TITL C-3985250-725-996 -9.06602710474415e-08 125000 -299.697982948257 0 0 60 (D3) n - 1
REM
REM in /home/nfs/bkarasulu/CARBON/AIRSS/Generating-Clusters/TERSOFF/Higher-Symm/Only-C60
REM
REM
REM
REM
REM
REM ./C.cell (28575a23ae977d3b5fae324c64b13b57)
REM
REM compiler GCC version 9.2.1 20190827 (Red Hat 9.2.1-1)
REM options -cpp -mtune=generic -march=x86-64 -g -O0 -fpre-include=/usr/include/finclude/math-vector-fortran.h
REM seed 964694273 568033586 1754118364 673948475 -2019782074 -1936704894 760638836 -577747393 -44416453 277959946 -712901999 -731372688 -1360715711 6551354 1862924842 993251238 1908230982 63070511 -1474853554 226922954 -1710804250 -2108781009 -888054606 -113857715 -412438267 1011179560 1614587149 -416456523 -1512796994 -1187053612 -1287202689 -1422305715 1081065301
REM
CELL 1.54180   50.00000   50.00000   50.00000   90.00000   90.00000   90.00000
LATT -1
SFAC C  
C      1  0.5119040000000  0.5484180000000  0.4365870000000 1.0
C      1  0.4521110000000  0.4861040000000  0.4365910000000 1.0
C      1  0.5359730000000  0.4654780000000  0.4365860000000 1.0
C      1  0.4880960000000  0.5484180000000  0.5634130000000 1.0
C      1  0.5478890000000  0.4861040000000  0.5634090000000 1.0
C      1  0.4640270000000  0.4654780000000  0.5634140000000 1.0
C      1  0.5225370000000  0.5221760000000  0.4425510000000 1.0
C      1  0.4695210000000  0.5084330000000  0.4425550000000 1.0
C      1  0.5079310000000  0.4693910000000  0.4425520000000 1.0
C      1  0.4774630000000  0.5221760000000  0.5574490000000 1.0
C      1  0.5304790000000  0.5084330000000  0.5574450000000 1.0
C      1  0.4920690000000  0.4693910000000  0.5574480000000 1.0
C      1  0.5312170000000  0.5541830000000  0.5420890000000 1.0
C      1  0.4374720000000  0.4999410000000  0.5420950000000 1.0
C      1  0.5313190000000  0.4458760000000  0.5420890000000 1.0
C      1  0.4687830000000  0.5541830000000  0.4579110000000 1.0
C      1  0.5625280000000  0.4999410000000  0.4579050000000 1.0
C      1  0.4686810000000  0.4458760000000  0.4579110000000 1.0
C      1  0.5075860000000  0.5410850000000  0.4872590000000 1.0
C      1  0.4606250000000  0.4860280000000  0.4872620000000 1.0
C      1  0.5317860000000  0.4728870000000  0.4872580000000 1.0
C      1  0.4924140000000  0.5410850000000  0.5127410000000 1.0
C      1  0.5393750000000  0.4860280000000  0.5127380000000 1.0
C      1  0.4682140000000  0.4728870000000  0.5127420000000 1.0
C      1  0.4841670000000  0.5134640000000  0.5279030000000 1.0
C      1  0.4962590000000  0.4795540000000  0.5279020000000 1.0
C      1  0.5195800000000  0.5069820000000  0.5279010000000 1.0
C      1  0.5158330000000  0.5134640000000  0.4720970000000 1.0
C      1  0.5037410000000  0.4795540000000  0.4720980000000 1.0
C      1  0.4804200000000  0.5069820000000  0.4720990000000 1.0
C      1  0.4213700000000  0.4860840000000  0.4726010000000 1.0
C      1  0.5513640000000  0.4388640000000  0.4725930000000 1.0
C      1  0.5272610000000  0.5750520000000  0.4725940000000 1.0
C      1  0.5786300000000  0.4860840000000  0.5273990000000 1.0
C      1  0.4486360000000  0.4388640000000  0.5274070000000 1.0
C      1  0.4727390000000  0.5750520000000  0.5274060000000 1.0
C      1  0.4602000000000  0.5497450000000  0.5114780000000 1.0
C      1  0.4768210000000  0.4406590000000  0.5114770000000 1.0
C      1  0.5629810000000  0.5095960000000  0.5114710000000 1.0
C      1  0.5398000000000  0.5497450000000  0.4885220000000 1.0
C      1  0.5231790000000  0.4406590000000  0.4885230000000 1.0
C      1  0.4370190000000  0.5095960000000  0.4885290000000 1.0
C      1  0.4446700000000  0.4690820000000  0.5399840000000 1.0
C      1  0.5544450000000  0.4675400000000  0.5399770000000 1.0
C      1  0.5008930000000  0.5633780000000  0.5399810000000 1.0
C      1  0.5553300000000  0.4690820000000  0.4600160000000 1.0
C      1  0.4455550000000  0.4675400000000  0.4600230000000 1.0
C      1  0.4991070000000  0.5633780000000  0.4600190000000 1.0
C      1  0.5131910000000  0.4506090000000  0.5652910000000 1.0
C      1  0.5361840000000  0.5361160000000  0.5652900000000 1.0
C      1  0.4506370000000  0.5132750000000  0.5652950000000 1.0
C      1  0.4868090000000  0.4506090000000  0.4347090000000 1.0
C      1  0.4638160000000  0.5361160000000  0.4347100000000 1.0
C      1  0.5493630000000  0.5132750000000  0.4347050000000 1.0
C      1  0.4607920000000  0.5358130000000  0.4818140000000 1.0
C      1  0.4885870000000  0.4481400000000  0.4818130000000 1.0
C      1  0.5506170000000  0.5160470000000  0.4818090000000 1.0
C      1  0.5392080000000  0.5358130000000  0.5181860000000 1.0
C      1  0.5114130000000  0.4481400000000  0.5181870000000 1.0
C      1  0.4493830000000  0.5160470000000  0.5181910000000 1.0
END
