TITL C-3985245-9316-768 -1.77860952212674e-07 125000 -315.343605335371 0 0 60 (C4) n - 1
REM
REM in /home/nfs/bkarasulu/CARBON/AIRSS/Generating-Clusters/TERSOFF/Higher-Symm/Only-C60
REM
REM
REM
REM
REM
REM ./C.cell (28575a23ae977d3b5fae324c64b13b57)
REM
REM compiler GCC version 9.2.1 20190827 (Red Hat 9.2.1-1)
REM options -cpp -mtune=generic -march=x86-64 -g -O0 -fpre-include=/usr/include/finclude/math-vector-fortran.h
REM seed 1014098118 -464157319 -1729992284 1971980878 -550410093 -894075144 -1132808324 1182896057 877183822 118487417 900385889 -1975284129 128703846 1201343041 -1431568872 -989809966 -208420416 299414156 -579458711 480105395 1204294192 -355363800 2008436783 862817 1549056379 -1683199258 614998661 128100887 1743895147 -1970787161 -617927518 1599897907 1268211049
REM
CELL 1.54180   50.00000   50.00000   50.00000   90.00000   90.00000   90.00000
LATT -1
SFAC C  
C      1  0.5381080000000  0.5011710000000  0.4440440000000 1.0
C      1  0.5011710000000  0.4618920000000  0.4440440000000 1.0
C      1  0.4618920000000  0.4988290000000  0.4440440000000 1.0
C      1  0.4988290000000  0.5381080000000  0.4440440000000 1.0
C      1  0.5002690000000  0.4771150000000  0.4164260000000 1.0
C      1  0.4771150000000  0.4997310000000  0.4164260000000 1.0
C      1  0.4997310000000  0.5228850000000  0.4164260000000 1.0
C      1  0.5228850000000  0.5002690000000  0.4164260000000 1.0
C      1  0.5074380000000  0.4785200000000  0.5379660000000 1.0
C      1  0.4785200000000  0.4925620000000  0.5379660000000 1.0
C      1  0.4925620000000  0.5214800000000  0.5379660000000 1.0
C      1  0.5214800000000  0.5074380000000  0.5379660000000 1.0
C      1  0.4515170000000  0.5317860000000  0.5519800000000 1.0
C      1  0.5317860000000  0.5484830000000  0.5519800000000 1.0
C      1  0.5484830000000  0.4682140000000  0.5519800000000 1.0
C      1  0.4682140000000  0.4515170000000  0.5519800000000 1.0
C      1  0.5187720000000  0.4593140000000  0.5585110000000 1.0
C      1  0.4593140000000  0.4812280000000  0.5585110000000 1.0
C      1  0.4812280000000  0.5406860000000  0.5585110000000 1.0
C      1  0.5406860000000  0.5187720000000  0.5585110000000 1.0
C      1  0.5065720000000  0.5556960000000  0.5664520000000 1.0
C      1  0.5556960000000  0.4934280000000  0.5664520000000 1.0
C      1  0.4934280000000  0.4443040000000  0.5664520000000 1.0
C      1  0.4443040000000  0.5065720000000  0.5664520000000 1.0
C      1  0.4955930000000  0.4401510000000  0.4673720000000 1.0
C      1  0.4401510000000  0.5044070000000  0.4673720000000 1.0
C      1  0.5044070000000  0.5598490000000  0.4673720000000 1.0
C      1  0.5598490000000  0.4955930000000  0.4673720000000 1.0
C      1  0.5351470000000  0.4998120000000  0.5110710000000 1.0
C      1  0.4998120000000  0.4648530000000  0.5110710000000 1.0
C      1  0.4648530000000  0.5001880000000  0.5110710000000 1.0
C      1  0.5001880000000  0.5351470000000  0.5110710000000 1.0
C      1  0.5160620000000  0.4398320000000  0.4938820000000 1.0
C      1  0.4398320000000  0.4839380000000  0.4938820000000 1.0
C      1  0.4839380000000  0.5601680000000  0.4938820000000 1.0
C      1  0.5601680000000  0.5160620000000  0.4938820000000 1.0
C      1  0.4764960000000  0.5233790000000  0.4583650000000 1.0
C      1  0.5233790000000  0.5235040000000  0.4583650000000 1.0
C      1  0.5235040000000  0.4766210000000  0.4583650000000 1.0
C      1  0.4766210000000  0.4764960000000  0.4583650000000 1.0
C      1  0.4950290000000  0.4233220000000  0.5135960000000 1.0
C      1  0.4233220000000  0.5049710000000  0.5135960000000 1.0
C      1  0.5049710000000  0.5766780000000  0.5135960000000 1.0
C      1  0.5766780000000  0.4950290000000  0.5135960000000 1.0
C      1  0.5171410000000  0.5169830000000  0.4870210000000 1.0
C      1  0.5169830000000  0.4828590000000  0.4870210000000 1.0
C      1  0.4828590000000  0.4830170000000  0.4870210000000 1.0
C      1  0.4830170000000  0.5171410000000  0.4870210000000 1.0
C      1  0.4535820000000  0.4535620000000  0.4974320000000 1.0
C      1  0.4535620000000  0.5464180000000  0.4974320000000 1.0
C      1  0.5464180000000  0.5464380000000  0.4974320000000 1.0
C      1  0.5464380000000  0.4535820000000  0.4974320000000 1.0
C      1  0.4463090000000  0.5271720000000  0.5217810000000 1.0
C      1  0.5271720000000  0.5536910000000  0.5217810000000 1.0
C      1  0.5536910000000  0.4728280000000  0.5217810000000 1.0
C      1  0.4728280000000  0.4463090000000  0.5217810000000 1.0
C      1  0.4390180000000  0.5339330000000  0.4741020000000 1.0
C      1  0.5339330000000  0.5609820000000  0.4741020000000 1.0
C      1  0.5609820000000  0.4660670000000  0.4741020000000 1.0
C      1  0.4660670000000  0.4390180000000  0.4741020000000 1.0
END
