TITL C-3985259-1859-78 0.00447780166271662 125000 -308.566630085841 0 0 60 (C1) n - 1
REM
REM in /home/nfs/bkarasulu/CARBON/AIRSS/Generating-Clusters/TERSOFF/Higher-Symm/Only-C60
REM
REM
REM
REM
REM
REM ./C.cell (28575a23ae977d3b5fae324c64b13b57)
REM
REM compiler GCC version 9.2.1 20190827 (Red Hat 9.2.1-1)
REM options -cpp -mtune=generic -march=x86-64 -g -O0 -fpre-include=/usr/include/finclude/math-vector-fortran.h
REM seed 724398014 2053746571 1540119928 946467187 -420936916 1751782152 1794510956 -2011940687 2116931073 538818579 987540528 2023062941 -1353574384 -1826878935 1418335674 -1219377786 -213708859 455384809 -696033500 -279871923 -1454920179 1090670883 2119014623 -322878223 649296598 -1539283122 -1053281594 250310125 966620752 846097 -14655269 2144898884 100552451
REM
CELL 1.54180   50.00000   50.00000   50.00000   90.00000   90.00000   90.00000
LATT -1
SFAC C  
C      1  0.5454600000000  0.5484210000000  0.4966280000000 1.0
C      1  0.5192470000000  0.4341490000000  0.4957100000000 1.0
C      1  0.4343630000000  0.5163100000000  0.4962030000000 1.0
C      1  0.5637180000000  0.5352680000000  0.4591570000000 1.0
C      1  0.4984220000000  0.4267340000000  0.4582410000000 1.0
C      1  0.4377690000000  0.5379470000000  0.4578210000000 1.0
C      1  0.4734970000000  0.4425510000000  0.4752990000000 1.0
C      1  0.4635160000000  0.5518950000000  0.4738930000000 1.0
C      1  0.5622260000000  0.5053930000000  0.4753120000000 1.0
C      1  0.5623390000000  0.4980260000000  0.5296340000000 1.0
C      1  0.4651050000000  0.4447280000000  0.5302640000000 1.0
C      1  0.4688340000000  0.5565860000000  0.5296920000000 1.0
C      1  0.5149800000000  0.5687150000000  0.4757840000000 1.0
C      1  0.5507310000000  0.4534580000000  0.4757720000000 1.0
C      1  0.4331780000000  0.4787550000000  0.4745020000000 1.0
C      1  0.4834490000000  0.4964100000000  0.5587810000000 1.0
C      1  0.5045210000000  0.5257650000000  0.5588180000000 1.0
C      1  0.5161500000000  0.4809470000000  0.5599800000000 1.0
C      1  0.4947020000000  0.5532080000000  0.5460570000000 1.0
C      1  0.5463080000000  0.4767260000000  0.5448920000000 1.0
C      1  0.4599010000000  0.4723410000000  0.5454700000000 1.0
C      1  0.5258400000000  0.4398570000000  0.4530630000000 1.0
C      1  0.4356260000000  0.5078330000000  0.4529650000000 1.0
C      1  0.5388630000000  0.5526890000000  0.4535710000000 1.0
C      1  0.4340600000000  0.4791220000000  0.5269650000000 1.0
C      1  0.5144400000000  0.5700380000000  0.5281070000000 1.0
C      1  0.5528450000000  0.4515400000000  0.5270240000000 1.0
C      1  0.5271910000000  0.5172010000000  0.5421350000000 1.0
C      1  0.5013430000000  0.4626860000000  0.5414550000000 1.0
C      1  0.4695730000000  0.5155440000000  0.5382840000000 1.0
C      1  0.5172790000000  0.5045180000000  0.5141840000000 1.0
C      1  0.4957100000000  0.4756250000000  0.5146600000000 1.0
C      1  0.4853840000000  0.5219110000000  0.5126530000000 1.0
C      1  0.5729500000000  0.4906170000000  0.5023140000000 1.0
C      1  0.4546270000000  0.4407310000000  0.5021820000000 1.0
C      1  0.4711690000000  0.5686470000000  0.5018750000000 1.0
C      1  0.5482360000000  0.5369180000000  0.5413620000000 1.0
C      1  0.5097520000000  0.4351640000000  0.5414670000000 1.0
C      1  0.4419770000000  0.5228550000000  0.5415160000000 1.0
C      1  0.4624990000000  0.4906260000000  0.4469130000000 1.0
C      1  0.5109000000000  0.5383000000000  0.4467820000000 1.0
C      1  0.5268550000000  0.4716150000000  0.4464320000000 1.0
C      1  0.4556400000000  0.4610700000000  0.4575280000000 1.0
C      1  0.4879510000000  0.5592710000000  0.4555510000000 1.0
C      1  0.5560650000000  0.4811370000000  0.4568320000000 1.0
C      1  0.4988820000000  0.4547040000000  0.4891030000000 1.0
C      1  0.4622850000000  0.5233750000000  0.4885200000000 1.0
C      1  0.5385470000000  0.5204710000000  0.4894390000000 1.0
C      1  0.5418020000000  0.5588830000000  0.5235750000000 1.0
C      1  0.5310750000000  0.4318360000000  0.5222720000000 1.0
C      1  0.4268310000000  0.5072740000000  0.5229840000000 1.0
C      1  0.5686900000000  0.4595220000000  0.5022190000000 1.0
C      1  0.4333570000000  0.4628910000000  0.5018750000000 1.0
C      1  0.5004420000000  0.5800840000000  0.5027600000000 1.0
C      1  0.5098970000000  0.4815370000000  0.4700180000000 1.0
C      1  0.4784540000000  0.4995730000000  0.4709800000000 1.0
C      1  0.5102050000000  0.5171460000000  0.4693170000000 1.0
C      1  0.5016390000000  0.5401730000000  0.4902540000000 1.0
C      1  0.5325980000000  0.4791100000000  0.4937180000000 1.0
C      1  0.4701050000000  0.4835740000000  0.4992360000000 1.0
END
