TITL C-3985254-1270-2026 6.01006695002497e-06 125000 -317.129301236292 0 0 60 (C2) n - 1
REM
REM in /home/nfs/bkarasulu/CARBON/AIRSS/Generating-Clusters/TERSOFF/Higher-Symm/Only-C60
REM
REM
REM
REM
REM
REM ./C.cell (28575a23ae977d3b5fae324c64b13b57)
REM
REM compiler GCC version 9.2.1 20190827 (Red Hat 9.2.1-1)
REM options -cpp -mtune=generic -march=x86-64 -g -O0 -fpre-include=/usr/include/finclude/math-vector-fortran.h
REM seed -1508605917 1653501702 -360357396 1817403151 460276805 -1460832325 -1214238405 -492094319 -708746221 -1767517946 1007732577 1684453163 2017622555 896914054 -1468392317 -1223302860 655423040 396655642 1801601885 -540796440 1027858567 1012313378 1154326194 355614871 -301785464 2000988778 1340085784 -1119975721 -685595435 -414980630 137429559 274264834 198174998
REM
CELL 1.54180   50.00000   50.00000   50.00000   90.00000   90.00000   90.00000
LATT -1
SFAC C  
C      1  0.4568070000000  0.4436570000000  0.5346170000000 1.0
C      1  0.4568080000000  0.5563430000000  0.4653830000000 1.0
C      1  0.5617150000000  0.5180690000000  0.5154810000000 1.0
C      1  0.5617150000000  0.4819310000000  0.4845180000000 1.0
C      1  0.5279850000000  0.5173670000000  0.4330920000000 1.0
C      1  0.5279850000000  0.4826330000000  0.5669080000000 1.0
C      1  0.5137580000000  0.4687540000000  0.4927250000000 1.0
C      1  0.5137580000000  0.5312460000000  0.5072750000000 1.0
C      1  0.4937440000000  0.4684190000000  0.5151270000000 1.0
C      1  0.4937440000000  0.5315810000000  0.4848730000000 1.0
C      1  0.4725670000000  0.4427570000000  0.5092960000000 1.0
C      1  0.4725670000000  0.5572430000000  0.4907040000000 1.0
C      1  0.5626000000000  0.5463150000000  0.5246790000000 1.0
C      1  0.5625990000000  0.4536850000000  0.4753210000000 1.0
C      1  0.5389920000000  0.4790980000000  0.5043030000000 1.0
C      1  0.5389920000000  0.5209020000000  0.4956970000000 1.0
C      1  0.4847260000000  0.5548840000000  0.5376040000000 1.0
C      1  0.4847250000000  0.4451160000000  0.4623960000000 1.0
C      1  0.5088690000000  0.4728780000000  0.4423510000000 1.0
C      1  0.5088690000000  0.5271220000000  0.5576490000000 1.0
C      1  0.5442200000000  0.5626970000000  0.5081650000000 1.0
C      1  0.5442200000000  0.4373030000000  0.4918350000000 1.0
C      1  0.5115720000000  0.4567290000000  0.5383190000000 1.0
C      1  0.5115730000000  0.5432710000000  0.4616810000000 1.0
C      1  0.4730420000000  0.5248210000000  0.5548220000000 1.0
C      1  0.4730420000000  0.4751790000000  0.4451780000000 1.0
C      1  0.5651070000000  0.5050810000000  0.4668570000000 1.0
C      1  0.5651070000000  0.4949180000000  0.5331430000000 1.0
C      1  0.5488340000000  0.4420130000000  0.5213820000000 1.0
C      1  0.5488340000000  0.5579860000000  0.4786180000000 1.0
C      1  0.4974210000000  0.4236270000000  0.5076870000000 1.0
C      1  0.4974220000000  0.5763730000000  0.4923130000000 1.0
C      1  0.4842870000000  0.4964120000000  0.5258280000000 1.0
C      1  0.4842870000000  0.5035880000000  0.4741720000000 1.0
C      1  0.4222850000000  0.4943130000000  0.4827740000000 1.0
C      1  0.4222850000000  0.5056870000000  0.5172260000000 1.0
C      1  0.4738160000000  0.4886410000000  0.5551970000000 1.0
C      1  0.4738160000000  0.5113590000000  0.4448030000000 1.0
C      1  0.4616710000000  0.5160260000000  0.5070550000000 1.0
C      1  0.4616710000000  0.4839740000000  0.4929450000000 1.0
C      1  0.4457410000000  0.5292890000000  0.5311660000000 1.0
C      1  0.4457410000000  0.4707110000000  0.4688340000000 1.0
C      1  0.4504170000000  0.4709430000000  0.5441440000000 1.0
C      1  0.4504170000000  0.5290570000000  0.4558560000000 1.0
C      1  0.5265830000000  0.5107120000000  0.5734860000000 1.0
C      1  0.5265830000000  0.4892880000000  0.4265140000000 1.0
C      1  0.4989340000000  0.4704550000000  0.5637890000000 1.0
C      1  0.4989340000000  0.5295450000000  0.4362110000000 1.0
C      1  0.4599650000000  0.4437150000000  0.4812500000000 1.0
C      1  0.4599650000000  0.5562860000000  0.5187500000000 1.0
C      1  0.5111170000000  0.5725770000000  0.4663770000000 1.0
C      1  0.5111170000000  0.4274230000000  0.5336230000000 1.0
C      1  0.5055380000000  0.4840570000000  0.4702460000000 1.0
C      1  0.5055380000000  0.5159430000000  0.5297540000000 1.0
C      1  0.4407520000000  0.5184510000000  0.4815700000000 1.0
C      1  0.4407520000000  0.4815490000000  0.5184300000000 1.0
C      1  0.5439770000000  0.5285030000000  0.4635070000000 1.0
C      1  0.5439770000000  0.4714960000000  0.5364930000000 1.0
C      1  0.5129580000000  0.4373640000000  0.4834270000000 1.0
C      1  0.5129590000000  0.5626360000000  0.5165730000000 1.0
END
