TITL C-3985245-9316-684 -3.18827675127583e-08 125000 -291.443251150759 0 0 60 (Td) n - 1
REM
REM in /home/nfs/bkarasulu/CARBON/AIRSS/Generating-Clusters/TERSOFF/Higher-Symm/Only-C60
REM
REM
REM
REM
REM
REM ./C.cell (28575a23ae977d3b5fae324c64b13b57)
REM
REM compiler GCC version 9.2.1 20190827 (Red Hat 9.2.1-1)
REM options -cpp -mtune=generic -march=x86-64 -g -O0 -fpre-include=/usr/include/finclude/math-vector-fortran.h
REM seed 1659227276 -333090840 -264354004 -525864011 -1958878074 879971391 668102991 -665369017 4602924 -1748894216 -130938903 336136099 -1326649570 709345799 46462755 1254445951 924121338 476792122 218170514 -1458508872 854955432 -859501303 262978534 112516915 1432134441 -1124892785 1498741823 -895100049 1286182701 -543637185 987849964 -1901124981 161692905
REM
CELL 1.54180   50.00000   50.00000   50.00000   90.00000   90.00000   90.00000
LATT -1
SFAC C  
C      1  0.4538330000000  0.4330440000000  0.5245000000000 1.0
C      1  0.4330440000000  0.5245000000000  0.4538330000000 1.0
C      1  0.5245000000000  0.4538330000000  0.4330440000000 1.0
C      1  0.5461670000000  0.5669560000000  0.5245000000000 1.0
C      1  0.4538330000000  0.5669560000000  0.4755000000000 1.0
C      1  0.5461670000000  0.4330440000000  0.4755000000000 1.0
C      1  0.5669560000000  0.4755000000000  0.4538330000000 1.0
C      1  0.4330440000000  0.4755000000000  0.5461670000000 1.0
C      1  0.5669560000000  0.5245000000000  0.5461670000000 1.0
C      1  0.4755000000000  0.5461670000000  0.4330440000000 1.0
C      1  0.5245000000000  0.5461670000000  0.5669560000000 1.0
C      1  0.4755000000000  0.4538330000000  0.5669560000000 1.0
C      1  0.4330440000000  0.4538330000000  0.5245000000000 1.0
C      1  0.5245000000000  0.4330440000000  0.4538330000000 1.0
C      1  0.4538330000000  0.5245000000000  0.4330440000000 1.0
C      1  0.5669560000000  0.5461670000000  0.5245000000000 1.0
C      1  0.5669560000000  0.4538330000000  0.4755000000000 1.0
C      1  0.4330440000000  0.5461670000000  0.4755000000000 1.0
C      1  0.4755000000000  0.5669560000000  0.4538330000000 1.0
C      1  0.4755000000000  0.4330440000000  0.5461670000000 1.0
C      1  0.5245000000000  0.5669560000000  0.5461670000000 1.0
C      1  0.5461670000000  0.4755000000000  0.4330440000000 1.0
C      1  0.5461670000000  0.5245000000000  0.5669560000000 1.0
C      1  0.4538330000000  0.4755000000000  0.5669560000000 1.0
C      1  0.5002410000000  0.5653230000000  0.4751060000000 1.0
C      1  0.5653230000000  0.4751060000000  0.5002410000000 1.0
C      1  0.4751060000000  0.5002410000000  0.5653230000000 1.0
C      1  0.4997590000000  0.4346770000000  0.4751060000000 1.0
C      1  0.5002410000000  0.4346770000000  0.5248940000000 1.0
C      1  0.4997590000000  0.5653230000000  0.5248940000000 1.0
C      1  0.4346770000000  0.5248940000000  0.5002410000000 1.0
C      1  0.5653230000000  0.5248940000000  0.4997590000000 1.0
C      1  0.4346770000000  0.4751060000000  0.4997590000000 1.0
C      1  0.5248940000000  0.4997590000000  0.5653230000000 1.0
C      1  0.4751060000000  0.4997590000000  0.4346770000000 1.0
C      1  0.5248940000000  0.5002410000000  0.4346770000000 1.0
C      1  0.5653230000000  0.5002410000000  0.4751060000000 1.0
C      1  0.4751060000000  0.5653230000000  0.5002410000000 1.0
C      1  0.5002410000000  0.4751060000000  0.5653230000000 1.0
C      1  0.4346770000000  0.4997590000000  0.4751060000000 1.0
C      1  0.4346770000000  0.5002410000000  0.5248940000000 1.0
C      1  0.5653230000000  0.4997590000000  0.5248940000000 1.0
C      1  0.5248940000000  0.4346770000000  0.5002410000000 1.0
C      1  0.5248940000000  0.5653230000000  0.4997590000000 1.0
C      1  0.4751060000000  0.4346770000000  0.4997590000000 1.0
C      1  0.4997590000000  0.5248940000000  0.5653230000000 1.0
C      1  0.4997590000000  0.4751060000000  0.4346770000000 1.0
C      1  0.5002410000000  0.5248940000000  0.4346770000000 1.0
C      1  0.5388300000000  0.5138190000000  0.4611700000000 1.0
C      1  0.5138190000000  0.5388300000000  0.4611700000000 1.0
C      1  0.4861810000000  0.5388300000000  0.5388300000000 1.0
C      1  0.5138190000000  0.4611700000000  0.5388300000000 1.0
C      1  0.4611700000000  0.5388300000000  0.5138190000000 1.0
C      1  0.5388300000000  0.4611700000000  0.5138190000000 1.0
C      1  0.5388300000000  0.4861810000000  0.5388300000000 1.0
C      1  0.4611700000000  0.5138190000000  0.5388300000000 1.0
C      1  0.4861810000000  0.4611700000000  0.4611700000000 1.0
C      1  0.4611700000000  0.4611700000000  0.4861810000000 1.0
C      1  0.4611700000000  0.4861810000000  0.4611700000000 1.0
C      1  0.5388300000000  0.5388300000000  0.4861810000000 1.0
END
