TITL C-3985244-725-241 0.00259833968070398 125000 -272.063569248678 0 0 60 (C5) n - 1
REM
REM in /home/nfs/bkarasulu/CARBON/AIRSS/Generating-Clusters/TERSOFF/Higher-Symm/Only-C60
REM
REM
REM
REM
REM
REM ./C.cell (28575a23ae977d3b5fae324c64b13b57)
REM
REM compiler GCC version 9.2.1 20190827 (Red Hat 9.2.1-1)
REM options -cpp -mtune=generic -march=x86-64 -g -O0 -fpre-include=/usr/include/finclude/math-vector-fortran.h
REM seed -1567347571 -1770976782 586690779 -2087810829 297664784 348683889 1611759274 1241228530 -1539115238 892153888 1155053901 489524678 -1758691447 -435627113 1195426998 1754903265 1981923149 807241823 1655844383 1160975317 -1512971638 1394036214 617234828 -1931422752 2087465200 -2028826916 2059891573 -1045797360 1199211948 -1917097268 -4271586 -547432283 -596637328
REM
CELL 1.54180   50.00000   50.00000   50.00000   90.00000   90.00000   90.00000
LATT -1
SFAC C  
C      1  0.4820080000000  0.4716970000000  0.4337170000000 1.0
C      1  0.5574800000000  0.4716970000000  0.4624060000000 1.0
C      1  0.5535150000000  0.4716970000000  0.5430490000000 1.0
C      1  0.4755950000000  0.4716970000000  0.5642000000000 1.0
C      1  0.4314010000000  0.4716970000000  0.4966280000000 1.0
C      1  0.5098760000000  0.4437780000000  0.5277100000000 1.0
C      1  0.4767240000000  0.4438100000000  0.5179690000000 1.0
C      1  0.4757230000000  0.4437940000000  0.4834010000000 1.0
C      1  0.5082830000000  0.4437930000000  0.4717750000000 1.0
C      1  0.5293910000000  0.4438130000000  0.4991440000000 1.0
C      1  0.5602910000000  0.5273760000000  0.5442560000000 1.0
C      1  0.4765390000000  0.5273810000000  0.5710210000000 1.0
C      1  0.4252090000000  0.5273770000000  0.4996340000000 1.0
C      1  0.4772360000000  0.5273790000000  0.4287550000000 1.0
C      1  0.5607260000000  0.5273800000000  0.4563330000000 1.0
C      1  0.4349310000000  0.4796690000000  0.5315760000000 1.0
C      1  0.4498630000000  0.4796710000000  0.4478730000000 1.0
C      1  0.5340800000000  0.4796650000000  0.4362090000000 1.0
C      1  0.5712040000000  0.4796720000000  0.5127010000000 1.0
C      1  0.5099220000000  0.4796680000000  0.5716400000000 1.0
C      1  0.5297310000000  0.5276320000000  0.5532480000000 1.0
C      1  0.4585530000000  0.5276240000000  0.5447220000000 1.0
C      1  0.4446500000000  0.5276320000000  0.4743980000000 1.0
C      1  0.5072450000000  0.5276250000000  0.4394550000000 1.0
C      1  0.5598250000000  0.5276310000000  0.4881780000000 1.0
C      1  0.4620210000000  0.4942270000000  0.5467890000000 1.0
C      1  0.4437640000000  0.4942300000000  0.4783360000000 1.0
C      1  0.5032420000000  0.4942180000000  0.4398360000000 1.0
C      1  0.5582330000000  0.4942250000000  0.4844560000000 1.0
C      1  0.5327440000000  0.4942250000000  0.5505810000000 1.0
C      1  0.5629740000000  0.4526870000000  0.4894220000000 1.0
C      1  0.5295140000000  0.4526760000000  0.5566180000000 1.0
C      1  0.4552700000000  0.4526830000000  0.5455720000000 1.0
C      1  0.4428380000000  0.4526780000000  0.4715430000000 1.0
C      1  0.5094030000000  0.4526860000000  0.4368500000000 1.0
C      1  0.5095440000000  0.5037850000000  0.5251140000000 1.0
C      1  0.4790570000000  0.5037960000000  0.5168470000000 1.0
C      1  0.4775150000000  0.5037890000000  0.4852910000000 1.0
C      1  0.5070390000000  0.5037900000000  0.4740650000000 1.0
C      1  0.5268410000000  0.5037980000000  0.4986870000000 1.0
C      1  0.4540620000000  0.5154310000000  0.4437580000000 1.0
C      1  0.5392880000000  0.5154320000000  0.4389330000000 1.0
C      1  0.5702280000000  0.5154300000000  0.5185050000000 1.0
C      1  0.5041090000000  0.5154310000000  0.5724980000000 1.0
C      1  0.4323140000000  0.5154310000000  0.5263100000000 1.0
C      1  0.4772370000000  0.5716820000000  0.5135680000000 1.0
C      1  0.4800620000000  0.5716810000000  0.4825440000000 1.0
C      1  0.5104410000000  0.5716810000000  0.4756440000000 1.0
C      1  0.5263900000000  0.5716810000000  0.5024030000000 1.0
C      1  0.5058700000000  0.5716810000000  0.5258420000000 1.0
C      1  0.5307150000000  0.5385090000000  0.4981870000000 1.0
C      1  0.5112140000000  0.5385110000000  0.5286520000000 1.0
C      1  0.4762170000000  0.5385080000000  0.5195200000000 1.0
C      1  0.4740860000000  0.5385100000000  0.4834120000000 1.0
C      1  0.5077680000000  0.5385090000000  0.4702290000000 1.0
C      1  0.4633740000000  0.4735130000000  0.5103510000000 1.0
C      1  0.4788410000000  0.4735140000000  0.4683650000000 1.0
C      1  0.5235410000000  0.4734920000000  0.4700910000000 1.0
C      1  0.5357190000000  0.4735250000000  0.5131550000000 1.0
C      1  0.4985250000000  0.4734980000000  0.5380290000000 1.0
END
