TITL C-3985251-913-481 -0.000907508712177648 125000 -324.336107753837 0 0 60 (C2) n - 1
REM
REM in /home/nfs/bkarasulu/CARBON/AIRSS/Generating-Clusters/TERSOFF/Higher-Symm/Only-C60
REM
REM
REM
REM
REM
REM ./C.cell (28575a23ae977d3b5fae324c64b13b57)
REM
REM compiler GCC version 9.2.1 20190827 (Red Hat 9.2.1-1)
REM options -cpp -mtune=generic -march=x86-64 -g -O0 -fpre-include=/usr/include/finclude/math-vector-fortran.h
REM seed -810458368 1344006735 956976975 -581446106 -675838770 896058140 484919953 -538704224 -1568606111 1099322828 2059046463 1218601732 -873149294 1088421826 -156743101 -1806870375 2001073324 -1499801293 -296543609 -1461033708 1850601649 1306548180 1197068909 -963250247 1907716917 805790272 -48655088 3585543 -944957786 2143966042 -1330554234 -1428829090 424777861
REM
CELL 1.54180   50.00000   50.00000   50.00000   90.00000   90.00000   90.00000
LATT -1
SFAC C  
C      1  0.5621630000000  0.4667300000000  0.5052160000000 1.0
C      1  0.4378370000000  0.4667290000000  0.4947830000000 1.0
C      1  0.5417990000000  0.4369680000000  0.5037970000000 1.0
C      1  0.4582020000000  0.4369680000000  0.4962030000000 1.0
C      1  0.5277250000000  0.5094090000000  0.4999330000000 1.0
C      1  0.4722720000000  0.5094060000000  0.5000720000000 1.0
C      1  0.5098230000000  0.4641760000000  0.4413760000000 1.0
C      1  0.4901760000000  0.4641760000000  0.5586240000000 1.0
C      1  0.5537920000000  0.4787320000000  0.5331120000000 1.0
C      1  0.4462090000000  0.4787310000000  0.4668880000000 1.0
C      1  0.5650110000000  0.5282230000000  0.5177480000000 1.0
C      1  0.4349890000000  0.5282230000000  0.4822520000000 1.0
C      1  0.5232890000000  0.4438640000000  0.5313420000000 1.0
C      1  0.4767110000000  0.4438640000000  0.4686580000000 1.0
C      1  0.4989310000000  0.5546080000000  0.5463250000000 1.0
C      1  0.5010690000000  0.5546070000000  0.4536750000000 1.0
C      1  0.4850240000000  0.4703210000000  0.4260180000000 1.0
C      1  0.5149760000000  0.4703210000000  0.5739820000000 1.0
C      1  0.5235450000000  0.4620320000000  0.4893920000000 1.0
C      1  0.4764540000000  0.4620320000000  0.5106080000000 1.0
C      1  0.4783330000000  0.5143850000000  0.5652340000000 1.0
C      1  0.5216670000000  0.5143850000000  0.4347660000000 1.0
C      1  0.5465100000000  0.5433590000000  0.4746190000000 1.0
C      1  0.4534910000000  0.5433580000000  0.5253800000000 1.0
C      1  0.4538370000000  0.5157970000000  0.4361320000000 1.0
C      1  0.5461620000000  0.5157970000000  0.5638680000000 1.0
C      1  0.4565840000000  0.5472750000000  0.4748690000000 1.0
C      1  0.5434170000000  0.5472750000000  0.5251310000000 1.0
C      1  0.5650150000000  0.5077200000000  0.5390160000000 1.0
C      1  0.4349850000000  0.5077200000000  0.4609840000000 1.0
C      1  0.5236110000000  0.4738180000000  0.5218110000000 1.0
C      1  0.4763880000000  0.4738200000000  0.4781910000000 1.0
C      1  0.5001330000000  0.5685210000000  0.4790860000000 1.0
C      1  0.4998680000000  0.5685210000000  0.5209140000000 1.0
C      1  0.5392770000000  0.4840830000000  0.5628630000000 1.0
C      1  0.4607220000000  0.4840830000000  0.4371370000000 1.0
C      1  0.4927140000000  0.4424930000000  0.5342620000000 1.0
C      1  0.5072860000000  0.4424930000000  0.4657380000000 1.0
C      1  0.4700410000000  0.4885300000000  0.5235710000000 1.0
C      1  0.5299580000000  0.4885300000000  0.4764290000000 1.0
C      1  0.5285060000000  0.5620520000000  0.4997940000000 1.0
C      1  0.4714940000000  0.5620530000000  0.5002050000000 1.0
C      1  0.4335980000000  0.5207350000000  0.5117640000000 1.0
C      1  0.5663970000000  0.5207330000000  0.4882380000000 1.0
C      1  0.4874020000000  0.4216060000000  0.5092490000000 1.0
C      1  0.5125980000000  0.4216060000000  0.4907510000000 1.0
C      1  0.4723580000000  0.5405790000000  0.5505770000000 1.0
C      1  0.5276420000000  0.5405790000000  0.4494220000000 1.0
C      1  0.4863880000000  0.5337370000000  0.5011540000000 1.0
C      1  0.5136120000000  0.5337370000000  0.4988460000000 1.0
C      1  0.4742710000000  0.5377180000000  0.4497040000000 1.0
C      1  0.5257290000000  0.5377180000000  0.5502960000000 1.0
C      1  0.5300460000000  0.4868030000000  0.4450000000000 1.0
C      1  0.4699580000000  0.4868040000000  0.5549980000000 1.0
C      1  0.5060960000000  0.5124370000000  0.5517610000000 1.0
C      1  0.4939040000000  0.5124380000000  0.4482390000000 1.0
C      1  0.4390920000000  0.4899980000000  0.5169800000000 1.0
C      1  0.5609110000000  0.4899960000000  0.4830190000000 1.0
C      1  0.4972890000000  0.4932930000000  0.4704320000000 1.0
C      1  0.5027120000000  0.4932950000000  0.5295660000000 1.0
END
