TITL C-3985250-725-407 -0.000168313106340206 125000 -342.245184851817 0 0 60 (C2) n - 1
REM
REM in /home/nfs/bkarasulu/CARBON/AIRSS/Generating-Clusters/TERSOFF/Higher-Symm/Only-C60
REM
REM
REM
REM
REM
REM ./C.cell (28575a23ae977d3b5fae324c64b13b57)
REM
REM compiler GCC version 9.2.1 20190827 (Red Hat 9.2.1-1)
REM options -cpp -mtune=generic -march=x86-64 -g -O0 -fpre-include=/usr/include/finclude/math-vector-fortran.h
REM seed -1120975286 -1417614605 1095691458 429278314 -280513360 711345286 498701210 1780659266 -1257229680 -1789453983 -921262346 -591497514 -354010271 -439482400 714936954 2035559735 1093278029 751496412 159429921 -2015493163 -1201303621 -1289915509 -494823111 -1321567199 -221023311 -1731226273 -617702350 -788047624 315048113 1767437968 299379983 1033544041 -956200057
REM
CELL 1.54180   50.00000   50.00000   50.00000   90.00000   90.00000   90.00000
LATT -1
SFAC C  
C      1  0.4461130000000  0.5614460000000  0.4915010000000 1.0
C      1  0.4109070000000  0.5175000000000  0.4974560000000 1.0
C      1  0.4206330000000  0.4692220000000  0.4907770000000 1.0
C      1  0.4476420000000  0.4185840000000  0.4847310000000 1.0
C      1  0.5100980000000  0.4047360000000  0.4886530000000 1.0
C      1  0.5538870000000  0.4385540000000  0.4915010000000 1.0
C      1  0.5890920000000  0.4825010000000  0.4974570000000 1.0
C      1  0.5793710000000  0.5307750000000  0.4907710000000 1.0
C      1  0.5523580000000  0.5814160000000  0.4847300000000 1.0
C      1  0.4899020000000  0.5952640000000  0.4886530000000 1.0
C      1  0.4366760000000  0.5119150000000  0.4852430000000 1.0
C      1  0.4474800000000  0.4830290000000  0.4853700000000 1.0
C      1  0.4664510000000  0.4240750000000  0.4634360000000 1.0
C      1  0.4981210000000  0.4183220000000  0.4659900000000 1.0
C      1  0.5427700000000  0.4663810000000  0.4875830000000 1.0
C      1  0.5633240000000  0.4880860000000  0.4852430000000 1.0
C      1  0.5525190000000  0.5169710000000  0.4853680000000 1.0
C      1  0.5335490000000  0.5759250000000  0.4634360000000 1.0
C      1  0.5018790000000  0.5816780000000  0.4659900000000 1.0
C      1  0.4572300000000  0.5336180000000  0.4875830000000 1.0
C      1  0.5055990000000  0.4120850000000  0.5163650000000 1.0
C      1  0.5562010000000  0.4302230000000  0.5199410000000 1.0
C      1  0.5883620000000  0.4789910000000  0.5266450000000 1.0
C      1  0.5841990000000  0.5333970000000  0.5212120000000 1.0
C      1  0.5480410000000  0.5742290000000  0.5124470000000 1.0
C      1  0.4944020000000  0.5879150000000  0.5163660000000 1.0
C      1  0.4438000000000  0.5697770000000  0.5199410000000 1.0
C      1  0.4116370000000  0.5210090000000  0.5266440000000 1.0
C      1  0.4158010000000  0.4666030000000  0.5212120000000 1.0
C      1  0.4519590000000  0.4257700000000  0.5124470000000 1.0
C      1  0.5345190000000  0.5240800000000  0.5157980000000 1.0
C      1  0.5124720000000  0.5443650000000  0.5272500000000 1.0
C      1  0.4831210000000  0.5438060000000  0.5345270000000 1.0
C      1  0.4612620000000  0.5267830000000  0.5224230000000 1.0
C      1  0.4542820000000  0.4987090000000  0.5316460000000 1.0
C      1  0.4654810000000  0.4759200000000  0.5157980000000 1.0
C      1  0.4875280000000  0.4556350000000  0.5272500000000 1.0
C      1  0.5168790000000  0.4561940000000  0.5345270000000 1.0
C      1  0.5387380000000  0.4732170000000  0.5224230000000 1.0
C      1  0.5457180000000  0.5012910000000  0.5316460000000 1.0
C      1  0.4338660000000  0.5422790000000  0.5327430000000 1.0
C      1  0.4238630000000  0.4941640000000  0.5356350000000 1.0
C      1  0.4439190000000  0.4534370000000  0.5219260000000 1.0
C      1  0.4802190000000  0.4272620000000  0.5230480000000 1.0
C      1  0.5276540000000  0.4273710000000  0.5309710000000 1.0
C      1  0.5661340000000  0.4577210000000  0.5327430000000 1.0
C      1  0.5761360000000  0.5058360000000  0.5356350000000 1.0
C      1  0.5560770000000  0.5465650000000  0.5219320000000 1.0
C      1  0.5197810000000  0.5727380000000  0.5230490000000 1.0
C      1  0.4723470000000  0.5726280000000  0.5309710000000 1.0
C      1  0.4764810000000  0.5041500000000  0.4510160000000 1.0
C      1  0.4640050000000  0.4795370000000  0.4610800000000 1.0
C      1  0.4749910000000  0.4534950000000  0.4533120000000 1.0
C      1  0.5055980000000  0.4483300000000  0.4557080000000 1.0
C      1  0.5230060000000  0.4701860000000  0.4655680000000 1.0
C      1  0.5235160000000  0.4958490000000  0.4510120000000 1.0
C      1  0.5359970000000  0.5204630000000  0.4610830000000 1.0
C      1  0.5250080000000  0.5465040000000  0.4533110000000 1.0
C      1  0.4944020000000  0.5516700000000  0.4557080000000 1.0
C      1  0.4769960000000  0.5298150000000  0.4655670000000 1.0
END
