TITL C-3985247-764-582 0.00127602180522264 125000 -343.733666256406 0 0 60 (C5) n - 1
REM
REM in /home/nfs/bkarasulu/CARBON/AIRSS/Generating-Clusters/TERSOFF/Higher-Symm/Only-C60
REM
REM
REM
REM
REM
REM ./C.cell (28575a23ae977d3b5fae324c64b13b57)
REM
REM compiler GCC version 9.2.1 20190827 (Red Hat 9.2.1-1)
REM options -cpp -mtune=generic -march=x86-64 -g -O0 -fpre-include=/usr/include/finclude/math-vector-fortran.h
REM seed 21121087 1223561810 1877089593 1085172458 -463990296 1621003076 -1701119291 -882497397 -1431420973 874827920 957986289 1345020557 -430642902 -717440970 1182355836 -765951065 1217239356 -162067777 -1742045908 -1177402102 855996748 -2097375248 -465465479 1823425654 -1843778087 -1681176365 1022903441 -312435050 1824642449 645123541 432625833 -975637144 -166876350
REM
CELL 1.54180   50.00000   50.00000   50.00000   90.00000   90.00000   90.00000
LATT -1
SFAC C  
C      1  0.5369880000000  0.4981810000000  0.5356760000000 1.0
C      1  0.5369890000000  0.5333650000000  0.5127500000000 1.0
C      1  0.5369860000000  0.5224430000000  0.4722020000000 1.0
C      1  0.5369950000000  0.4805000000000  0.4700720000000 1.0
C      1  0.5369900000000  0.4655070000000  0.5092990000000 1.0
C      1  0.4971990000000  0.4686330000000  0.4526360000000 1.0
C      1  0.4971940000000  0.4452580000000  0.5151960000000 1.0
C      1  0.4971970000000  0.4975350000000  0.5567580000000 1.0
C      1  0.4972000000000  0.5532190000000  0.5198820000000 1.0
C      1  0.4971990000000  0.5353560000000  0.4555280000000 1.0
C      1  0.4700470000000  0.4401050000000  0.5055490000000 1.0
C      1  0.4700480000000  0.4867700000000  0.5586800000000 1.0
C      1  0.4700520000000  0.5517200000000  0.5307160000000 1.0
C      1  0.4700510000000  0.5451970000000  0.4603040000000 1.0
C      1  0.4700520000000  0.4762160000000  0.4447530000000 1.0
C      1  0.5199120000000  0.4272390000000  0.5065920000000 1.0
C      1  0.5199120000000  0.4837820000000  0.5712360000000 1.0
C      1  0.5199170000000  0.5627380000000  0.5374340000000 1.0
C      1  0.5199180000000  0.5549850000000  0.4519020000000 1.0
C      1  0.5199180000000  0.4712480000000  0.4328410000000 1.0
C      1  0.5077090000000  0.5251270000000  0.5097110000000 1.0
C      1  0.5077110000000  0.5170010000000  0.4791000000000 1.0
C      1  0.5077130000000  0.4853760000000  0.4773720000000 1.0
C      1  0.5077100000000  0.4739590000000  0.5069120000000 1.0
C      1  0.5077080000000  0.4985250000000  0.5268990000000 1.0
C      1  0.4683170000000  0.5614170000000  0.4840490000000 1.0
C      1  0.4683170000000  0.5038110000000  0.4366630000000 1.0
C      1  0.4683130000000  0.4409420000000  0.4768060000000 1.0
C      1  0.4683120000000  0.4596910000000  0.5490030000000 1.0
C      1  0.4683170000000  0.5341500000000  0.5534790000000 1.0
C      1  0.5499730000000  0.4565890000000  0.4834990000000 1.0
C      1  0.5499670000000  0.4708840000000  0.5361840000000 1.0
C      1  0.5499680000000  0.5254090000000  0.5388640000000 1.0
C      1  0.5499680000000  0.5448160000000  0.4878380000000 1.0
C      1  0.5499740000000  0.5022790000000  0.4536210000000 1.0
C      1  0.5365990000000  0.4476000000000  0.4439940000000 1.0
C      1  0.5365920000000  0.4305340000000  0.5325300000000 1.0
C      1  0.5365960000000  0.5094670000000  0.5761130000000 1.0
C      1  0.5365990000000  0.5753140000000  0.5145120000000 1.0
C      1  0.5365970000000  0.5370820000000  0.4328480000000 1.0
C      1  0.4359630000000  0.5255450000000  0.5035530000000 1.0
C      1  0.4359630000000  0.5112760000000  0.4768070000000 1.0
C      1  0.4359630000000  0.4814290000000  0.4821130000000 1.0
C      1  0.4359620000000  0.4772520000000  0.5121380000000 1.0
C      1  0.4359630000000  0.5045170000000  0.5253890000000 1.0
C      1  0.4516050000000  0.4550640000000  0.5237140000000 1.0
C      1  0.4516080000000  0.5086690000000  0.5500680000000 1.0
C      1  0.4516100000000  0.5502990000000  0.5072290000000 1.0
C      1  0.4516090000000  0.5224210000000  0.4544000000000 1.0
C      1  0.4516080000000  0.4635630000000  0.4645880000000 1.0
C      1  0.5288760000000  0.5032570000000  0.4276020000000 1.0
C      1  0.5288700000000  0.4321490000000  0.4745320000000 1.0
C      1  0.5288660000000  0.4548070000000  0.5566600000000 1.0
C      1  0.5288720000000  0.5399180000000  0.5604860000000 1.0
C      1  0.5288700000000  0.5698640000000  0.4807230000000 1.0
C      1  0.4968150000000  0.5163290000000  0.4319400000000 1.0
C      1  0.4968130000000  0.4403190000000  0.4634410000000 1.0
C      1  0.4968090000000  0.4467870000000  0.5454620000000 1.0
C      1  0.4968140000000  0.5267930000000  0.5646560000000 1.0
C      1  0.4968150000000  0.5697730000000  0.4944970000000 1.0
END
