TITL C-3985250-725-1225 2.43887457764247e-07 125000 -319.580116556001 0 0 60 (Td) n - 1
REM
REM in /home/nfs/bkarasulu/CARBON/AIRSS/Generating-Clusters/TERSOFF/Higher-Symm/Only-C60
REM
REM
REM
REM
REM
REM ./C.cell (28575a23ae977d3b5fae324c64b13b57)
REM
REM compiler GCC version 9.2.1 20190827 (Red Hat 9.2.1-1)
REM options -cpp -mtune=generic -march=x86-64 -g -O0 -fpre-include=/usr/include/finclude/math-vector-fortran.h
REM seed 411444634 361569175 -811108425 -1032681006 -1723342857 1106954261 1572545133 265345530 646131445 -1379082138 -1532897463 -1214125812 -947632166 2022189823 -1528675945 -585828896 -1767764171 -59684788 1966862293 -1179359845 -803616768 686084690 165726963 -919047138 1761051012 -1643094898 689287873 1350672795 -1263120605 -177925455 -1950837988 -423581556 1485390092
REM
CELL 1.54180   50.00000   50.00000   50.00000   90.00000   90.00000   90.00000
LATT -1
SFAC C  
C      1  0.4553810000000  0.5675410000000  0.5092830000000 1.0
C      1  0.5675410000000  0.5092830000000  0.4553810000000 1.0
C      1  0.5092830000000  0.4553810000000  0.5675410000000 1.0
C      1  0.5446190000000  0.5675410000000  0.4907170000000 1.0
C      1  0.5446190000000  0.4324590000000  0.5092830000000 1.0
C      1  0.4553810000000  0.4324590000000  0.4907170000000 1.0
C      1  0.4324590000000  0.5092830000000  0.5446190000000 1.0
C      1  0.4324590000000  0.4907170000000  0.4553810000000 1.0
C      1  0.5675410000000  0.4907170000000  0.5446190000000 1.0
C      1  0.4907170000000  0.4553810000000  0.4324590000000 1.0
C      1  0.4907170000000  0.5446190000000  0.5675410000000 1.0
C      1  0.5092830000000  0.5446190000000  0.4324590000000 1.0
C      1  0.5092830000000  0.5675410000000  0.4553810000000 1.0
C      1  0.4553810000000  0.5092830000000  0.5675410000000 1.0
C      1  0.5675410000000  0.4553810000000  0.5092830000000 1.0
C      1  0.4907170000000  0.5675410000000  0.5446190000000 1.0
C      1  0.5092830000000  0.4324590000000  0.5446190000000 1.0
C      1  0.4907170000000  0.4324590000000  0.4553810000000 1.0
C      1  0.5446190000000  0.5092830000000  0.4324590000000 1.0
C      1  0.4553810000000  0.4907170000000  0.4324590000000 1.0
C      1  0.5446190000000  0.4907170000000  0.5675410000000 1.0
C      1  0.4324590000000  0.4553810000000  0.4907170000000 1.0
C      1  0.5675410000000  0.5446190000000  0.4907170000000 1.0
C      1  0.4324590000000  0.5446190000000  0.5092830000000 1.0
C      1  0.4770210000000  0.4996380000000  0.5452390000000 1.0
C      1  0.4996380000000  0.5452390000000  0.4770210000000 1.0
C      1  0.5452390000000  0.4770210000000  0.4996380000000 1.0
C      1  0.5229790000000  0.4996380000000  0.4547610000000 1.0
C      1  0.5229790000000  0.5003620000000  0.5452390000000 1.0
C      1  0.4770210000000  0.5003620000000  0.4547610000000 1.0
C      1  0.5003620000000  0.5452390000000  0.5229790000000 1.0
C      1  0.5003620000000  0.4547610000000  0.4770210000000 1.0
C      1  0.4996380000000  0.4547610000000  0.5229790000000 1.0
C      1  0.4547610000000  0.4770210000000  0.5003620000000 1.0
C      1  0.4547610000000  0.5229790000000  0.4996380000000 1.0
C      1  0.5452390000000  0.5229790000000  0.5003620000000 1.0
C      1  0.5452390000000  0.4996380000000  0.4770210000000 1.0
C      1  0.4770210000000  0.5452390000000  0.4996380000000 1.0
C      1  0.4996380000000  0.4770210000000  0.5452390000000 1.0
C      1  0.4547610000000  0.4996380000000  0.5229790000000 1.0
C      1  0.5452390000000  0.5003620000000  0.5229790000000 1.0
C      1  0.4547610000000  0.5003620000000  0.4770210000000 1.0
C      1  0.5229790000000  0.5452390000000  0.5003620000000 1.0
C      1  0.4770210000000  0.4547610000000  0.5003620000000 1.0
C      1  0.5229790000000  0.4547610000000  0.4996380000000 1.0
C      1  0.5003620000000  0.4770210000000  0.4547610000000 1.0
C      1  0.4996380000000  0.5229790000000  0.4547610000000 1.0
C      1  0.5003620000000  0.5229790000000  0.5452390000000 1.0
C      1  0.4660020000000  0.5795430000000  0.5339980000000 1.0
C      1  0.5339980000000  0.4204570000000  0.5339980000000 1.0
C      1  0.4660020000000  0.5339980000000  0.5795430000000 1.0
C      1  0.5339980000000  0.5339980000000  0.4204570000000 1.0
C      1  0.5795430000000  0.4660020000000  0.5339980000000 1.0
C      1  0.5339980000000  0.4660020000000  0.5795430000000 1.0
C      1  0.5795430000000  0.5339980000000  0.4660020000000 1.0
C      1  0.5339980000000  0.5795430000000  0.4660020000000 1.0
C      1  0.4660020000000  0.4204570000000  0.4660020000000 1.0
C      1  0.4204570000000  0.5339980000000  0.5339980000000 1.0
C      1  0.4204570000000  0.4660020000000  0.4660020000000 1.0
C      1  0.4660020000000  0.4660020000000  0.4204570000000 1.0
END
