TITL C-3985259-1859-865 -9.45520287514461e-06 125000 -330.11087809396 0 0 60 (C2) n - 1
REM
REM in /home/nfs/bkarasulu/CARBON/AIRSS/Generating-Clusters/TERSOFF/Higher-Symm/Only-C60
REM
REM
REM
REM
REM
REM ./C.cell (28575a23ae977d3b5fae324c64b13b57)
REM
REM compiler GCC version 9.2.1 20190827 (Red Hat 9.2.1-1)
REM options -cpp -mtune=generic -march=x86-64 -g -O0 -fpre-include=/usr/include/finclude/math-vector-fortran.h
REM seed -405327 1880796091 1260991478 -1443334412 1379701261 222059363 -1205439899 308698653 -168903173 -111392361 -993951680 2056910785 2032025453 151448969 43297659 -477050937 1098469689 1834329407 1217014667 110336178 1208601684 611616652 196165272 56150104 1797221496 961153058 -6932349 52334152 249124099 488439297 510129738 1156378110 -1245564723
REM
CELL 1.54180   50.00000   50.00000   50.00000   90.00000   90.00000   90.00000
LATT -1
SFAC C  
C      1  0.4709590000000  0.4845870000000  0.5156300000000 1.0
C      1  0.4709590000000  0.5154130000000  0.4843700000000 1.0
C      1  0.5183470000000  0.5051470000000  0.5292840000000 1.0
C      1  0.5183470000000  0.4948530000000  0.4707160000000 1.0
C      1  0.4783210000000  0.4865080000000  0.4439360000000 1.0
C      1  0.4783210000000  0.5134920000000  0.5560640000000 1.0
C      1  0.4760640000000  0.5139920000000  0.4308520000000 1.0
C      1  0.4760640000000  0.4860080000000  0.5691480000000 1.0
C      1  0.4932700000000  0.5474520000000  0.4668620000000 1.0
C      1  0.4932700000000  0.4525480000000  0.5331380000000 1.0
C      1  0.5741900000000  0.5044270000000  0.4624370000000 1.0
C      1  0.5741900000000  0.4955730000000  0.5375630000000 1.0
C      1  0.5477660000000  0.5481290000000  0.5291300000000 1.0
C      1  0.5477660000000  0.4518710000000  0.4708700000000 1.0
C      1  0.5717600000000  0.5389630000000  0.5103480000000 1.0
C      1  0.5717600000000  0.4610370000000  0.4896520000000 1.0
C      1  0.5214010000000  0.5674130000000  0.5311090000000 1.0
C      1  0.5214010000000  0.4325870000000  0.4688910000000 1.0
C      1  0.5296260000000  0.4715550000000  0.4846490000000 1.0
C      1  0.5296260000000  0.5284450000000  0.5153510000000 1.0
C      1  0.4440030000000  0.5175240000000  0.5044960000000 1.0
C      1  0.4440030000000  0.4824760000000  0.4955040000000 1.0
C      1  0.4891750000000  0.5074470000000  0.5274680000000 1.0
C      1  0.4891750000000  0.4925530000000  0.4725320000000 1.0
C      1  0.5571060000000  0.4722670000000  0.5355580000000 1.0
C      1  0.5571060000000  0.5277330000000  0.4644420000000 1.0
C      1  0.5293190000000  0.5215180000000  0.4718020000000 1.0
C      1  0.5293190000000  0.4784820000000  0.5281980000000 1.0
C      1  0.4950480000000  0.5360390000000  0.5661970000000 1.0
C      1  0.4950480000000  0.4639610000000  0.4338030000000 1.0
C      1  0.4490360000000  0.5259590000000  0.4380950000000 1.0
C      1  0.4490360000000  0.4740410000000  0.5619050000000 1.0
C      1  0.4774580000000  0.4283440000000  0.4980460000000 1.0
C      1  0.4774580000000  0.5716560000000  0.5019540000000 1.0
C      1  0.4959520000000  0.4663090000000  0.5592090000000 1.0
C      1  0.4959520000000  0.5336910000000  0.4407910000000 1.0
C      1  0.4506150000000  0.4748480000000  0.4632850000000 1.0
C      1  0.4506160000000  0.5251520000000  0.5367150000000 1.0
C      1  0.4656010000000  0.4395070000000  0.5254590000000 1.0
C      1  0.4656010000000  0.5604930000000  0.4745410000000 1.0
C      1  0.5070760000000  0.5785530000000  0.5060810000000 1.0
C      1  0.5070760000000  0.4214470000000  0.4939190000000 1.0
C      1  0.5690740000000  0.5472990000000  0.4824810000000 1.0
C      1  0.5690740000000  0.4527010000000  0.5175190000000 1.0
C      1  0.4958410000000  0.4421050000000  0.4535390000000 1.0
C      1  0.4958410000000  0.5578950000000  0.5464610000000 1.0
C      1  0.4409570000000  0.5445510000000  0.4881450000000 1.0
C      1  0.4409570000000  0.4554490000000  0.5118550000000 1.0
C      1  0.4722890000000  0.4477880000000  0.4736930000000 1.0
C      1  0.4722890000000  0.5522120000000  0.5263070000000 1.0
C      1  0.5807350000000  0.4905530000000  0.4870690000000 1.0
C      1  0.5807350000000  0.5094470000000  0.5129310000000 1.0
C      1  0.5133840000000  0.5397870000000  0.4905530000000 1.0
C      1  0.5133840000000  0.4602130000000  0.5094470000000 1.0
C      1  0.4479900000000  0.4914100000000  0.5371100000000 1.0
C      1  0.4479900000000  0.5085900000000  0.4628900000000 1.0
C      1  0.4865210000000  0.5303790000000  0.5069880000000 1.0
C      1  0.4865210000000  0.4696210000000  0.4930120000000 1.0
C      1  0.4511140000000  0.4456950000000  0.5529650000000 1.0
C      1  0.4511140000000  0.5543050000000  0.4470350000000 1.0
END
