TITL C-3985251-913-122 -1.23689061418978e-07 125000 -307.605323564186 0 0 60 (D4) n - 1
REM
REM in /home/nfs/bkarasulu/CARBON/AIRSS/Generating-Clusters/TERSOFF/Higher-Symm/Only-C60
REM
REM
REM
REM
REM
REM ./C.cell (28575a23ae977d3b5fae324c64b13b57)
REM
REM compiler GCC version 9.2.1 20190827 (Red Hat 9.2.1-1)
REM options -cpp -mtune=generic -march=x86-64 -g -O0 -fpre-include=/usr/include/finclude/math-vector-fortran.h
REM seed 1315002248 -523376286 -1324130458 -206385794 -1914370051 -659452988 -433940769 931752170 1107628453 1571222994 -855958884 943694191 -1824714213 684922965 -506984812 682490716 -555508438 1336696426 919530840 396647877 -1641773611 3979719 2009245315 1832457186 -1549044752 1268260170 1763548278 -129836301 -1205008153 441718388 1550603870 -281987612 -152594356
REM
CELL 1.54180   50.00000   50.00000   50.00000   90.00000   90.00000   90.00000
LATT -1
SFAC C  
C      1  0.5176100000000  0.5029590000000  0.5230970000000 1.0
C      1  0.5176100000000  0.5230970000000  0.4970410000000 1.0
C      1  0.5176100000000  0.4970410000000  0.4769030000000 1.0
C      1  0.5176100000000  0.4769030000000  0.5029590000000 1.0
C      1  0.4818420000000  0.5029590000000  0.4769030000000 1.0
C      1  0.4818420000000  0.5230970000000  0.5029590000000 1.0
C      1  0.4818420000000  0.4970410000000  0.5230970000000 1.0
C      1  0.4818420000000  0.4769030000000  0.4970410000000 1.0
C      1  0.5091930000000  0.5304250000000  0.4529100000000 1.0
C      1  0.5091930000000  0.4529100000000  0.4695750000000 1.0
C      1  0.5091930000000  0.4695750000000  0.5470900000000 1.0
C      1  0.5091930000000  0.5470900000000  0.5304250000000 1.0
C      1  0.4902600000000  0.5304250000000  0.5470900000000 1.0
C      1  0.4902600000000  0.4529100000000  0.5304250000000 1.0
C      1  0.4902600000000  0.4695750000000  0.4529100000000 1.0
C      1  0.4902600000000  0.5470900000000  0.4695750000000 1.0
C      1  0.4457640000000  0.5257250000000  0.5035700000000 1.0
C      1  0.4457640000000  0.5035700000000  0.4742750000000 1.0
C      1  0.4457640000000  0.4742750000000  0.4964300000000 1.0
C      1  0.4457640000000  0.4964300000000  0.5257250000000 1.0
C      1  0.5536890000000  0.5257250000000  0.4964300000000 1.0
C      1  0.5536890000000  0.5035700000000  0.5257250000000 1.0
C      1  0.5536890000000  0.4742750000000  0.5035700000000 1.0
C      1  0.5536890000000  0.4964300000000  0.4742750000000 1.0
C      1  0.5375370000000  0.5480450000000  0.5389880000000 1.0
C      1  0.5375370000000  0.5389880000000  0.4519550000000 1.0
C      1  0.5375370000000  0.4519550000000  0.4610120000000 1.0
C      1  0.5375370000000  0.4610120000000  0.5480450000000 1.0
C      1  0.4619150000000  0.5480450000000  0.4610120000000 1.0
C      1  0.4619150000000  0.5389880000000  0.5480450000000 1.0
C      1  0.4619150000000  0.4519550000000  0.5389880000000 1.0
C      1  0.4619150000000  0.4610120000000  0.4519550000000 1.0
C      1  0.4545840000000  0.5525150000000  0.5227800000000 1.0
C      1  0.4545840000000  0.5227800000000  0.4474850000000 1.0
C      1  0.4545840000000  0.4474850000000  0.4772200000000 1.0
C      1  0.4545840000000  0.4772200000000  0.5525150000000 1.0
C      1  0.5448690000000  0.5525150000000  0.4772200000000 1.0
C      1  0.5448690000000  0.5227800000000  0.5525150000000 1.0
C      1  0.5448690000000  0.4474850000000  0.5227800000000 1.0
C      1  0.5448690000000  0.4772200000000  0.4474850000000 1.0
C      1  0.5567360000000  0.5495990000000  0.5173650000000 1.0
C      1  0.5567360000000  0.5173650000000  0.4504010000000 1.0
C      1  0.5567360000000  0.4504010000000  0.4826350000000 1.0
C      1  0.5567360000000  0.4826350000000  0.5495990000000 1.0
C      1  0.4427160000000  0.5495990000000  0.4826350000000 1.0
C      1  0.4427160000000  0.5173650000000  0.5495990000000 1.0
C      1  0.4427160000000  0.4504010000000  0.5173650000000 1.0
C      1  0.4427160000000  0.4826350000000  0.4504010000000 1.0
C      1  0.5260340000000  0.4287860000000  0.5107780000000 1.0
C      1  0.5260340000000  0.5107780000000  0.5712140000000 1.0
C      1  0.5260340000000  0.5712140000000  0.4892220000000 1.0
C      1  0.5260340000000  0.4892220000000  0.4287860000000 1.0
C      1  0.4734180000000  0.4287860000000  0.4892220000000 1.0
C      1  0.4734180000000  0.5107780000000  0.4287860000000 1.0
C      1  0.4734180000000  0.5712140000000  0.5107780000000 1.0
C      1  0.4734180000000  0.4892220000000  0.5712140000000 1.0
C      1  0.4997260000000  0.5000000000000  0.5608170000000 1.0
C      1  0.4997260000000  0.4391830000000  0.5000000000000 1.0
C      1  0.4997260000000  0.5608170000000  0.5000000000000 1.0
C      1  0.4997260000000  0.5000000000000  0.4391830000000 1.0
END
