TITL C-3985244-725-493 7.79282835492363e-08 125000 -356.502305512835 0 0 60 (D2d) n - 1
REM
REM in /home/nfs/bkarasulu/CARBON/AIRSS/Generating-Clusters/TERSOFF/Higher-Symm/Only-C60
REM
REM
REM
REM
REM
REM ./C.cell (28575a23ae977d3b5fae324c64b13b57)
REM
REM compiler GCC version 9.2.1 20190827 (Red Hat 9.2.1-1)
REM options -cpp -mtune=generic -march=x86-64 -g -O0 -fpre-include=/usr/include/finclude/math-vector-fortran.h
REM seed 59826734 -379946876 983485867 1869641629 -1911518250 724378295 -676424053 1540940194 1813767372 -513088566 890766981 190650965 -395536729 1468345783 1829487014 -1684115816 -658513386 971092115 -1232608794 2019907466 221059002 -985182301 570751292 1803709001 644740742 -461584693 -1385684014 -951608475 610442035 -885601719 -1488568733 -1267851815 -1817471174
REM
CELL 1.54180   50.00000   50.00000   50.00000   90.00000   90.00000   90.00000
LATT -1
SFAC C  
C      1  0.4218810000000  0.5064800000000  0.4727340000000 1.0
C      1  0.5781190000000  0.4935200000000  0.4727340000000 1.0
C      1  0.5781190000000  0.5064800000000  0.5272660000000 1.0
C      1  0.4218810000000  0.4935200000000  0.5272660000000 1.0
C      1  0.5064800000000  0.4218810000000  0.4727340000000 1.0
C      1  0.4935200000000  0.5781190000000  0.4727340000000 1.0
C      1  0.5064800000000  0.5781190000000  0.5272660000000 1.0
C      1  0.4935200000000  0.4218810000000  0.5272660000000 1.0
C      1  0.5618230000000  0.4604740000000  0.5110120000000 1.0
C      1  0.4381770000000  0.5395260000000  0.5110120000000 1.0
C      1  0.4381770000000  0.4604740000000  0.4889880000000 1.0
C      1  0.5618230000000  0.5395260000000  0.4889880000000 1.0
C      1  0.4604740000000  0.5618230000000  0.5110120000000 1.0
C      1  0.5395260000000  0.4381770000000  0.5110120000000 1.0
C      1  0.4604740000000  0.4381770000000  0.4889880000000 1.0
C      1  0.5395260000000  0.5618230000000  0.4889880000000 1.0
C      1  0.4310950000000  0.5332670000000  0.4819950000000 1.0
C      1  0.5689050000000  0.4667330000000  0.4819950000000 1.0
C      1  0.5689050000000  0.5332670000000  0.5180050000000 1.0
C      1  0.4310950000000  0.4667330000000  0.5180050000000 1.0
C      1  0.5332670000000  0.4310950000000  0.4819950000000 1.0
C      1  0.4667330000000  0.5689050000000  0.4819950000000 1.0
C      1  0.5332670000000  0.5689050000000  0.5180050000000 1.0
C      1  0.4667330000000  0.4310950000000  0.5180050000000 1.0
C      1  0.5172280000000  0.5604950000000  0.4694190000000 1.0
C      1  0.4827720000000  0.4395050000000  0.4694190000000 1.0
C      1  0.4827720000000  0.5604950000000  0.5305810000000 1.0
C      1  0.5172280000000  0.4395050000000  0.5305810000000 1.0
C      1  0.5604950000000  0.5172280000000  0.4694190000000 1.0
C      1  0.4395050000000  0.4827720000000  0.4694190000000 1.0
C      1  0.5604950000000  0.4827720000000  0.5305810000000 1.0
C      1  0.4395050000000  0.5172280000000  0.5305810000000 1.0
C      1  0.4673330000000  0.5097820000000  0.5371180000000 1.0
C      1  0.5326670000000  0.4902180000000  0.5371180000000 1.0
C      1  0.5326670000000  0.5097820000000  0.4628820000000 1.0
C      1  0.4673330000000  0.4902180000000  0.4628820000000 1.0
C      1  0.5097820000000  0.4673330000000  0.5371180000000 1.0
C      1  0.4902180000000  0.5326670000000  0.5371180000000 1.0
C      1  0.5097820000000  0.5326670000000  0.4628820000000 1.0
C      1  0.4902180000000  0.4673330000000  0.4628820000000 1.0
C      1  0.4728790000000  0.5068540000000  0.4869420000000 1.0
C      1  0.5271210000000  0.4931460000000  0.4869420000000 1.0
C      1  0.5271210000000  0.5068540000000  0.5130580000000 1.0
C      1  0.4728790000000  0.4931460000000  0.5130580000000 1.0
C      1  0.5068540000000  0.4728790000000  0.4869420000000 1.0
C      1  0.4931460000000  0.5271210000000  0.4869420000000 1.0
C      1  0.5068540000000  0.5271210000000  0.5130580000000 1.0
C      1  0.4931460000000  0.4728790000000  0.5130580000000 1.0
C      1  0.4993160000000  0.4767940000000  0.5657210000000 1.0
C      1  0.5006840000000  0.5232060000000  0.5657210000000 1.0
C      1  0.5006840000000  0.4767940000000  0.4342790000000 1.0
C      1  0.4993160000000  0.5232060000000  0.4342790000000 1.0
C      1  0.4767940000000  0.4993160000000  0.5657210000000 1.0
C      1  0.5232060000000  0.5006840000000  0.5657210000000 1.0
C      1  0.4767940000000  0.5006840000000  0.4342790000000 1.0
C      1  0.5232060000000  0.4993160000000  0.4342790000000 1.0
C      1  0.4481250000000  0.5518750000000  0.4655660000000 1.0
C      1  0.4481250000000  0.4481250000000  0.5344340000000 1.0
C      1  0.5518750000000  0.4481250000000  0.4655660000000 1.0
C      1  0.5518750000000  0.5518750000000  0.5344340000000 1.0
END
