TITL C-3985251-913-158 0.000377695434870176 125000 -324.986713679742 0 0 60 (C1) n - 1
REM
REM in /home/nfs/bkarasulu/CARBON/AIRSS/Generating-Clusters/TERSOFF/Higher-Symm/Only-C60
REM
REM
REM
REM
REM
REM ./C.cell (28575a23ae977d3b5fae324c64b13b57)
REM
REM compiler GCC version 9.2.1 20190827 (Red Hat 9.2.1-1)
REM options -cpp -mtune=generic -march=x86-64 -g -O0 -fpre-include=/usr/include/finclude/math-vector-fortran.h
REM seed -937902106 759849725 40196270 948285953 -2061690131 1003309374 -352372397 -769453184 -1337281520 522759388 -501879353 -1359194117 -1517386843 127985670 934027426 787659195 -335453156 -1459662958 -707514951 -2100309440 657024163 1608294560 1958994847 436182584 287261868 -1882053031 -1342634948 -77265549 -608343561 2116643509 1011440968 2051277843 -1116996970
REM
CELL 1.54180   50.00000   50.00000   50.00000   90.00000   90.00000   90.00000
LATT -1
SFAC C  
C      1  0.4606940000000  0.4931540000000  0.5496180000000 1.0
C      1  0.4596920000000  0.5481650000000  0.4812110000000 1.0
C      1  0.4607130000000  0.4570930000000  0.4683970000000 1.0
C      1  0.4870840000000  0.5207690000000  0.5197080000000 1.0
C      1  0.4834100000000  0.5061960000000  0.4738520000000 1.0
C      1  0.4848560000000  0.4743130000000  0.5073330000000 1.0
C      1  0.5350260000000  0.5442410000000  0.5104480000000 1.0
C      1  0.5355010000000  0.4870310000000  0.4566770000000 1.0
C      1  0.5354160000000  0.4683960000000  0.5336710000000 1.0
C      1  0.5804840000000  0.5237020000000  0.5261210000000 1.0
C      1  0.5804730000000  0.5111140000000  0.4665940000000 1.0
C      1  0.5807130000000  0.4657350000000  0.5073390000000 1.0
C      1  0.5381360000000  0.4526960000000  0.4841160000000 1.0
C      1  0.5382110000000  0.5097130000000  0.5495930000000 1.0
C      1  0.5378200000000  0.5381020000000  0.4667490000000 1.0
C      1  0.5161310000000  0.5538170000000  0.5328800000000 1.0
C      1  0.5163520000000  0.5011670000000  0.4373600000000 1.0
C      1  0.5158870000000  0.4447290000000  0.5300590000000 1.0
C      1  0.4765850000000  0.4633720000000  0.4429050000000 1.0
C      1  0.4750090000000  0.4678980000000  0.5580670000000 1.0
C      1  0.4752350000000  0.5679160000000  0.4985830000000 1.0
C      1  0.4648120000000  0.4507960000000  0.5142240000000 1.0
C      1  0.4654300000000  0.5387510000000  0.5378850000000 1.0
C      1  0.4654320000000  0.5118040000000  0.4480160000000 1.0
C      1  0.4979090000000  0.4271850000000  0.4825790000000 1.0
C      1  0.4985800000000  0.5187490000000  0.5704830000000 1.0
C      1  0.4974360000000  0.5511790000000  0.4474620000000 1.0
C      1  0.5214700000000  0.5367720000000  0.5569850000000 1.0
C      1  0.5210940000000  0.5306880000000  0.4397340000000 1.0
C      1  0.5215090000000  0.4325270000000  0.5034750000000 1.0
C      1  0.4711080000000  0.5194780000000  0.5605590000000 1.0
C      1  0.4704240000000  0.5413380000000  0.4536110000000 1.0
C      1  0.4702590000000  0.4359190000000  0.4876570000000 1.0
C      1  0.5666360000000  0.4732140000000  0.5320770000000 1.0
C      1  0.5661210000000  0.5412210000000  0.5073340000000 1.0
C      1  0.5664470000000  0.4859240000000  0.4607600000000 1.0
C      1  0.5252390000000  0.5199200000000  0.4930260000000 1.0
C      1  0.5250530000000  0.4844920000000  0.4858940000000 1.0
C      1  0.5266120000000  0.4956830000000  0.5201970000000 1.0
C      1  0.4173100000000  0.4833130000000  0.4985270000000 1.0
C      1  0.4203190000000  0.5084450000000  0.5243560000000 1.0
C      1  0.4221310000000  0.5103890000000  0.4762390000000 1.0
C      1  0.4496700000000  0.4802290000000  0.4851850000000 1.0
C      1  0.4517790000000  0.4984870000000  0.5165040000000 1.0
C      1  0.4430700000000  0.5253810000000  0.4934720000000 1.0
C      1  0.4861960000000  0.4913100000000  0.4347180000000 1.0
C      1  0.4853050000000  0.4468510000000  0.5390600000000 1.0
C      1  0.4853760000000  0.5620940000000  0.5266400000000 1.0
C      1  0.5097450000000  0.4511430000000  0.4655910000000 1.0
C      1  0.5102770000000  0.4919560000000  0.5586830000000 1.0
C      1  0.5094510000000  0.5549880000000  0.4762860000000 1.0
C      1  0.4366100000000  0.5049080000000  0.4508110000000 1.0
C      1  0.4349890000000  0.4588000000000  0.5181780000000 1.0
C      1  0.4351110000000  0.5362240000000  0.5332300000000 1.0
C      1  0.4948220000000  0.4786250000000  0.4798300000000 1.0
C      1  0.4964930000000  0.4935080000000  0.5278890000000 1.0
C      1  0.4949690000000  0.5279520000000  0.4913890000000 1.0
C      1  0.5672910000000  0.5026800000000  0.5418690000000 1.0
C      1  0.5668930000000  0.5350880000000  0.4768860000000 1.0
C      1  0.5671920000000  0.4626690000000  0.4814170000000 1.0
END
