TITL C-3985255-5397-3 0.0001096611109989 125000 -328.221290410537 0 0 60 (C4) n - 1
REM
REM in /home/nfs/bkarasulu/CARBON/AIRSS/Generating-Clusters/TERSOFF/Higher-Symm/Only-C60
REM
REM
REM
REM
REM
REM ./C.cell (28575a23ae977d3b5fae324c64b13b57)
REM
REM compiler GCC version 9.2.1 20190827 (Red Hat 9.2.1-1)
REM options -cpp -mtune=generic -march=x86-64 -g -O0 -fpre-include=/usr/include/finclude/math-vector-fortran.h
REM seed -842903526 1661159364 -1679615591 2123076804 675373967 700031270 2033636823 -908591724 1606268275 -816577212 -671255728 209630078 -974628108 1192381380 771187375 1481775508 2106288743 1542739012 -1626387734 -859433206 1562262060 360422586 2118712067 1540689179 -819760792 1027394132 -1836860406 1099800032 980260277 -1122949432 1882062436 1880212504 -1147374307
REM
CELL 1.54180   50.00000   50.00000   50.00000   90.00000   90.00000   90.00000
LATT -1
SFAC C  
C      1  0.5253230000000  0.5576250000000  0.4632340000000 1.0
C      1  0.5253220000000  0.4632350000000  0.4423760000000 1.0
C      1  0.5253220000000  0.4423760000000  0.5367650000000 1.0
C      1  0.5253220000000  0.5367650000000  0.5576240000000 1.0
C      1  0.4604220000000  0.5084530000000  0.4425200000000 1.0
C      1  0.4604220000000  0.4425200000000  0.4915460000000 1.0
C      1  0.4604220000000  0.4915470000000  0.5574800000000 1.0
C      1  0.4604230000000  0.5574800000000  0.5084540000000 1.0
C      1  0.5534310000000  0.5486920000000  0.4748030000000 1.0
C      1  0.5534310000000  0.4748030000000  0.4513080000000 1.0
C      1  0.5534310000000  0.4513080000000  0.5251970000000 1.0
C      1  0.5534310000000  0.5251970000000  0.5486920000000 1.0
C      1  0.5484440000000  0.4535180000000  0.4961150000000 1.0
C      1  0.5484440000000  0.4961160000000  0.5464820000000 1.0
C      1  0.5484440000000  0.5464830000000  0.5038850000000 1.0
C      1  0.5484440000000  0.5038840000000  0.4535180000000 1.0
C      1  0.5103620000000  0.4881660000000  0.5824150000000 1.0
C      1  0.5103620000000  0.5824160000000  0.5118340000000 1.0
C      1  0.5103620000000  0.5118340000000  0.4175840000000 1.0
C      1  0.5103620000000  0.4175850000000  0.4881660000000 1.0
C      1  0.5661380000000  0.5253630000000  0.4617730000000 1.0
C      1  0.5661380000000  0.4617730000000  0.4746370000000 1.0
C      1  0.5661380000000  0.4746370000000  0.5382270000000 1.0
C      1  0.5661380000000  0.5382270000000  0.5253630000000 1.0
C      1  0.4218550000000  0.5218180000000  0.4956850000000 1.0
C      1  0.4218550000000  0.4956850000000  0.4781820000000 1.0
C      1  0.4218550000000  0.4781820000000  0.5043140000000 1.0
C      1  0.4218550000000  0.5043140000000  0.5218180000000 1.0
C      1  0.5081010000000  0.4451090000000  0.4653950000000 1.0
C      1  0.5081010000000  0.4653950000000  0.5548910000000 1.0
C      1  0.5081010000000  0.5548910000000  0.5346060000000 1.0
C      1  0.5081010000000  0.5346050000000  0.4451090000000 1.0
C      1  0.4476400000000  0.4647690000000  0.5085460000000 1.0
C      1  0.4476400000000  0.5085460000000  0.5352310000000 1.0
C      1  0.4476400000000  0.5352310000000  0.4914540000000 1.0
C      1  0.4476400000000  0.4914540000000  0.4647690000000 1.0
C      1  0.5208960000000  0.5093310000000  0.4580660000000 1.0
C      1  0.5208970000000  0.4580650000000  0.4906690000000 1.0
C      1  0.5208970000000  0.4906690000000  0.5419340000000 1.0
C      1  0.5208970000000  0.5419350000000  0.5093310000000 1.0
C      1  0.4767400000000  0.4790520000000  0.4371720000000 1.0
C      1  0.4767400000000  0.4371720000000  0.5209480000000 1.0
C      1  0.4767400000000  0.5209480000000  0.5628280000000 1.0
C      1  0.4767400000000  0.5628270000000  0.4790510000000 1.0
C      1  0.5046990000000  0.5739410000000  0.4823550000000 1.0
C      1  0.5046990000000  0.4823550000000  0.4260590000000 1.0
C      1  0.5046990000000  0.4260590000000  0.5176450000000 1.0
C      1  0.5046990000000  0.5176450000000  0.5739410000000 1.0
C      1  0.4777110000000  0.4557240000000  0.4646950000000 1.0
C      1  0.4777110000000  0.4646950000000  0.5442760000000 1.0
C      1  0.4777110000000  0.5442760000000  0.5353050000000 1.0
C      1  0.4777120000000  0.5353060000000  0.4557260000000 1.0
C      1  0.4745850000000  0.4866790000000  0.4808520000000 1.0
C      1  0.4745850000000  0.4808530000000  0.5133210000000 1.0
C      1  0.4745850000000  0.5133210000000  0.5191480000000 1.0
C      1  0.4745850000000  0.5191480000000  0.4866800000000 1.0
C      1  0.5036520000000  0.5114120000000  0.5321210000000 1.0
C      1  0.5036510000000  0.5321190000000  0.4885880000000 1.0
C      1  0.5036520000000  0.4885880000000  0.4678790000000 1.0
C      1  0.5036520000000  0.4678790000000  0.5114120000000 1.0
END
