TITL C-3985245-9316-930 7.85865469683154e-08 125000 -306.5263727524 0 0 60 (C5) n - 1
REM
REM in /home/nfs/bkarasulu/CARBON/AIRSS/Generating-Clusters/TERSOFF/Higher-Symm/Only-C60
REM
REM
REM
REM
REM
REM ./C.cell (28575a23ae977d3b5fae324c64b13b57)
REM
REM compiler GCC version 9.2.1 20190827 (Red Hat 9.2.1-1)
REM options -cpp -mtune=generic -march=x86-64 -g -O0 -fpre-include=/usr/include/finclude/math-vector-fortran.h
REM seed -1656482467 1148957419 369686015 1935469731 -394717988 659737485 1535688265 156749902 -1994611949 -1408528834 -386932195 -578764419 -1097880018 1834933651 820443273 379139033 767532141 -1643783196 -436025225 -1008684237 75829030 -1285348181 -1603453258 1691175751 1185875656 -593607588 -398835938 -1453116902 -1768085767 -2102934300 129776059 414055033 -1260632853
REM
CELL 1.54180   50.00000   50.00000   50.00000   90.00000   90.00000   90.00000
LATT -1
SFAC C  
C      1  0.5471930000000  0.4361660000000  0.4976270000000 1.0
C      1  0.5123270000000  0.4361660000000  0.4543840000000 1.0
C      1  0.4604260000000  0.4361650000000  0.4741810000000 1.0
C      1  0.4632160000000  0.4361660000000  0.5296590000000 1.0
C      1  0.5168410000000  0.4361660000000  0.5441500000000 1.0
C      1  0.5623860000000  0.4790600000000  0.5139400000000 1.0
C      1  0.5325360000000  0.4790600000000  0.4449750000000 1.0
C      1  0.4577220000000  0.4790590000000  0.4520530000000 1.0
C      1  0.4413350000000  0.4790590000000  0.5253920000000 1.0
C      1  0.5060210000000  0.4790600000000  0.5636400000000 1.0
C      1  0.5669700000000  0.5090020000000  0.4774110000000 1.0
C      1  0.4992110000000  0.5090010000000  0.4293280000000 1.0
C      1  0.4325430000000  0.5090010000000  0.4789110000000 1.0
C      1  0.4590980000000  0.5090010000000  0.5576390000000 1.0
C      1  0.5421790000000  0.5090020000000  0.5567110000000 1.0
C      1  0.5239240000000  0.4880460000000  0.5404930000000 1.0
C      1  0.5459040000000  0.4880460000000  0.4897590000000 1.0
C      1  0.5044460000000  0.4880450000000  0.4531780000000 1.0
C      1  0.4568440000000  0.4880450000000  0.4813030000000 1.0
C      1  0.4688820000000  0.4880450000000  0.5352660000000 1.0
C      1  0.5216930000000  0.5333750000000  0.4375970000000 1.0
C      1  0.4473540000000  0.5333750000000  0.4600850000000 1.0
C      1  0.4457700000000  0.5333750000000  0.5377340000000 1.0
C      1  0.5191290000000  0.5333750000000  0.5632360000000 1.0
C      1  0.5660530000000  0.5333750000000  0.5013480000000 1.0
C      1  0.4948990000000  0.4596190000000  0.4694170000000 1.0
C      1  0.4693380000000  0.4596190000000  0.4954000000000 1.0
C      1  0.4861500000000  0.4596190000000  0.5277400000000 1.0
C      1  0.5221030000000  0.4596190000000  0.5217440000000 1.0
C      1  0.5275100000000  0.4596190000000  0.4856980000000 1.0
C      1  0.5235390000000  0.5642620000000  0.4899880000000 1.0
C      1  0.4977520000000  0.5642620000000  0.4745190000000 1.0
C      1  0.4750720000000  0.5642620000000  0.4942630000000 1.0
C      1  0.4868410000000  0.5642620000000  0.5219350000000 1.0
C      1  0.5167950000000  0.5642620000000  0.5192930000000 1.0
C      1  0.4409350000000  0.4510420000000  0.5134560000000 1.0
C      1  0.4945450000000  0.4510420000000  0.5603320000000 1.0
C      1  0.5556940000000  0.4510420000000  0.5238320000000 1.0
C      1  0.5398760000000  0.4510420000000  0.4543960000000 1.0
C      1  0.4689510000000  0.4510420000000  0.4479840000000 1.0
C      1  0.4754250000000  0.5121310000000  0.4911140000000 1.0
C      1  0.4839540000000  0.5121310000000  0.5206260000000 1.0
C      1  0.5146580000000  0.5121310000000  0.5216340000000 1.0
C      1  0.5251050000000  0.5121310000000  0.4927440000000 1.0
C      1  0.5008570000000  0.5121310000000  0.4738810000000 1.0
C      1  0.5737790000000  0.4992800000000  0.5308320000000 1.0
C      1  0.5521220000000  0.4992800000000  0.4393600000000 1.0
C      1  0.4584340000000  0.4992790000000  0.4316900000000 1.0
C      1  0.4221890000000  0.4992790000000  0.5184220000000 1.0
C      1  0.4934760000000  0.4992790000000  0.5796960000000 1.0
C      1  0.4695120000000  0.5279060000000  0.4376580000000 1.0
C      1  0.4312880000000  0.5279060000000  0.5097310000000 1.0
C      1  0.4880220000000  0.5279070000000  0.5683560000000 1.0
C      1  0.5613090000000  0.5279070000000  0.5325150000000 1.0
C      1  0.5498690000000  0.5279070000000  0.4517400000000 1.0
C      1  0.4972640000000  0.5401130000000  0.4572410000000 1.0
C      1  0.4584880000000  0.5401130000000  0.4893890000000 1.0
C      1  0.4770810000000  0.5401130000000  0.5362010000000 1.0
C      1  0.5273460000000  0.5401130000000  0.5329840000000 1.0
C      1  0.5398200000000  0.5401130000000  0.4841840000000 1.0
END
