TITL C-3985254-1270-1776 -0.000200291760224512 125000 -341.873621287531 0 0 60 (C1) n - 1
REM
REM in /home/nfs/bkarasulu/CARBON/AIRSS/Generating-Clusters/TERSOFF/Higher-Symm/Only-C60
REM
REM
REM
REM
REM
REM ./C.cell (28575a23ae977d3b5fae324c64b13b57)
REM
REM compiler GCC version 9.2.1 20190827 (Red Hat 9.2.1-1)
REM options -cpp -mtune=generic -march=x86-64 -g -O0 -fpre-include=/usr/include/finclude/math-vector-fortran.h
REM seed 865857809 1936304903 1108357050 1180543452 -598760651 437260291 986336600 514683397 -1527935185 1810726386 -2113439793 -687531317 1786238747 -669387295 640665112 1912921996 -924956280 -2131495880 35007855 -2028657228 1112169181 -1408443296 2096950524 1040390632 1585166977 -1755492490 126172815 1369324323 -775618183 1009602226 -1929052961 1909572498 -295216940
REM
CELL 1.54180   50.00000   50.00000   50.00000   90.00000   90.00000   90.00000
LATT -1
SFAC C  
C      1  0.4815890000000  0.5254730000000  0.5088670000000 1.0
C      1  0.5059070000000  0.5619740000000  0.4698580000000 1.0
C      1  0.4548920000000  0.4792430000000  0.4576820000000 1.0
C      1  0.4459400000000  0.5273800000000  0.5332280000000 1.0
C      1  0.4850780000000  0.4880050000000  0.5651340000000 1.0
C      1  0.5344790000000  0.5664750000000  0.5114780000000 1.0
C      1  0.5235040000000  0.4406840000000  0.5247180000000 1.0
C      1  0.4917290000000  0.5200510000000  0.5379740000000 1.0
C      1  0.4602230000000  0.5489050000000  0.5148020000000 1.0
C      1  0.5061940000000  0.4767890000000  0.4494840000000 1.0
C      1  0.5424030000000  0.5220170000000  0.4483300000000 1.0
C      1  0.5692890000000  0.4791610000000  0.5334540000000 1.0
C      1  0.4790860000000  0.4364050000000  0.4495460000000 1.0
C      1  0.4910020000000  0.4337370000000  0.5181820000000 1.0
C      1  0.5282270000000  0.4534480000000  0.4659280000000 1.0
C      1  0.5518150000000  0.5518680000000  0.4919460000000 1.0
C      1  0.5026090000000  0.4742750000000  0.5426900000000 1.0
C      1  0.5024770000000  0.5481360000000  0.5429260000000 1.0
C      1  0.5507310000000  0.4719610000000  0.4537220000000 1.0
C      1  0.4866090000000  0.5650230000000  0.5220190000000 1.0
C      1  0.4513010000000  0.4613130000000  0.4822710000000 1.0
C      1  0.4550930000000  0.5679350000000  0.4694780000000 1.0
C      1  0.4785080000000  0.4657650000000  0.4423370000000 1.0
C      1  0.4289370000000  0.5089090000000  0.5137270000000 1.0
C      1  0.5070890000000  0.5723060000000  0.4998450000000 1.0
C      1  0.5327260000000  0.5511270000000  0.5382610000000 1.0
C      1  0.5600530000000  0.4755310000000  0.5062030000000 1.0
C      1  0.4782810000000  0.5563810000000  0.4566480000000 1.0
C      1  0.4737900000000  0.5014220000000  0.4901410000000 1.0
C      1  0.4476320000000  0.4845010000000  0.5298450000000 1.0
C      1  0.5267540000000  0.5097210000000  0.5077300000000 1.0
C      1  0.4895540000000  0.4642150000000  0.5173540000000 1.0
C      1  0.4899240000000  0.5186530000000  0.4263280000000 1.0
C      1  0.4456500000000  0.4556060000000  0.5420920000000 1.0
C      1  0.5540060000000  0.5275290000000  0.5362510000000 1.0
C      1  0.4863450000000  0.4231580000000  0.4908530000000 1.0
C      1  0.5111660000000  0.4975220000000  0.5779320000000 1.0
C      1  0.5099670000000  0.4723060000000  0.4987070000000 1.0
C      1  0.5550130000000  0.5016320000000  0.4933620000000 1.0
C      1  0.5005330000000  0.4896480000000  0.4769460000000 1.0
C      1  0.5263950000000  0.4558990000000  0.5531360000000 1.0
C      1  0.4428950000000  0.5528340000000  0.4907090000000 1.0
C      1  0.5068410000000  0.4296770000000  0.4649150000000 1.0
C      1  0.4709410000000  0.5295600000000  0.4453590000000 1.0
C      1  0.4348470000000  0.5233330000000  0.4853800000000 1.0
C      1  0.5551900000000  0.4995480000000  0.4636340000000 1.0
C      1  0.4609620000000  0.4333670000000  0.4755300000000 1.0
C      1  0.5159550000000  0.5071470000000  0.4366720000000 1.0
C      1  0.5354160000000  0.4845200000000  0.5667970000000 1.0
C      1  0.4558190000000  0.5099170000000  0.4650290000000 1.0
C      1  0.4642530000000  0.4766820000000  0.5062110000000 1.0
C      1  0.5644050000000  0.5282200000000  0.5065380000000 1.0
C      1  0.5369730000000  0.4570310000000  0.4994230000000 1.0
C      1  0.5563740000000  0.4993350000000  0.5508190000000 1.0
C      1  0.5086760000000  0.5283000000000  0.4946720000000 1.0
C      1  0.4647620000000  0.5077070000000  0.5513940000000 1.0
C      1  0.5051470000000  0.5187900000000  0.4670800000000 1.0
C      1  0.5363190000000  0.5472970000000  0.4652940000000 1.0
C      1  0.4668700000000  0.4334940000000  0.5389330000000 1.0
C      1  0.5148550000000  0.5011530000000  0.5341990000000 1.0
END
