TITL C-3985257-5396-147 1.11638037984441e-05 125000 -328.724817871153 0 0 60 (C1) n - 1
REM
REM in /home/nfs/bkarasulu/CARBON/AIRSS/Generating-Clusters/TERSOFF/Higher-Symm/Only-C60
REM
REM
REM
REM
REM
REM ./C.cell (28575a23ae977d3b5fae324c64b13b57)
REM
REM compiler GCC version 9.2.1 20190827 (Red Hat 9.2.1-1)
REM options -cpp -mtune=generic -march=x86-64 -g -O0 -fpre-include=/usr/include/finclude/math-vector-fortran.h
REM seed -1681590273 910982771 -1402343826 -605464206 1159781822 -97745931 -1806367917 281999063 -668677311 1267046872 215657466 1943012945 1177425988 -395308359 -1540651261 -1692662526 -641676500 1409505239 500193023 1022988698 1725597213 852685561 -1828860012 29745859 -1744477895 -40358380 -1110828432 1096790706 -1084448633 -433191555 -774752016 -479057133 196938164
REM
CELL 1.54180   50.00000   50.00000   50.00000   90.00000   90.00000   90.00000
LATT -1
SFAC C  
C      1  0.5332680000000  0.5413930000000  0.5212890000000 1.0
C      1  0.5177820000000  0.5635540000000  0.5058720000000 1.0
C      1  0.5218080000000  0.4815820000000  0.4827380000000 1.0
C      1  0.4581180000000  0.5102930000000  0.4503880000000 1.0
C      1  0.5187850000000  0.4402110000000  0.4892220000000 1.0
C      1  0.4897070000000  0.5631510000000  0.5213040000000 1.0
C      1  0.4704420000000  0.5267260000000  0.5293470000000 1.0
C      1  0.5415970000000  0.5495110000000  0.4603330000000 1.0
C      1  0.4953280000000  0.4520100000000  0.4481690000000 1.0
C      1  0.5174690000000  0.5572710000000  0.4753930000000 1.0
C      1  0.4912410000000  0.4501390000000  0.4980440000000 1.0
C      1  0.4496550000000  0.5022900000000  0.5563260000000 1.0
C      1  0.5444490000000  0.4732790000000  0.4627190000000 1.0
C      1  0.4826720000000  0.4776610000000  0.5128620000000 1.0
C      1  0.4724610000000  0.5082210000000  0.5022900000000 1.0
C      1  0.5668140000000  0.4489230000000  0.4926660000000 1.0
C      1  0.4330120000000  0.4796790000000  0.4642000000000 1.0
C      1  0.5521930000000  0.5219370000000  0.4584490000000 1.0
C      1  0.5383240000000  0.4537930000000  0.5333190000000 1.0
C      1  0.4849430000000  0.5257260000000  0.4453060000000 1.0
C      1  0.4761800000000  0.4572210000000  0.4714520000000 1.0
C      1  0.4402090000000  0.5186540000000  0.5013410000000 1.0
C      1  0.5005750000000  0.4929340000000  0.4666420000000 1.0
C      1  0.4685260000000  0.4739490000000  0.5525040000000 1.0
C      1  0.4631990000000  0.5644020000000  0.5044800000000 1.0
C      1  0.4695160000000  0.5632410000000  0.4761000000000 1.0
C      1  0.4483020000000  0.4711840000000  0.5134440000000 1.0
C      1  0.4385950000000  0.5481060000000  0.5124760000000 1.0
C      1  0.5063230000000  0.5024330000000  0.4375470000000 1.0
C      1  0.4871310000000  0.4756130000000  0.4308490000000 1.0
C      1  0.5247600000000  0.5344560000000  0.5521820000000 1.0
C      1  0.5238630000000  0.5047040000000  0.5603620000000 1.0
C      1  0.4944100000000  0.5265820000000  0.4928990000000 1.0
C      1  0.5785690000000  0.5297560000000  0.5011620000000 1.0
C      1  0.4415650000000  0.5342670000000  0.5418340000000 1.0
C      1  0.4720690000000  0.4910080000000  0.4744880000000 1.0
C      1  0.4553860000000  0.4812730000000  0.4358410000000 1.0
C      1  0.5273890000000  0.4950860000000  0.5072390000000 1.0
C      1  0.5631750000000  0.5286000000000  0.5271120000000 1.0
C      1  0.4685590000000  0.4318120000000  0.5122930000000 1.0
C      1  0.5730800000000  0.4785710000000  0.4819270000000 1.0
C      1  0.4768190000000  0.5173640000000  0.5696560000000 1.0
C      1  0.5198960000000  0.5216230000000  0.5049010000000 1.0
C      1  0.5369210000000  0.4994410000000  0.4457270000000 1.0
C      1  0.4373290000000  0.4608060000000  0.4869770000000 1.0
C      1  0.4330930000000  0.5112320000000  0.4725800000000 1.0
C      1  0.5317240000000  0.4833260000000  0.5371880000000 1.0
C      1  0.4909150000000  0.5445410000000  0.4681350000000 1.0
C      1  0.4968470000000  0.4801710000000  0.5395880000000 1.0
C      1  0.4377990000000  0.4964680000000  0.5240260000000 1.0
C      1  0.4998930000000  0.5000100000000  0.5764790000000 1.0
C      1  0.4549250000000  0.4494160000000  0.5360100000000 1.0
C      1  0.5617290000000  0.4981870000000  0.5311570000000 1.0
C      1  0.5570150000000  0.5444330000000  0.5557070000000 1.0
C      1  0.5238190000000  0.4467550000000  0.4594610000000 1.0
C      1  0.4927460000000  0.5414220000000  0.5477480000000 1.0
C      1  0.4537130000000  0.4356500000000  0.4822380000000 1.0
C      1  0.5719620000000  0.5122110000000  0.4782150000000 1.0
C      1  0.5793050000000  0.4834650000000  0.5130220000000 1.0
C      1  0.5420980000000  0.4422730000000  0.5067770000000 1.0
END
