TITL C-3985250-725-883 -0.00506525780886575 125000 -326.789324164293 0 0 60 (C1) n - 1
REM
REM in /home/nfs/bkarasulu/CARBON/AIRSS/Generating-Clusters/TERSOFF/Higher-Symm/Only-C60
REM
REM
REM
REM
REM
REM ./C.cell (28575a23ae977d3b5fae324c64b13b57)
REM
REM compiler GCC version 9.2.1 20190827 (Red Hat 9.2.1-1)
REM options -cpp -mtune=generic -march=x86-64 -g -O0 -fpre-include=/usr/include/finclude/math-vector-fortran.h
REM seed -198045636 310712678 2126639575 859723580 -62276758 -669218620 -1582572723 1097988977 995967369 -1629257709 846862138 -326174557 383139189 1132885083 97312357 -1027811352 1691498011 -1188986835 150114952 -315002117 948716021 719353052 -638861092 1936647156 927553011 -2004224946 1501943757 -98035946 810080546 -734217959 406666496 2131217109 -2147226815
REM
CELL 1.54180   50.00000   50.00000   50.00000   90.00000   90.00000   90.00000
LATT -1
SFAC C  
C      1  0.5100790000000  0.5183160000000  0.5173910000000 1.0
C      1  0.4905720000000  0.5500770000000  0.4493540000000 1.0
C      1  0.5358810000000  0.4286360000000  0.4719940000000 1.0
C      1  0.4858020000000  0.5333550000000  0.5569030000000 1.0
C      1  0.4819170000000  0.4776190000000  0.4992910000000 1.0
C      1  0.5517920000000  0.5236690000000  0.4771150000000 1.0
C      1  0.4979680000000  0.5270970000000  0.4298070000000 1.0
C      1  0.4336190000000  0.5021880000000  0.4956550000000 1.0
C      1  0.5040810000000  0.4745940000000  0.5613820000000 1.0
C      1  0.5000140000000  0.5635260000000  0.4929780000000 1.0
C      1  0.5502290000000  0.4919310000000  0.5476970000000 1.0
C      1  0.5608230000000  0.5102150000000  0.5252550000000 1.0
C      1  0.5290330000000  0.5198780000000  0.4330360000000 1.0
C      1  0.5196510000000  0.4273420000000  0.4977510000000 1.0
C      1  0.5257540000000  0.4862430000000  0.4876920000000 1.0
C      1  0.4674890000000  0.4539230000000  0.4464070000000 1.0
C      1  0.5319220000000  0.5499850000000  0.5452000000000 1.0
C      1  0.4427070000000  0.4860780000000  0.5243160000000 1.0
C      1  0.5483700000000  0.4627310000000  0.5409050000000 1.0
C      1  0.4469450000000  0.4636450000000  0.4649860000000 1.0
C      1  0.4481810000000  0.5511160000000  0.4853530000000 1.0
C      1  0.4968200000000  0.4563420000000  0.4565480000000 1.0
C      1  0.5149840000000  0.5271380000000  0.5584450000000 1.0
C      1  0.4277640000000  0.5308410000000  0.4943960000000 1.0
C      1  0.5160550000000  0.5582360000000  0.4698980000000 1.0
C      1  0.4562610000000  0.4609520000000  0.4927720000000 1.0
C      1  0.4443890000000  0.5502640000000  0.5276330000000 1.0
C      1  0.5458690000000  0.4582380000000  0.5116330000000 1.0
C      1  0.5112660000000  0.4302350000000  0.5327350000000 1.0
C      1  0.4883630000000  0.4351880000000  0.4845510000000 1.0
C      1  0.5296760000000  0.4522940000000  0.4554960000000 1.0
C      1  0.4793220000000  0.5029050000000  0.4343700000000 1.0
C      1  0.5119360000000  0.5723530000000  0.5429070000000 1.0
C      1  0.5518400000000  0.5440770000000  0.5235270000000 1.0
C      1  0.4946340000000  0.4924360000000  0.5244250000000 1.0
C      1  0.4833440000000  0.5602420000000  0.5390190000000 1.0
C      1  0.4606020000000  0.5708080000000  0.5120630000000 1.0
C      1  0.4583170000000  0.5250330000000  0.5237480000000 1.0
C      1  0.5375110000000  0.5102010000000  0.5032500000000 1.0
C      1  0.4663680000000  0.5119830000000  0.5486750000000 1.0
C      1  0.5143300000000  0.4620860000000  0.5031720000000 1.0
C      1  0.5646020000000  0.4710440000000  0.4921080000000 1.0
C      1  0.5778510000000  0.4941150000000  0.5051140000000 1.0
C      1  0.5464820000000  0.4768230000000  0.4657150000000 1.0
C      1  0.5462010000000  0.5529630000000  0.4896070000000 1.0
C      1  0.4557930000000  0.5126220000000  0.4503700000000 1.0
C      1  0.4407510000000  0.4459440000000  0.5139950000000 1.0
C      1  0.4721520000000  0.4808660000000  0.5454700000000 1.0
C      1  0.4845700000000  0.4351950000000  0.5193770000000 1.0
C      1  0.4962990000000  0.5454510000000  0.5147570000000 1.0
C      1  0.5222480000000  0.4511290000000  0.5507790000000 1.0
C      1  0.4624800000000  0.5411790000000  0.4605660000000 1.0
C      1  0.4744610000000  0.5132190000000  0.4946450000000 1.0
C      1  0.5243100000000  0.4993230000000  0.5605540000000 1.0
C      1  0.5037390000000  0.5052290000000  0.4762600000000 1.0
C      1  0.5227370000000  0.5277230000000  0.4644820000000 1.0
C      1  0.4417570000000  0.4929470000000  0.4681260000000 1.0
C      1  0.5531230000000  0.5028170000000  0.4502150000000 1.0
C      1  0.4635200000000  0.4499510000000  0.5334590000000 1.0
C      1  0.4944420000000  0.4874490000000  0.4546700000000 1.0
END
