TITL C-3985259-1859-973 0.000128990165478435 125000 -322.502184939058 0 0 60 (C1) n - 1
REM
REM in /home/nfs/bkarasulu/CARBON/AIRSS/Generating-Clusters/TERSOFF/Higher-Symm/Only-C60
REM
REM
REM
REM
REM
REM ./C.cell (28575a23ae977d3b5fae324c64b13b57)
REM
REM compiler GCC version 9.2.1 20190827 (Red Hat 9.2.1-1)
REM options -cpp -mtune=generic -march=x86-64 -g -O0 -fpre-include=/usr/include/finclude/math-vector-fortran.h
REM seed -1104536212 1663744909 1418081958 -1444303282 408093998 -399144728 113944837 981624647 -818030178 721291391 -477310242 -677114486 1904695230 -612322046 -174398696 -1317937451 764099246 231517983 2125428600 -1828290407 1687226573 1317760382 1610163663 -1191276951 -474210446 -721339430 -1272916224 -491223874 -1736857961 -484292454 -1653782904 -721632593 1563932732
REM
CELL 1.54180   50.00000   50.00000   50.00000   90.00000   90.00000   90.00000
LATT -1
SFAC C  
C      1  0.4626120000000  0.5691960000000  0.5055100000000 1.0
C      1  0.5320600000000  0.4341910000000  0.4761410000000 1.0
C      1  0.5169450000000  0.5444280000000  0.4458350000000 1.0
C      1  0.4817090000000  0.5109870000000  0.5612790000000 1.0
C      1  0.5102240000000  0.4986580000000  0.4572050000000 1.0
C      1  0.4704330000000  0.4888170000000  0.4875480000000 1.0
C      1  0.4675540000000  0.4709780000000  0.5365150000000 1.0
C      1  0.4841630000000  0.5752400000000  0.4854450000000 1.0
C      1  0.4912320000000  0.5013550000000  0.4198580000000 1.0
C      1  0.5220450000000  0.5145880000000  0.4307720000000 1.0
C      1  0.5399250000000  0.4620450000000  0.4704740000000 1.0
C      1  0.5315440000000  0.4297290000000  0.5056260000000 1.0
C      1  0.4551620000000  0.4437700000000  0.5070190000000 1.0
C      1  0.5312150000000  0.5225630000000  0.5603650000000 1.0
C      1  0.4886220000000  0.4787050000000  0.5614800000000 1.0
C      1  0.5586110000000  0.5313470000000  0.4654400000000 1.0
C      1  0.5565400000000  0.4785300000000  0.5170060000000 1.0
C      1  0.5302630000000  0.4499910000000  0.5511260000000 1.0
C      1  0.4970390000000  0.5563190000000  0.5401420000000 1.0
C      1  0.4424140000000  0.5167470000000  0.5270660000000 1.0
C      1  0.5173750000000  0.5682080000000  0.5203310000000 1.0
C      1  0.5426090000000  0.5286630000000  0.5124690000000 1.0
C      1  0.4537380000000  0.5391590000000  0.5038490000000 1.0
C      1  0.5527520000000  0.5084990000000  0.4460960000000 1.0
C      1  0.4718480000000  0.5729720000000  0.5337490000000 1.0
C      1  0.5722040000000  0.4909250000000  0.4920190000000 1.0
C      1  0.4847840000000  0.4810070000000  0.4622680000000 1.0
C      1  0.4343160000000  0.5233390000000  0.5550050000000 1.0
C      1  0.5237280000000  0.4729480000000  0.4488030000000 1.0
C      1  0.5191000000000  0.4792130000000  0.5443000000000 1.0
C      1  0.4835840000000  0.4497510000000  0.4617440000000 1.0
C      1  0.5037230000000  0.5326470000000  0.5603700000000 1.0
C      1  0.5318430000000  0.4805030000000  0.4970970000000 1.0
C      1  0.4871650000000  0.5357720000000  0.5170780000000 1.0
C      1  0.5120500000000  0.5642880000000  0.4896520000000 1.0
C      1  0.4808030000000  0.4325450000000  0.5226330000000 1.0
C      1  0.5092240000000  0.4731190000000  0.5153130000000 1.0
C      1  0.5628400000000  0.4817440000000  0.4641940000000 1.0
C      1  0.5059760000000  0.4443920000000  0.5112990000000 1.0
C      1  0.5390070000000  0.5582940000000  0.4664740000000 1.0
C      1  0.4823450000000  0.4866200000000  0.5138630000000 1.0
C      1  0.5422290000000  0.5045130000000  0.5376350000000 1.0
C      1  0.4561490000000  0.4472330000000  0.4756980000000 1.0
C      1  0.4670300000000  0.5230470000000  0.4564360000000 1.0
C      1  0.5101060000000  0.5316450000000  0.4968900000000 1.0
C      1  0.4395080000000  0.4956380000000  0.4841200000000 1.0
C      1  0.5648080000000  0.5192680000000  0.4918530000000 1.0
C      1  0.4396960000000  0.4650730000000  0.5244540000000 1.0
C      1  0.4427700000000  0.4739420000000  0.4597460000000 1.0
C      1  0.5058830000000  0.4297630000000  0.4626750000000 1.0
C      1  0.4471980000000  0.5247140000000  0.4780280000000 1.0
C      1  0.4748810000000  0.5118340000000  0.5304040000000 1.0
C      1  0.4963510000000  0.4447980000000  0.5521530000000 1.0
C      1  0.5236430000000  0.5049910000000  0.4834430000000 1.0
C      1  0.5481030000000  0.4474070000000  0.5258860000000 1.0
C      1  0.5523620000000  0.5585960000000  0.4992640000000 1.0
C      1  0.4958280000000  0.5293980000000  0.4637180000000 1.0
C      1  0.4308530000000  0.4915440000000  0.5128290000000 1.0
C      1  0.4558510000000  0.5191050000000  0.5740580000000 1.0
C      1  0.4654270000000  0.4946980000000  0.4402530000000 1.0
END
