TITL C-3985259-1859-1018 3.44215330103478e-08 125000 -349.108979215964 0 0 60 (D2h) n - 1
REM
REM in /home/nfs/bkarasulu/CARBON/AIRSS/Generating-Clusters/TERSOFF/Higher-Symm/Only-C60
REM
REM
REM
REM
REM
REM ./C.cell (28575a23ae977d3b5fae324c64b13b57)
REM
REM compiler GCC version 9.2.1 20190827 (Red Hat 9.2.1-1)
REM options -cpp -mtune=generic -march=x86-64 -g -O0 -fpre-include=/usr/include/finclude/math-vector-fortran.h
REM seed -944844126 -299404629 -679789564 893915419 1701849078 1798762695 -1947630419 -1349405688 -1321324218 1607076331 204134474 -491756883 2005847936 -2144063101 -4626846 -1986692023 1172851274 1321989770 -216768938 610728866 1518612151 1298227709 -1935540937 -1157751028 1160313729 -2123046784 1226988699 -1558635506 -514784915 -1998915209 79874374 486090235 816813901
REM
CELL 1.54180   50.00000   50.00000   50.00000   90.00000   90.00000   90.00000
LATT -1
SFAC C  
C      1  0.4785300000000  0.5605350000000  0.4401060000000 1.0
C      1  0.4785300000000  0.4394650000000  0.5598940000000 1.0
C      1  0.5214700000000  0.5605350000000  0.4401060000000 1.0
C      1  0.5214700000000  0.4394650000000  0.5598940000000 1.0
C      1  0.4785300000000  0.5605350000000  0.5598940000000 1.0
C      1  0.4785300000000  0.4394650000000  0.4401060000000 1.0
C      1  0.5214700000000  0.5605350000000  0.5598940000000 1.0
C      1  0.5214700000000  0.4394650000000  0.4401060000000 1.0
C      1  0.4550090000000  0.4432760000000  0.4780300000000 1.0
C      1  0.4550090000000  0.5567240000000  0.5219700000000 1.0
C      1  0.5449910000000  0.4432760000000  0.4780300000000 1.0
C      1  0.5449910000000  0.5567240000000  0.5219700000000 1.0
C      1  0.4550090000000  0.4432760000000  0.5219700000000 1.0
C      1  0.4550090000000  0.5567240000000  0.4780300000000 1.0
C      1  0.5449910000000  0.4432760000000  0.5219700000000 1.0
C      1  0.5449910000000  0.5567240000000  0.4780300000000 1.0
C      1  0.4843870000000  0.5306580000000  0.5621330000000 1.0
C      1  0.4843870000000  0.4693420000000  0.4378670000000 1.0
C      1  0.5156130000000  0.5306580000000  0.5621330000000 1.0
C      1  0.5156130000000  0.4693420000000  0.4378670000000 1.0
C      1  0.4843870000000  0.5306580000000  0.4378670000000 1.0
C      1  0.4843870000000  0.4693420000000  0.5621330000000 1.0
C      1  0.5156130000000  0.5306580000000  0.4378670000000 1.0
C      1  0.5156130000000  0.4693420000000  0.5621330000000 1.0
C      1  0.5369890000000  0.5298440000000  0.5145200000000 1.0
C      1  0.5369890000000  0.4701560000000  0.4854800000000 1.0
C      1  0.4630110000000  0.5298440000000  0.5145200000000 1.0
C      1  0.4630110000000  0.4701560000000  0.4854800000000 1.0
C      1  0.5369890000000  0.5298440000000  0.4854800000000 1.0
C      1  0.5369890000000  0.4701560000000  0.5145200000000 1.0
C      1  0.4630110000000  0.5298440000000  0.4854800000000 1.0
C      1  0.4630110000000  0.4701560000000  0.5145200000000 1.0
C      1  0.5177360000000  0.4839900000000  0.4675210000000 1.0
C      1  0.5177360000000  0.5160100000000  0.5324790000000 1.0
C      1  0.4822640000000  0.4839900000000  0.4675210000000 1.0
C      1  0.4822640000000  0.5160100000000  0.5324790000000 1.0
C      1  0.5177360000000  0.4839900000000  0.5324790000000 1.0
C      1  0.5177360000000  0.5160100000000  0.4675210000000 1.0
C      1  0.4822640000000  0.4839900000000  0.5324790000000 1.0
C      1  0.4822640000000  0.5160100000000  0.4675210000000 1.0
C      1  0.5250750000000  0.5741240000000  0.4665280000000 1.0
C      1  0.5250750000000  0.4258760000000  0.5334720000000 1.0
C      1  0.4749250000000  0.5741240000000  0.4665280000000 1.0
C      1  0.4749250000000  0.4258760000000  0.5334720000000 1.0
C      1  0.5250750000000  0.5741240000000  0.5334720000000 1.0
C      1  0.5250750000000  0.4258760000000  0.4665280000000 1.0
C      1  0.4749250000000  0.5741240000000  0.5334720000000 1.0
C      1  0.4749250000000  0.4258760000000  0.4665280000000 1.0
C      1  0.4716100000000  0.5144950000000  0.4168120000000 1.0
C      1  0.4716100000000  0.4855050000000  0.5831880000000 1.0
C      1  0.5283900000000  0.5144950000000  0.4168120000000 1.0
C      1  0.5283900000000  0.4855050000000  0.5831880000000 1.0
C      1  0.4716100000000  0.5144950000000  0.5831880000000 1.0
C      1  0.4716100000000  0.4855050000000  0.4168120000000 1.0
C      1  0.5283900000000  0.5144950000000  0.5831880000000 1.0
C      1  0.5283900000000  0.4855050000000  0.4168120000000 1.0
C      1  0.5000000000000  0.5801130000000  0.4831560000000 1.0
C      1  0.5000000000000  0.5801130000000  0.5168440000000 1.0
C      1  0.5000000000000  0.4198870000000  0.5168440000000 1.0
C      1  0.5000000000000  0.4198870000000  0.4831560000000 1.0
END
