TITL C-3985250-725-8 5.17560833334825e-05 125000 -329.821602745676 0 0 60 (C1) n - 1
REM
REM in /home/nfs/bkarasulu/CARBON/AIRSS/Generating-Clusters/TERSOFF/Higher-Symm/Only-C60
REM
REM
REM
REM
REM
REM ./C.cell (28575a23ae977d3b5fae324c64b13b57)
REM
REM compiler GCC version 9.2.1 20190827 (Red Hat 9.2.1-1)
REM options -cpp -mtune=generic -march=x86-64 -g -O0 -fpre-include=/usr/include/finclude/math-vector-fortran.h
REM seed 1260881815 -498265601 -1725429510 -274709306 1160553224 -890483926 -1197405711 142698279 2040888838 -287992901 -994650909 -850252838 1893100213 -1600833967 -800674261 -1897143794 -793115493 47851411 413596472 1438649641 1755861987 -616365211 389971351 377270634 1112986415 1918682737 947937330 -1550112819 134220634 -292535872 218343569 -995592985 479724003
REM
CELL 1.54180   50.00000   50.00000   50.00000   90.00000   90.00000   90.00000
LATT -1
SFAC C  
C      1  0.5039100000000  0.4197750000000  0.5235020000000 1.0
C      1  0.4737850000000  0.5144600000000  0.4841860000000 1.0
C      1  0.5549510000000  0.4911920000000  0.4562960000000 1.0
C      1  0.4654820000000  0.5504170000000  0.5288250000000 1.0
C      1  0.4602640000000  0.4677090000000  0.4810290000000 1.0
C      1  0.5013380000000  0.4125490000000  0.4897670000000 1.0
C      1  0.4614770000000  0.5352180000000  0.5569410000000 1.0
C      1  0.4796820000000  0.5598810000000  0.4882630000000 1.0
C      1  0.5124720000000  0.5309680000000  0.5424950000000 1.0
C      1  0.5308630000000  0.5085250000000  0.5440160000000 1.0
C      1  0.4764460000000  0.4897310000000  0.4978570000000 1.0
C      1  0.5065210000000  0.4800020000000  0.5130190000000 1.0
C      1  0.4525450000000  0.5008760000000  0.5638460000000 1.0
C      1  0.4820360000000  0.5036180000000  0.5754140000000 1.0
C      1  0.4236270000000  0.5021840000000  0.4773940000000 1.0
C      1  0.5783930000000  0.4605160000000  0.5140510000000 1.0
C      1  0.5117100000000  0.5514510000000  0.4413860000000 1.0
C      1  0.5046790000000  0.4403490000000  0.5493830000000 1.0
C      1  0.5616150000000  0.4746720000000  0.5332390000000 1.0
C      1  0.4446830000000  0.5438120000000  0.5050100000000 1.0
C      1  0.5305710000000  0.4796520000000  0.4416220000000 1.0
C      1  0.4795870000000  0.4748260000000  0.4568400000000 1.0
C      1  0.5587030000000  0.5370880000000  0.4859420000000 1.0
C      1  0.5078630000000  0.4629320000000  0.4565940000000 1.0
C      1  0.4630090000000  0.5000880000000  0.5233830000000 1.0
C      1  0.4786550000000  0.5521320000000  0.4404210000000 1.0
C      1  0.5680760000000  0.5237300000000  0.5106120000000 1.0
C      1  0.5170110000000  0.4820480000000  0.5457170000000 1.0
C      1  0.4369270000000  0.5169420000000  0.5191870000000 1.0
C      1  0.5182820000000  0.5708380000000  0.4662830000000 1.0
C      1  0.5191090000000  0.5035710000000  0.4307840000000 1.0
C      1  0.4938350000000  0.5010260000000  0.4175160000000 1.0
C      1  0.5346940000000  0.4304780000000  0.5218120000000 1.0
C      1  0.4458260000000  0.5246120000000  0.4743440000000 1.0
C      1  0.5503490000000  0.4808290000000  0.4818340000000 1.0
C      1  0.4921230000000  0.5316080000000  0.5666940000000 1.0
C      1  0.5137380000000  0.4414460000000  0.4784990000000 1.0
C      1  0.4332970000000  0.4753440000000  0.4725980000000 1.0
C      1  0.4970440000000  0.4803000000000  0.5674850000000 1.0
C      1  0.5621930000000  0.4562160000000  0.4903620000000 1.0
C      1  0.4722940000000  0.4988600000000  0.4366980000000 1.0
C      1  0.4585670000000  0.4725240000000  0.5416790000000 1.0
C      1  0.4906230000000  0.5695270000000  0.5275960000000 1.0
C      1  0.5511600000000  0.5027140000000  0.5229940000000 1.0
C      1  0.5308260000000  0.4960090000000  0.4987880000000 1.0
C      1  0.5411300000000  0.4370320000000  0.4937780000000 1.0
C      1  0.4142730000000  0.5048020000000  0.5052160000000 1.0
C      1  0.4863400000000  0.5262730000000  0.5242800000000 1.0
C      1  0.5208490000000  0.5255350000000  0.4499670000000 1.0
C      1  0.4852930000000  0.5745920000000  0.4642190000000 1.0
C      1  0.5371410000000  0.4556470000000  0.5449660000000 1.0
C      1  0.4960700000000  0.4498520000000  0.5080690000000 1.0
C      1  0.4917290000000  0.5335630000000  0.4945850000000 1.0
C      1  0.5615200000000  0.5211650000000  0.4594840000000 1.0
C      1  0.5182740000000  0.5570140000000  0.5217330000000 1.0
C      1  0.4643480000000  0.4523640000000  0.5122470000000 1.0
C      1  0.4613740000000  0.5266290000000  0.4460040000000 1.0
C      1  0.5195120000000  0.5224660000000  0.4825980000000 1.0
C      1  0.4810880000000  0.4568500000000  0.5594600000000 1.0
C      1  0.5302160000000  0.5529730000000  0.4911920000000 1.0
END
