TITL C-3985245-9316-138 5.34218988075385e-08 125000 -321.220295783632 0 0 60 (C1) n - 1
REM
REM in /home/nfs/bkarasulu/CARBON/AIRSS/Generating-Clusters/TERSOFF/Higher-Symm/Only-C60
REM
REM
REM
REM
REM
REM ./C.cell (28575a23ae977d3b5fae324c64b13b57)
REM
REM compiler GCC version 9.2.1 20190827 (Red Hat 9.2.1-1)
REM options -cpp -mtune=generic -march=x86-64 -g -O0 -fpre-include=/usr/include/finclude/math-vector-fortran.h
REM seed 1502663244 1140597397 -2052768333 -98891056 -1773577942 -1216249336 -1798325932 247077209 182142146 -2080517654 1292013630 1579880529 -1945967023 -2083750033 1940324327 1503967732 243659644 1026199274 -570778017 1311927599 1083749367 1458957597 995703814 307456864 1891711751 1417171896 -85030657 1766849850 1589179349 492679669 643348082 1307808214 1014285952
REM
CELL 1.54180   50.00000   50.00000   50.00000   90.00000   90.00000   90.00000
LATT -1
SFAC C  
C      1  0.4634210000000  0.5014960000000  0.4599480000000 1.0
C      1  0.4616720000000  0.5357250000000  0.5178670000000 1.0
C      1  0.4655540000000  0.4664660000000  0.5220230000000 1.0
C      1  0.5057140000000  0.4858770000000  0.4671330000000 1.0
C      1  0.5057170000000  0.5394090000000  0.5045130000000 1.0
C      1  0.5068280000000  0.4834240000000  0.5440860000000 1.0
C      1  0.4383960000000  0.5083560000000  0.4809950000000 1.0
C      1  0.4370970000000  0.5127890000000  0.5168840000000 1.0
C      1  0.4406490000000  0.4797820000000  0.5033500000000 1.0
C      1  0.5342170000000  0.4514980000000  0.4769220000000 1.0
C      1  0.5369360000000  0.5492720000000  0.4696270000000 1.0
C      1  0.5446000000000  0.4999150000000  0.5516870000000 1.0
C      1  0.4869840000000  0.5320090000000  0.5620130000000 1.0
C      1  0.4909480000000  0.4342210000000  0.4950360000000 1.0
C      1  0.4876690000000  0.5398070000000  0.4396190000000 1.0
C      1  0.4452220000000  0.4509450000000  0.4842890000000 1.0
C      1  0.4443160000000  0.5393740000000  0.4638400000000 1.0
C      1  0.4438560000000  0.5103630000000  0.5520260000000 1.0
C      1  0.5364830000000  0.4789540000000  0.4351730000000 1.0
C      1  0.5326100000000  0.5697240000000  0.5153170000000 1.0
C      1  0.5310970000000  0.4491900000000  0.5450300000000 1.0
C      1  0.5339250000000  0.4302820000000  0.5218480000000 1.0
C      1  0.5256050000000  0.5052020000000  0.4467750000000 1.0
C      1  0.5256380000000  0.5451190000000  0.5343320000000 1.0
C      1  0.4882900000000  0.5060760000000  0.5795560000000 1.0
C      1  0.4877280000000  0.4287750000000  0.4646430000000 1.0
C      1  0.4871610000000  0.5680650000000  0.4537340000000 1.0
C      1  0.4709800000000  0.4743160000000  0.4465780000000 1.0
C      1  0.4696380000000  0.5612000000000  0.5022290000000 1.0
C      1  0.4698980000000  0.4651990000000  0.5520940000000 1.0
C      1  0.5013550000000  0.4728780000000  0.4353430000000 1.0
C      1  0.4988720000000  0.5726530000000  0.5082710000000 1.0
C      1  0.5008570000000  0.4542500000000  0.5574710000000 1.0
C      1  0.5191850000000  0.4969610000000  0.5721680000000 1.0
C      1  0.5174720000000  0.4328600000000  0.4588030000000 1.0
C      1  0.5160690000000  0.5738970000000  0.4612810000000 1.0
C      1  0.4630560000000  0.5616560000000  0.4738170000000 1.0
C      1  0.4637170000000  0.4908060000000  0.5660670000000 1.0
C      1  0.4637270000000  0.4491660000000  0.4600100000000 1.0
C      1  0.5591230000000  0.5254180000000  0.5074070000000 1.0
C      1  0.5600320000000  0.4719780000000  0.5104030000000 1.0
C      1  0.5589960000000  0.4989290000000  0.4872270000000 1.0
C      1  0.4960750000000  0.5126540000000  0.5388320000000 1.0
C      1  0.5069380000000  0.4638630000000  0.4899980000000 1.0
C      1  0.5057730000000  0.5341550000000  0.4699860000000 1.0
C      1  0.4850650000000  0.5149000000000  0.5094850000000 1.0
C      1  0.4922340000000  0.4797520000000  0.5131340000000 1.0
C      1  0.4883970000000  0.5083180000000  0.4771440000000 1.0
C      1  0.5106320000000  0.5230470000000  0.4290500000000 1.0
C      1  0.5099310000000  0.5497860000000  0.5582180000000 1.0
C      1  0.5095300000000  0.4181960000000  0.5114400000000 1.0
C      1  0.5443580000000  0.5186790000000  0.4640150000000 1.0
C      1  0.5470900000000  0.5243360000000  0.5351560000000 1.0
C      1  0.5501690000000  0.4443920000000  0.5008790000000 1.0
C      1  0.5493160000000  0.4738500000000  0.5387240000000 1.0
C      1  0.5484030000000  0.4736510000000  0.4636360000000 1.0
C      1  0.5494840000000  0.5525880000000  0.4959800000000 1.0
C      1  0.4641860000000  0.4402360000000  0.5066220000000 1.0
C      1  0.4610840000000  0.5261420000000  0.4409870000000 1.0
C      1  0.4600270000000  0.5371680000000  0.5492800000000 1.0
END
