TITL C-3985254-1270-1936 0.000916196501009251 125000 -351.98351637353 0 0 60 (C5) n - 1
REM
REM in /home/nfs/bkarasulu/CARBON/AIRSS/Generating-Clusters/TERSOFF/Higher-Symm/Only-C60
REM
REM
REM
REM
REM
REM ./C.cell (28575a23ae977d3b5fae324c64b13b57)
REM
REM compiler GCC version 9.2.1 20190827 (Red Hat 9.2.1-1)
REM options -cpp -mtune=generic -march=x86-64 -g -O0 -fpre-include=/usr/include/finclude/math-vector-fortran.h
REM seed -967978580 227220551 611802979 -2066261117 2104144286 -716606806 -726092984 -887052287 644802449 1618465276 -1561215228 2050635980 -728942473 1524541573 2097486376 773815674 149581422 1895353717 -1478184788 748906141 -110419445 1648212725 1558574953 -1072148368 1068031165 -764732255 644586616 300548755 -1151103964 -1767353960 1197652930 1121246538 -1873476873
REM
CELL 1.54180   50.00000   50.00000   50.00000   90.00000   90.00000   90.00000
LATT -1
SFAC C  
C      1  0.5764240000000  0.5094520000000  0.5219600000000 1.0
C      1  0.5326050000000  0.4302380000000  0.5219600000000 1.0
C      1  0.4437280000000  0.4474320000000  0.5219590000000 1.0
C      1  0.4326160000000  0.5372740000000  0.5219600000000 1.0
C      1  0.5146270000000  0.5756040000000  0.5219590000000 1.0
C      1  0.4533920000000  0.5478840000000  0.4819320000000 1.0
C      1  0.5311350000000  0.5591170000000  0.4819250000000 1.0
C      1  0.5658490000000  0.4886580000000  0.4819290000000 1.0
C      1  0.5095610000000  0.4338670000000  0.4819300000000 1.0
C      1  0.4400640000000  0.4704740000000  0.4819240000000 1.0
C      1  0.4799340000000  0.5165390000000  0.5097740000000 1.0
C      1  0.5095290000000  0.5241940000000  0.5097740000000 1.0
C      1  0.5259550000000  0.4984140000000  0.5097740000000 1.0
C      1  0.5065120000000  0.4748260000000  0.5097740000000 1.0
C      1  0.4780700000000  0.4860270000000  0.5097740000000 1.0
C      1  0.4824350000000  0.4792010000000  0.4559220000000 1.0
C      1  0.4747890000000  0.5102800000000  0.4559230000000 1.0
C      1  0.5019850000000  0.5271510000000  0.4559220000000 1.0
C      1  0.5264370000000  0.5065030000000  0.4559230000000 1.0
C      1  0.5143530000000  0.4768660000000  0.4559220000000 1.0
C      1  0.5265790000000  0.4565170000000  0.4729380000000 1.0
C      1  0.4668530000000  0.4612830000000  0.4729420000000 1.0
C      1  0.4529410000000  0.5195540000000  0.4729360000000 1.0
C      1  0.5040590000000  0.5508070000000  0.4729430000000 1.0
C      1  0.5495680000000  0.5118400000000  0.4729380000000 1.0
C      1  0.4882340000000  0.4448300000000  0.5440240000000 1.0
C      1  0.4438940000000  0.4941410000000  0.5440240000000 1.0
C      1  0.4770900000000  0.5515490000000  0.5440240000000 1.0
C      1  0.5419460000000  0.5377180000000  0.5440240000000 1.0
C      1  0.5488340000000  0.4717620000000  0.5440240000000 1.0
C      1  0.4733270000000  0.4978240000000  0.5572340000000 1.0
C      1  0.4896880000000  0.5246950000000  0.5572340000000 1.0
C      1  0.5203000000000  0.5174390000000  0.5572340000000 1.0
C      1  0.5228580000000  0.4860830000000  0.5572340000000 1.0
C      1  0.4938270000000  0.4739600000000  0.5572340000000 1.0
C      1  0.4564830000000  0.4742800000000  0.5267740000000 1.0
C      1  0.4620950000000  0.5334420000000  0.5267750000000 1.0
C      1  0.5200920000000  0.5463840000000  0.5267750000000 1.0
C      1  0.5503230000000  0.4952250000000  0.5267750000000 1.0
C      1  0.5110100000000  0.4506650000000  0.5267750000000 1.0
C      1  0.5305350000000  0.5829300000000  0.4986980000000 1.0
C      1  0.5883060000000  0.4965860000000  0.4986960000000 1.0
C      1  0.5240410000000  0.4149620000000  0.4986960000000 1.0
C      1  0.4265520000000  0.4508560000000  0.4986980000000 1.0
C      1  0.4305670000000  0.5546670000000  0.4986950000000 1.0
C      1  0.4814660000000  0.4407700000000  0.4896730000000 1.0
C      1  0.4379380000000  0.4993260000000  0.4896790000000 1.0
C      1  0.4801810000000  0.5588110000000  0.4896720000000 1.0
C      1  0.5498120000000  0.5370260000000  0.4896780000000 1.0
C      1  0.5506040000000  0.4640670000000  0.4896760000000 1.0
C      1  0.4298500000000  0.5078160000000  0.5185850000000 1.0
C      1  0.4857560000000  0.5691320000000  0.5185860000000 1.0
C      1  0.5613470000000  0.5349100000000  0.5185850000000 1.0
C      1  0.5521590000000  0.4524440000000  0.5185860000000 1.0
C      1  0.4708870000000  0.4357030000000  0.5185870000000 1.0
C      1  0.4745030000000  0.5103620000000  0.4224850000000 1.0
C      1  0.5019760000000  0.5274510000000  0.4224850000000 1.0
C      1  0.5267180000000  0.5066030000000  0.4224850000000 1.0
C      1  0.5145370000000  0.4766300000000  0.4224850000000 1.0
C      1  0.4822660000000  0.4789530000000  0.4224850000000 1.0
END
