TITL C-3985254-1270-1227 -1.54475614685272e-06 125000 -329.092042179284 0 0 60 (D5) n - 1
REM
REM in /home/nfs/bkarasulu/CARBON/AIRSS/Generating-Clusters/TERSOFF/Higher-Symm/Only-C60
REM
REM
REM
REM
REM
REM ./C.cell (28575a23ae977d3b5fae324c64b13b57)
REM
REM compiler GCC version 9.2.1 20190827 (Red Hat 9.2.1-1)
REM options -cpp -mtune=generic -march=x86-64 -g -O0 -fpre-include=/usr/include/finclude/math-vector-fortran.h
REM seed 174739727 1277144751 -699736333 -1830740529 1734332385 -1124058287 -360405931 494645506 574417226 613497620 -1417115176 -1550961607 1504198969 -2112788098 -1375155449 1810843807 -1985856551 -1377072581 -1721215745 -795080969 -210632342 2088343580 -881622386 1314114837 -1844939359 1505673328 1816665176 1120761780 1706466443 -243135688 -1488365174 -153063593 804156240
REM
CELL 1.54180   50.00000   50.00000   50.00000   90.00000   90.00000   90.00000
LATT -1
SFAC C  
C      1  0.4391420000000  0.5359570000000  0.5355710000000 1.0
C      1  0.4469970000000  0.4532320000000  0.5355720000000 1.0
C      1  0.5281000000000  0.4351390000000  0.5355730000000 1.0
C      1  0.5703690000000  0.5066820000000  0.5355740000000 1.0
C      1  0.5153900000000  0.5689900000000  0.5355730000000 1.0
C      1  0.5608580000000  0.5359570000000  0.4644290000000 1.0
C      1  0.5530030000000  0.4532320000000  0.4644280000000 1.0
C      1  0.4719000000000  0.4351390000000  0.4644270000000 1.0
C      1  0.4296310000000  0.5066820000000  0.4644260000000 1.0
C      1  0.4846100000000  0.5689900000000  0.4644270000000 1.0
C      1  0.4973780000000  0.4477860000000  0.5305620000000 1.0
C      1  0.5488480000000  0.4813720000000  0.5305630000000 1.0
C      1  0.5328110000000  0.5407010000000  0.5305630000000 1.0
C      1  0.4714300000000  0.5437830000000  0.5305620000000 1.0
C      1  0.4495310000000  0.4863580000000  0.5305620000000 1.0
C      1  0.5026220000000  0.4477860000000  0.4694380000000 1.0
C      1  0.4511520000000  0.4813720000000  0.4694370000000 1.0
C      1  0.4671890000000  0.5407010000000  0.4694370000000 1.0
C      1  0.5285700000000  0.5437830000000  0.4694380000000 1.0
C      1  0.5504690000000  0.4863580000000  0.4694380000000 1.0
C      1  0.4555790000000  0.4561630000000  0.4520650000000 1.0
C      1  0.5279650000000  0.4442060000000  0.4520660000000 1.0
C      1  0.5617050000000  0.5093540000000  0.4520670000000 1.0
C      1  0.5101720000000  0.5615760000000  0.4520660000000 1.0
C      1  0.4445820000000  0.5287010000000  0.4520650000000 1.0
C      1  0.5444210000000  0.4561630000000  0.5479350000000 1.0
C      1  0.4720350000000  0.4442060000000  0.5479340000000 1.0
C      1  0.4382950000000  0.5093540000000  0.5479330000000 1.0
C      1  0.4898280000000  0.5615760000000  0.5479340000000 1.0
C      1  0.5554180000000  0.5287010000000  0.5479350000000 1.0
C      1  0.4316930000000  0.4658230000000  0.4908100000000 1.0
C      1  0.5113960000000  0.4244750000000  0.4908110000000 1.0
C      1  0.5753500000000  0.4875000000000  0.4908120000000 1.0
C      1  0.5351730000000  0.5678000000000  0.4908110000000 1.0
C      1  0.4463880000000  0.5544030000000  0.4908100000000 1.0
C      1  0.5683070000000  0.4658230000000  0.5091900000000 1.0
C      1  0.4886040000000  0.4244750000000  0.5091890000000 1.0
C      1  0.4246500000000  0.4875000000000  0.5091880000000 1.0
C      1  0.4648270000000  0.5678000000000  0.5091890000000 1.0
C      1  0.5536120000000  0.5544030000000  0.5091900000000 1.0
C      1  0.5205300000000  0.4707910000000  0.5147990000000 1.0
C      1  0.5341230000000  0.5104990000000  0.5147990000000 1.0
C      1  0.5005590000000  0.5356980000000  0.5147990000000 1.0
C      1  0.4662220000000  0.5115630000000  0.5147980000000 1.0
C      1  0.4785650000000  0.4714490000000  0.5147980000000 1.0
C      1  0.4794700000000  0.4707910000000  0.4852010000000 1.0
C      1  0.4658770000000  0.5104990000000  0.4852010000000 1.0
C      1  0.4994410000000  0.5356980000000  0.4852010000000 1.0
C      1  0.5337780000000  0.5115630000000  0.4852020000000 1.0
C      1  0.5214350000000  0.4714490000000  0.4852020000000 1.0
C      1  0.4868040000000  0.5796890000000  0.4935750000000 1.0
C      1  0.4201340000000  0.5120750000000  0.4935740000000 1.0
C      1  0.4638360000000  0.4277740000000  0.4935750000000 1.0
C      1  0.5575160000000  0.4432870000000  0.4935760000000 1.0
C      1  0.5717110000000  0.5371760000000  0.4935760000000 1.0
C      1  0.5131960000000  0.5796890000000  0.5064250000000 1.0
C      1  0.5798660000000  0.5120750000000  0.5064260000000 1.0
C      1  0.5361640000000  0.4277740000000  0.5064250000000 1.0
C      1  0.4424840000000  0.4432870000000  0.5064240000000 1.0
C      1  0.4282890000000  0.5371760000000  0.5064240000000 1.0
END
