TITL C-3985255-5397-163 7.13103170498323e-07 125000 -314.877471314119 0 0 60 (C3h) n - 1
REM
REM in /home/nfs/bkarasulu/CARBON/AIRSS/Generating-Clusters/TERSOFF/Higher-Symm/Only-C60
REM
REM
REM
REM
REM
REM ./C.cell (28575a23ae977d3b5fae324c64b13b57)
REM
REM compiler GCC version 9.2.1 20190827 (Red Hat 9.2.1-1)
REM options -cpp -mtune=generic -march=x86-64 -g -O0 -fpre-include=/usr/include/finclude/math-vector-fortran.h
REM seed -1260092393 -1434459949 704692513 1782863675 1325733902 -22851203 446746146 609024677 -1621125831 -1651074757 -866389057 -116236466 -1020869738 256964465 1061960424 488041570 548290429 205856179 1590923236 -544398976 1125478453 -854717727 -472539779 -1335226211 -891649603 -1672201009 862241059 -1896533341 1429076304 -438443720 -1475778954 -94807532 23578994
REM
CELL 1.54180   50.00000   50.00000   50.00000   90.00000   90.00000   90.00000
LATT -1
SFAC C  
C      1  0.4704010000000  0.5022090000000  0.5619530000000 1.0
C      1  0.4704010000000  0.4452420000000  0.4709360000000 1.0
C      1  0.4704010000000  0.5525490000000  0.4671100000000 1.0
C      1  0.5295990000000  0.5022090000000  0.5619530000000 1.0
C      1  0.5295990000000  0.4452420000000  0.4709360000000 1.0
C      1  0.5295990000000  0.5525490000000  0.4671100000000 1.0
C      1  0.4844630000000  0.4186820000000  0.5149940000000 1.0
C      1  0.4844630000000  0.5276740000000  0.4220790000000 1.0
C      1  0.4844630000000  0.5536440000000  0.5629270000000 1.0
C      1  0.5155370000000  0.4186820000000  0.5149940000000 1.0
C      1  0.5155370000000  0.5276740000000  0.4220790000000 1.0
C      1  0.5155370000000  0.5536440000000  0.5629270000000 1.0
C      1  0.5607470000000  0.5262130000000  0.5118980000000 1.0
C      1  0.5607470000000  0.4765890000000  0.5167520000000 1.0
C      1  0.5607470000000  0.4971980000000  0.4713500000000 1.0
C      1  0.4392530000000  0.5262130000000  0.5118980000000 1.0
C      1  0.4392530000000  0.4765890000000  0.5167520000000 1.0
C      1  0.4392530000000  0.4971980000000  0.4713500000000 1.0
C      1  0.4845030000000  0.5609300000000  0.4930000000000 1.0
C      1  0.4845030000000  0.4755970000000  0.5562660000000 1.0
C      1  0.4845030000000  0.4634730000000  0.4507330000000 1.0
C      1  0.5154970000000  0.5609300000000  0.4930000000000 1.0
C      1  0.5154970000000  0.4755970000000  0.5562660000000 1.0
C      1  0.5154970000000  0.4634730000000  0.4507330000000 1.0
C      1  0.4834040000000  0.5240180000000  0.5440620000000 1.0
C      1  0.4834040000000  0.4498320000000  0.4987690000000 1.0
C      1  0.4834040000000  0.5261500000000  0.4571690000000 1.0
C      1  0.5165960000000  0.5240180000000  0.5440620000000 1.0
C      1  0.5165960000000  0.4498320000000  0.4987690000000 1.0
C      1  0.5165960000000  0.5261500000000  0.4571690000000 1.0
C      1  0.5316230000000  0.5023040000000  0.4260440000000 1.0
C      1  0.5316230000000  0.5628960000000  0.5389730000000 1.0
C      1  0.5316230000000  0.4348010000000  0.5349830000000 1.0
C      1  0.4683770000000  0.5023040000000  0.4260440000000 1.0
C      1  0.4683770000000  0.5628960000000  0.5389730000000 1.0
C      1  0.4683770000000  0.4348010000000  0.5349830000000 1.0
C      1  0.4416120000000  0.5476940000000  0.4684140000000 1.0
C      1  0.4416120000000  0.5035080000000  0.5570970000000 1.0
C      1  0.4416120000000  0.4487990000000  0.4744890000000 1.0
C      1  0.5583880000000  0.5476940000000  0.4684140000000 1.0
C      1  0.5583880000000  0.5035080000000  0.5570970000000 1.0
C      1  0.5583880000000  0.4487990000000  0.4744890000000 1.0
C      1  0.5671770000000  0.5026100000000  0.5293130000000 1.0
C      1  0.5671770000000  0.4733100000000  0.4876040000000 1.0
C      1  0.5671770000000  0.5240810000000  0.4830840000000 1.0
C      1  0.4328230000000  0.5026100000000  0.5293130000000 1.0
C      1  0.4328230000000  0.4733100000000  0.4876040000000 1.0
C      1  0.4328230000000  0.5240810000000  0.4830840000000 1.0
C      1  0.5327110000000  0.5411100000000  0.5163450000000 1.0
C      1  0.5327110000000  0.4652900000000  0.5274300000000 1.0
C      1  0.5327110000000  0.4936000000000  0.4562250000000 1.0
C      1  0.4672890000000  0.5411100000000  0.5163450000000 1.0
C      1  0.4672890000000  0.4652900000000  0.5274300000000 1.0
C      1  0.4672890000000  0.4936000000000  0.4562250000000 1.0
C      1  0.4832400000000  0.5190520000000  0.4927220000000 1.0
C      1  0.4832400000000  0.4967760000000  0.5201390000000 1.0
C      1  0.4832400000000  0.4841710000000  0.4871390000000 1.0
C      1  0.5167600000000  0.5190520000000  0.4927220000000 1.0
C      1  0.5167600000000  0.4967760000000  0.5201390000000 1.0
C      1  0.5167600000000  0.4841710000000  0.4871390000000 1.0
END
