TITL C-3985254-1270-1272 9.16528520415252e-05 125000 -323.474769427278 0 0 60 (C1) n - 1
REM
REM in /home/nfs/bkarasulu/CARBON/AIRSS/Generating-Clusters/TERSOFF/Higher-Symm/Only-C60
REM
REM
REM
REM
REM
REM ./C.cell (28575a23ae977d3b5fae324c64b13b57)
REM
REM compiler GCC version 9.2.1 20190827 (Red Hat 9.2.1-1)
REM options -cpp -mtune=generic -march=x86-64 -g -O0 -fpre-include=/usr/include/finclude/math-vector-fortran.h
REM seed 1973181177 2034233430 2053905712 -1403888103 -934800076 -1948089600 155907513 1276874776 -1487938795 -244126051 -41126511 -208188852 1686206512 1926351266 2086476671 1775570509 1519904502 -157731725 -1583727133 1090469643 -172987253 -1143993497 -431958022 -1970856364 852347446 -1993677995 -1312501208 -2120979836 882809475 773831434 -915056102 208902802 458309290
REM
CELL 1.54180   50.00000   50.00000   50.00000   90.00000   90.00000   90.00000
LATT -1
SFAC C  
C      1  0.5204090000000  0.4279220000000  0.5105630000000 1.0
C      1  0.5128600000000  0.4575140000000  0.4653700000000 1.0
C      1  0.5488230000000  0.5092090000000  0.5101000000000 1.0
C      1  0.4373700000000  0.5356810000000  0.4836950000000 1.0
C      1  0.5196970000000  0.5122650000000  0.5574270000000 1.0
C      1  0.5270970000000  0.4801330000000  0.5631100000000 1.0
C      1  0.5685460000000  0.5096340000000  0.4820770000000 1.0
C      1  0.5537190000000  0.4859720000000  0.4683000000000 1.0
C      1  0.4903710000000  0.5445740000000  0.4937750000000 1.0
C      1  0.5031020000000  0.4653190000000  0.5295730000000 1.0
C      1  0.5388850000000  0.4554180000000  0.5079780000000 1.0
C      1  0.4480840000000  0.4632180000000  0.4872320000000 1.0
C      1  0.5082190000000  0.5577990000000  0.5300100000000 1.0
C      1  0.5183390000000  0.4997250000000  0.4988140000000 1.0
C      1  0.5210170000000  0.4310660000000  0.4788000000000 1.0
C      1  0.5490290000000  0.5356700000000  0.5227520000000 1.0
C      1  0.5495870000000  0.5561960000000  0.5013580000000 1.0
C      1  0.4806770000000  0.5163710000000  0.4429610000000 1.0
C      1  0.4512660000000  0.5050050000000  0.4847940000000 1.0
C      1  0.4372670000000  0.5381060000000  0.4520660000000 1.0
C      1  0.5079320000000  0.5232780000000  0.4821820000000 1.0
C      1  0.5288520000000  0.5391160000000  0.5437900000000 1.0
C      1  0.5260670000000  0.4628310000000  0.4389460000000 1.0
C      1  0.4492670000000  0.4464560000000  0.5113770000000 1.0
C      1  0.5459540000000  0.4659340000000  0.5401420000000 1.0
C      1  0.5227300000000  0.4390560000000  0.5429570000000 1.0
C      1  0.5307390000000  0.5292400000000  0.4370210000000 1.0
C      1  0.4876250000000  0.5124960000000  0.5626530000000 1.0
C      1  0.5644550000000  0.4885500000000  0.5279170000000 1.0
C      1  0.4342890000000  0.4957470000000  0.5434760000000 1.0
C      1  0.4762700000000  0.5674510000000  0.4536520000000 1.0
C      1  0.5083780000000  0.4963400000000  0.5292600000000 1.0
C      1  0.4892490000000  0.4316880000000  0.5084800000000 1.0
C      1  0.4671620000000  0.4958090000000  0.4606120000000 1.0
C      1  0.5074020000000  0.5216990000000  0.4533140000000 1.0
C      1  0.4883700000000  0.4835370000000  0.4947230000000 1.0
C      1  0.4280360000000  0.5187580000000  0.5257150000000 1.0
C      1  0.4793420000000  0.4658930000000  0.4688380000000 1.0
C      1  0.4794010000000  0.4359080000000  0.4814530000000 1.0
C      1  0.4254690000000  0.4857900000000  0.4848780000000 1.0
C      1  0.5220760000000  0.5699750000000  0.5042980000000 1.0
C      1  0.4599580000000  0.4782750000000  0.5414350000000 1.0
C      1  0.5001110000000  0.4662050000000  0.5714410000000 1.0
C      1  0.4128810000000  0.5136660000000  0.4990950000000 1.0
C      1  0.4777080000000  0.4850260000000  0.5660410000000 1.0
C      1  0.5021840000000  0.5725590000000  0.4785750000000 1.0
C      1  0.4652140000000  0.5527070000000  0.4797990000000 1.0
C      1  0.5598870000000  0.5412100000000  0.4767000000000 1.0
C      1  0.4727420000000  0.4477520000000  0.5329320000000 1.0
C      1  0.4808970000000  0.5434180000000  0.5227620000000 1.0
C      1  0.4944910000000  0.4380700000000  0.5601520000000 1.0
C      1  0.5865430000000  0.4917450000000  0.5045540000000 1.0
C      1  0.4639970000000  0.5412790000000  0.4394140000000 1.0
C      1  0.5488160000000  0.5475020000000  0.4505830000000 1.0
C      1  0.4489400000000  0.5428940000000  0.5172500000000 1.0
C      1  0.5317040000000  0.4743350000000  0.4854720000000 1.0
C      1  0.4669170000000  0.4953150000000  0.5130130000000 1.0
C      1  0.4820000000000  0.5158210000000  0.5318260000000 1.0
C      1  0.5435850000000  0.5070530000000  0.4238130000000 1.0
C      1  0.5479960000000  0.4828180000000  0.4387030000000 1.0
END
