TITL C-3985252-168-455 0.00323288170230465 125000 -308.437547095337 0 0 60 (C3) n - 1
REM
REM in /home/nfs/bkarasulu/CARBON/AIRSS/Generating-Clusters/TERSOFF/Higher-Symm/Only-C60
REM
REM
REM
REM
REM
REM ./C.cell (28575a23ae977d3b5fae324c64b13b57)
REM
REM compiler GCC version 9.2.1 20190827 (Red Hat 9.2.1-1)
REM options -cpp -mtune=generic -march=x86-64 -g -O0 -fpre-include=/usr/include/finclude/math-vector-fortran.h
REM seed 1629676653 -809364383 -991458748 987466717 -1835232348 742213014 388283796 -1498721931 -719889454 1854802404 1632953393 1171184871 600824483 947918328 1352359194 -520557051 876151861 745671835 -890538702 -2116136359 1696839631 -2138210043 2024115748 -1908059145 -67391809 1871833911 542742947 -926308446 -1778937761 1892064274 1610518879 -1920637568 839008053
REM
CELL 1.54180   50.00000   50.00000   50.00000   90.00000   90.00000   90.00000
LATT -1
SFAC C  
C      1  0.4799830000000  0.5457640000000  0.5634950000000 1.0
C      1  0.4799830000000  0.5298310000000  0.4292500000000 1.0
C      1  0.4799770000000  0.4215320000000  0.5101680000000 1.0
C      1  0.4927300000000  0.5106040000000  0.5324020000000 1.0
C      1  0.4927900000000  0.5204820000000  0.4753380000000 1.0
C      1  0.4928620000000  0.4660840000000  0.4951770000000 1.0
C      1  0.4878840000000  0.4643910000000  0.5276680000000 1.0
C      1  0.4878750000000  0.5395460000000  0.5176270000000 1.0
C      1  0.4879010000000  0.4932370000000  0.4575990000000 1.0
C      1  0.5195490000000  0.4794580000000  0.5249220000000 1.0
C      1  0.5197120000000  0.5296120000000  0.5063030000000 1.0
C      1  0.5196010000000  0.4884320000000  0.4719030000000 1.0
C      1  0.4858040000000  0.5700310000000  0.4835070000000 1.0
C      1  0.4858030000000  0.4484210000000  0.4482190000000 1.0
C      1  0.4858050000000  0.4786760000000  0.5711760000000 1.0
C      1  0.5528540000000  0.5179120000000  0.5291080000000 1.0
C      1  0.5527960000000  0.5139550000000  0.4705550000000 1.0
C      1  0.5528410000000  0.4651250000000  0.5031740000000 1.0
C      1  0.5139270000000  0.5718720000000  0.4896720000000 1.0
C      1  0.5139260000000  0.4528480000000  0.4435470000000 1.0
C      1  0.5139280000000  0.4724180000000  0.5696810000000 1.0
C      1  0.4606910000000  0.4370530000000  0.4935610000000 1.0
C      1  0.4606880000000  0.5236300000000  0.5583620000000 1.0
C      1  0.4607000000000  0.5364530000000  0.4509990000000 1.0
C      1  0.5462640000000  0.5463170000000  0.5122150000000 1.0
C      1  0.5462770000000  0.4851400000000  0.4543940000000 1.0
C      1  0.5462670000000  0.4656800000000  0.5362670000000 1.0
C      1  0.4284200000000  0.4748450000000  0.4870050000000 1.0
C      1  0.4284210000000  0.4990510000000  0.5289050000000 1.0
C      1  0.4284210000000  0.5232380000000  0.4869960000000 1.0
C      1  0.5237160000000  0.4805950000000  0.4309950000000 1.0
C      1  0.5237330000000  0.4475460000000  0.5520250000000 1.0
C      1  0.5237210000000  0.5689410000000  0.5199970000000 1.0
C      1  0.4725120000000  0.4955600000000  0.5512700000000 1.0
C      1  0.4725580000000  0.5443170000000  0.4788500000000 1.0
C      1  0.4725460000000  0.4572400000000  0.4728180000000 1.0
C      1  0.4408300000000  0.4553840000000  0.5067810000000 1.0
C      1  0.4408350000000  0.5259050000000  0.5358700000000 1.0
C      1  0.4408350000000  0.5158390000000  0.4602570000000 1.0
C      1  0.5216820000000  0.5198980000000  0.5470800000000 1.0
C      1  0.5216940000000  0.5284790000000  0.4598860000000 1.0
C      1  0.5218000000000  0.4485130000000  0.4958390000000 1.0
C      1  0.5557160000000  0.5450890000000  0.4821940000000 1.0
C      1  0.5557240000000  0.4597530000000  0.4704510000000 1.0
C      1  0.5557290000000  0.4922910000000  0.5502330000000 1.0
C      1  0.5310740000000  0.5581210000000  0.4692070000000 1.0
C      1  0.5311020000000  0.4419870000000  0.4656300000000 1.0
C      1  0.5310660000000  0.4970220000000  0.5679830000000 1.0
C      1  0.4539860000000  0.4859850000000  0.4679150000000 1.0
C      1  0.4539640000000  0.4769460000000  0.5288090000000 1.0
C      1  0.4539790000000  0.5341960000000  0.5061850000000 1.0
C      1  0.5050330000000  0.5515410000000  0.5447360000000 1.0
C      1  0.5050370000000  0.5107120000000  0.4336280000000 1.0
C      1  0.5050310000000  0.4348870000000  0.5245260000000 1.0
C      1  0.4912640000000  0.4989160000000  0.5009940000000 1.0
C      1  0.5893660000000  0.4990410000000  0.5009680000000 1.0
C      1  0.5583170000000  0.4990300000000  0.5009710000000 1.0
C      1  0.5237900000000  0.4990550000000  0.5009580000000 1.0
C      1  0.4169920000000  0.4990450000000  0.5009690000000 1.0
C      1  0.4598540000000  0.4990380000000  0.5009710000000 1.0
END
