TITL C-3985247-764-856 0.00617553642102408 125000 -297.737488057381 0 0 60 (C3) n - 1
REM
REM in /home/nfs/bkarasulu/CARBON/AIRSS/Generating-Clusters/TERSOFF/Higher-Symm/Only-C60
REM
REM
REM
REM
REM
REM ./C.cell (28575a23ae977d3b5fae324c64b13b57)
REM
REM compiler GCC version 9.2.1 20190827 (Red Hat 9.2.1-1)
REM options -cpp -mtune=generic -march=x86-64 -g -O0 -fpre-include=/usr/include/finclude/math-vector-fortran.h
REM seed 1222100096 1785219246 -762073248 -120884341 -1042586247 -1316149449 33193174 -1955717013 -1530576205 -1514464990 1245781180 1844406494 589220523 801833655 -1732126119 -634339068 1066783985 1745877830 -12047273 -1102739531 517174438 1536600476 327613498 2077755263 -1955558646 -562597688 -92540134 889235166 1091264007 1217779063 416867271 -1119647443 1974364292
REM
CELL 1.54180   50.00000   50.00000   50.00000   90.00000   90.00000   90.00000
LATT -1
SFAC C  
C      1  0.5433760000000  0.4970780000000  0.4382700000000 1.0
C      1  0.5316460000000  0.4970590000000  0.5684060000000 1.0
C      1  0.4249630000000  0.4968910000000  0.4932730000000 1.0
C      1  0.5057650000000  0.5177450000000  0.5683460000000 1.0
C      1  0.4378480000000  0.5177280000000  0.4709430000000 1.0
C      1  0.5562670000000  0.5177030000000  0.4607870000000 1.0
C      1  0.5247410000000  0.5581290000000  0.5157570000000 1.0
C      1  0.4741700000000  0.5580930000000  0.5134080000000 1.0
C      1  0.5013060000000  0.5580690000000  0.4707680000000 1.0
C      1  0.5535750000000  0.5465430000000  0.5112670000000 1.0
C      1  0.4635100000000  0.5466160000000  0.5406480000000 1.0
C      1  0.4829870000000  0.5466150000000  0.4479540000000 1.0
C      1  0.5314990000000  0.4724260000000  0.4506530000000 1.0
C      1  0.5268910000000  0.4723910000000  0.5519570000000 1.0
C      1  0.4416500000000  0.4722640000000  0.4973510000000 1.0
C      1  0.4579790000000  0.5224260000000  0.4981060000000 1.0
C      1  0.5225850000000  0.5223570000000  0.4646060000000 1.0
C      1  0.5192660000000  0.5223290000000  0.5373880000000 1.0
C      1  0.5552770000000  0.5113690000000  0.5576010000000 1.0
C      1  0.4223280000000  0.5111280000000  0.5191710000000 1.0
C      1  0.5221750000000  0.5114090000000  0.4232140000000 1.0
C      1  0.4636590000000  0.4381010000000  0.5382510000000 1.0
C      1  0.4851960000000  0.4381860000000  0.4493800000000 1.0
C      1  0.5512610000000  0.4381420000000  0.5125160000000 1.0
C      1  0.4897510000000  0.4226680000000  0.5180240000000 1.0
C      1  0.4895200000000  0.4227020000000  0.4821000000000 1.0
C      1  0.5207120000000  0.4227520000000  0.4998940000000 1.0
C      1  0.5240900000000  0.4566230000000  0.5020930000000 1.0
C      1  0.4861850000000  0.4566260000000  0.5198680000000 1.0
C      1  0.4898240000000  0.4566320000000  0.4781060000000 1.0
C      1  0.4942630000000  0.5285550000000  0.5181630000000 1.0
C      1  0.4870780000000  0.5285490000000  0.4860030000000 1.0
C      1  0.5185460000000  0.5285990000000  0.4957770000000 1.0
C      1  0.4494980000000  0.4694780000000  0.5485890000000 1.0
C      1  0.4831120000000  0.4695330000000  0.4320050000000 1.0
C      1  0.5673440000000  0.4694600000000  0.5194440000000 1.0
C      1  0.5501570000000  0.4546560000000  0.5449070000000 1.0
C      1  0.4361460000000  0.4544850000000  0.5210200000000 1.0
C      1  0.5137430000000  0.4546940000000  0.4340410000000 1.0
C      1  0.4639020000000  0.4954410000000  0.5468730000000 1.0
C      1  0.4773770000000  0.4954440000000  0.4453840000000 1.0
C      1  0.5586430000000  0.4953780000000  0.5077590000000 1.0
C      1  0.5122660000000  0.5641760000000  0.5423730000000 1.0
C      1  0.4573740000000  0.5644070000000  0.4893190000000 1.0
C      1  0.5306080000000  0.5641250000000  0.4683000000000 1.0
C      1  0.4712190000000  0.4764030000000  0.4968620000000 1.0
C      1  0.5171690000000  0.4764680000000  0.4765930000000 1.0
C      1  0.5116680000000  0.4764690000000  0.5265660000000 1.0
C      1  0.4797410000000  0.5030330000000  0.5706170000000 1.0
C      1  0.4488870000000  0.5029920000000  0.4472710000000 1.0
C      1  0.5712400000000  0.5028960000000  0.4821250000000 1.0
C      1  0.4844220000000  0.4982760000000  0.5227590000000 1.0
C      1  0.4880780000000  0.4982820000000  0.4752100000000 1.0
C      1  0.5274270000000  0.4983230000000  0.5020790000000 1.0
C      1  0.4914890000000  0.5472970000000  0.5560030000000 1.0
C      1  0.4558430000000  0.5473960000000  0.4645140000000 1.0
C      1  0.5528560000000  0.5472710000000  0.4794540000000 1.0
C      1  0.4975930000000  0.5197200000000  0.4403500000000 1.0
C      1  0.5528540000000  0.5196800000000  0.5277330000000 1.0
C      1  0.4494550000000  0.5197120000000  0.5318010000000 1.0
END
