TITL C-3985254-1270-531 -0.00220914892778419 125000 -292.15566265196 0 0 60 (C2) n - 1
REM
REM in /home/nfs/bkarasulu/CARBON/AIRSS/Generating-Clusters/TERSOFF/Higher-Symm/Only-C60
REM
REM
REM
REM
REM
REM ./C.cell (28575a23ae977d3b5fae324c64b13b57)
REM
REM compiler GCC version 9.2.1 20190827 (Red Hat 9.2.1-1)
REM options -cpp -mtune=generic -march=x86-64 -g -O0 -fpre-include=/usr/include/finclude/math-vector-fortran.h
REM seed 43743064 -1222298329 57384321 -1539608754 -1544867311 160103728 819003430 1110996994 -1903701405 529902054 -1175156142 -251770312 958299139 2111322903 -1948514841 -1629758392 816311287 -1357609064 1877287549 1783157101 983863502 1217943466 -1088465707 -524474055 -343053570 -1415111045 457809668 1382006568 -138404597 -1819071370 164994282 1543507748 -1781004790
REM
CELL 1.54180   50.00000   50.00000   50.00000   90.00000   90.00000   90.00000
LATT -1
SFAC C  
C      1  0.5171190000000  0.4814710000000  0.5635640000000 1.0
C      1  0.5165730000000  0.5188670000000  0.4365410000000 1.0
C      1  0.4825270000000  0.4816010000000  0.5637280000000 1.0
C      1  0.4819670000000  0.5179840000000  0.4362170000000 1.0
C      1  0.5180290000000  0.4820080000000  0.4362130000000 1.0
C      1  0.5174730000000  0.5183960000000  0.5637280000000 1.0
C      1  0.4834230000000  0.4811460000000  0.4365680000000 1.0
C      1  0.4828850000000  0.5185220000000  0.5635540000000 1.0
C      1  0.4354540000000  0.5512810000000  0.5157290000000 1.0
C      1  0.4353140000000  0.4488940000000  0.4842970000000 1.0
C      1  0.5646400000000  0.5512700000000  0.5158420000000 1.0
C      1  0.5644150000000  0.4486640000000  0.4841230000000 1.0
C      1  0.4355840000000  0.5513340000000  0.4841350000000 1.0
C      1  0.4353620000000  0.4487320000000  0.5158390000000 1.0
C      1  0.5647120000000  0.5511360000000  0.4842910000000 1.0
C      1  0.5645390000000  0.4487260000000  0.5157280000000 1.0
C      1  0.4242680000000  0.5182260000000  0.5181920000000 1.0
C      1  0.4242490000000  0.4817710000000  0.4817830000000 1.0
C      1  0.5758940000000  0.5181110000000  0.5183780000000 1.0
C      1  0.5758510000000  0.4818860000000  0.4816390000000 1.0
C      1  0.4241460000000  0.5181140000000  0.4816390000000 1.0
C      1  0.4241080000000  0.4818860000000  0.5183750000000 1.0
C      1  0.5757540000000  0.5182290000000  0.4817860000000 1.0
C      1  0.5757300000000  0.4817700000000  0.5181900000000 1.0
C      1  0.4852320000000  0.4818540000000  0.4705710000000 1.0
C      1  0.4844550000000  0.5164270000000  0.5304750000000 1.0
C      1  0.5166550000000  0.4862420000000  0.4675490000000 1.0
C      1  0.5160610000000  0.5153180000000  0.5314460000000 1.0
C      1  0.4839430000000  0.4846820000000  0.5314540000000 1.0
C      1  0.4833310000000  0.5137670000000  0.4675490000000 1.0
C      1  0.5155510000000  0.4835850000000  0.5304770000000 1.0
C      1  0.5147450000000  0.5181340000000  0.4705950000000 1.0
C      1  0.4729260000000  0.5483620000000  0.4461270000000 1.0
C      1  0.4723760000000  0.4512620000000  0.5540800000000 1.0
C      1  0.5282220000000  0.5490640000000  0.4456330000000 1.0
C      1  0.5277960000000  0.4511680000000  0.5541730000000 1.0
C      1  0.4722090000000  0.5488350000000  0.5541800000000 1.0
C      1  0.4717820000000  0.4509130000000  0.4456130000000 1.0
C      1  0.5276230000000  0.5487530000000  0.5540910000000 1.0
C      1  0.5270770000000  0.4516480000000  0.4461370000000 1.0
C      1  0.4579710000000  0.5159610000000  0.5148730000000 1.0
C      1  0.4579550000000  0.4841200000000  0.4851650000000 1.0
C      1  0.5423270000000  0.5158180000000  0.5156330000000 1.0
C      1  0.5423170000000  0.4842520000000  0.4842360000000 1.0
C      1  0.4577090000000  0.5157840000000  0.4842180000000 1.0
C      1  0.4576760000000  0.4841670000000  0.5156320000000 1.0
C      1  0.5420140000000  0.5159430000000  0.4851450000000 1.0
C      1  0.5420320000000  0.4840250000000  0.5148810000000 1.0
C      1  0.4642800000000  0.4439760000000  0.5257560000000 1.0
C      1  0.4646660000000  0.5559170000000  0.4743180000000 1.0
C      1  0.5356960000000  0.4439830000000  0.5257780000000 1.0
C      1  0.5360240000000  0.5561140000000  0.4741430000000 1.0
C      1  0.4639890000000  0.4438210000000  0.4741240000000 1.0
C      1  0.4643040000000  0.5560160000000  0.5257800000000 1.0
C      1  0.5353340000000  0.4440270000000  0.4743140000000 1.0
C      1  0.5357130000000  0.5560270000000  0.5257600000000 1.0
C      1  0.4840030000000  0.4424820000000  0.4999960000000 1.0
C      1  0.5158030000000  0.4425370000000  0.5000140000000 1.0
C      1  0.4841970000000  0.5574720000000  0.5000090000000 1.0
C      1  0.5159930000000  0.5575130000000  0.4999980000000 1.0
END
