TITL C-3985253-1688-739 -5.04175552679817e-06 125000 -340.270338032567 0 0 60 (C5) n - 1
REM
REM in /home/nfs/bkarasulu/CARBON/AIRSS/Generating-Clusters/TERSOFF/Higher-Symm/Only-C60
REM
REM
REM
REM
REM
REM ./C.cell (28575a23ae977d3b5fae324c64b13b57)
REM
REM compiler GCC version 9.2.1 20190827 (Red Hat 9.2.1-1)
REM options -cpp -mtune=generic -march=x86-64 -g -O0 -fpre-include=/usr/include/finclude/math-vector-fortran.h
REM seed -1663811042 734945823 -1187678552 540034408 1271514720 -1745215631 -1945282731 1359033575 1694148978 -1455448551 -401453943 228708337 -2057200618 -846529539 -844702455 -1350120244 -215533560 -48412044 1292185379 1489806527 -1617334900 111642179 940574250 -597096768 -1423868899 1747774358 1896405132 290755177 1010021085 595934145 -1507472433 -1250587116 -1115632883
REM
CELL 1.54180   50.00000   50.00000   50.00000   90.00000   90.00000   90.00000
LATT -1
SFAC C  
C      1  0.4268970000000  0.4901420000000  0.5239630000000 1.0
C      1  0.4268970000000  0.5197430000000  0.5167810000000 1.0
C      1  0.4268970000000  0.5220600000000  0.4864090000000 1.0
C      1  0.4268970000000  0.4938910000000  0.4748200000000 1.0
C      1  0.4268970000000  0.4741640000000  0.4980290000000 1.0
C      1  0.4477280000000  0.4509360000000  0.4970060000000 1.0
C      1  0.4477280000000  0.4819910000000  0.5457380000000 1.0
C      1  0.4477280000000  0.5379340000000  0.5312620000000 1.0
C      1  0.4477280000000  0.5414540000000  0.4735830000000 1.0
C      1  0.4477280000000  0.4876860000000  0.4524120000000 1.0
C      1  0.5661310000000  0.4889540000000  0.4766350000000 1.0
C      1  0.5661310000000  0.4743660000000  0.5032850000000 1.0
C      1  0.5661310000000  0.4952030000000  0.5253950000000 1.0
C      1  0.5661310000000  0.5226690000000  0.5124100000000 1.0
C      1  0.5661310000000  0.5188080000000  0.4822750000000 1.0
C      1  0.5503580000000  0.4494440000000  0.5069290000000 1.0
C      1  0.5503580000000  0.4909670000000  0.5502220000000 1.0
C      1  0.5503590000000  0.5449730000000  0.5241100000000 1.0
C      1  0.5503590000000  0.5368280000000  0.4646780000000 1.0
C      1  0.5503580000000  0.4777880000000  0.4540590000000 1.0
C      1  0.5095450000000  0.4740560000000  0.4971490000000 1.0
C      1  0.5095450000000  0.4892710000000  0.5237930000000 1.0
C      1  0.5095450000000  0.5193130000000  0.5175560000000 1.0
C      1  0.5095460000000  0.5226640000000  0.4870570000000 1.0
C      1  0.5095450000000  0.4946940000000  0.4744450000000 1.0
C      1  0.5405780000000  0.5644320000000  0.5047370000000 1.0
C      1  0.5405780000000  0.5244160000000  0.4401850000000 1.0
C      1  0.5405780000000  0.4506580000000  0.4582950000000 1.0
C      1  0.5405780000000  0.4450890000000  0.5340390000000 1.0
C      1  0.5405780000000  0.5154050000000  0.5627420000000 1.0
C      1  0.4770680000000  0.5278650000000  0.5495710000000 1.0
C      1  0.4770680000000  0.5557550000000  0.4888170000000 1.0
C      1  0.4770670000000  0.5065940000000  0.4435180000000 1.0
C      1  0.4770670000000  0.4483200000000  0.4762750000000 1.0
C      1  0.4770670000000  0.4614660000000  0.5418200000000 1.0
C      1  0.5326420000000  0.5384550000000  0.5469510000000 1.0
C      1  0.5326420000000  0.5565360000000  0.4779350000000 1.0
C      1  0.5326420000000  0.4964860000000  0.4394120000000 1.0
C      1  0.5326410000000  0.4412920000000  0.4846190000000 1.0
C      1  0.5326420000000  0.4672300000000  0.5510820000000 1.0
C      1  0.5026020000000  0.4426920000000  0.4931950000000 1.0
C      1  0.5026030000000  0.4758190000000  0.5524000000000 1.0
C      1  0.5026030000000  0.5423630000000  0.5391900000000 1.0
C      1  0.5026030000000  0.5503630000000  0.4718210000000 1.0
C      1  0.5026030000000  0.4887630000000  0.4433940000000 1.0
C      1  0.4700040000000  0.5025820000000  0.5284170000000 1.0
C      1  0.4700050000000  0.5278240000000  0.5063260000000 1.0
C      1  0.4700050000000  0.5146140000000  0.4754930000000 1.0
C      1  0.4700050000000  0.4812080000000  0.4785280000000 1.0
C      1  0.4700040000000  0.4737720000000  0.5112370000000 1.0
C      1  0.4803670000000  0.5320380000000  0.4296970000000 1.0
C      1  0.4803670000000  0.4430380000000  0.4478050000000 1.0
C      1  0.4803670000000  0.4327580000000  0.5380450000000 1.0
C      1  0.4803670000000  0.5154040000000  0.5757080000000 1.0
C      1  0.4803670000000  0.5767620000000  0.5087450000000 1.0
C      1  0.4960800000000  0.4915200000000  0.5767140000000 1.0
C      1  0.4960800000000  0.5703390000000  0.5317710000000 1.0
C      1  0.4960800000000  0.5519520000000  0.4429210000000 1.0
C      1  0.4960800000000  0.4617690000000  0.4329530000000 1.0
C      1  0.4960800000000  0.4244200000000  0.5156410000000 1.0
END
