TITL C-3985254-1270-129 0.00282214688142552 125000 -305.996381575762 0 0 60 (C2) n - 1
REM
REM in /home/nfs/bkarasulu/CARBON/AIRSS/Generating-Clusters/TERSOFF/Higher-Symm/Only-C60
REM
REM
REM
REM
REM
REM ./C.cell (28575a23ae977d3b5fae324c64b13b57)
REM
REM compiler GCC version 9.2.1 20190827 (Red Hat 9.2.1-1)
REM options -cpp -mtune=generic -march=x86-64 -g -O0 -fpre-include=/usr/include/finclude/math-vector-fortran.h
REM seed 907949803 -2036564703 1426478233 370214286 1023510449 -1985061788 613284304 -1684606199 676438290 -1125369072 -1162296894 -107176682 -833466686 -178942134 1947710445 -921271080 -1452763816 -1325385095 -1500282079 1235066971 542921826 1221722955 1527549643 -523107002 -1490778958 765291686 485546569 -785405997 452266437 -1238983342 700940844 -1974887973 272401386
REM
CELL 1.54180   50.00000   50.00000   50.00000   90.00000   90.00000   90.00000
LATT -1
SFAC C  
C      1  0.5647100000000  0.4677370000000  0.4796270000000 1.0
C      1  0.5647100000000  0.5322630000000  0.5203730000000 1.0
C      1  0.4893060000000  0.5641610000000  0.5071470000000 1.0
C      1  0.4893060000000  0.4358390000000  0.4928530000000 1.0
C      1  0.4612750000000  0.5104260000000  0.4452330000000 1.0
C      1  0.4612750000000  0.4895740000000  0.5547670000000 1.0
C      1  0.4855190000000  0.4323750000000  0.5235530000000 1.0
C      1  0.4855190000000  0.5676250000000  0.4764470000000 1.0
C      1  0.5157480000000  0.5198930000000  0.4346650000000 1.0
C      1  0.5157480000000  0.4801070000000  0.5653350000000 1.0
C      1  0.4671050000000  0.4843230000000  0.5049950000000 1.0
C      1  0.4671050000000  0.5156770000000  0.4950050000000 1.0
C      1  0.4228180000000  0.4823860000000  0.4602160000000 1.0
C      1  0.4228180000000  0.5176140000000  0.5397840000000 1.0
C      1  0.5604410000000  0.5193120000000  0.4641790000000 1.0
C      1  0.5604410000000  0.4806880000000  0.5358210000000 1.0
C      1  0.4412300000000  0.4615940000000  0.4707130000000 1.0
C      1  0.4412300000000  0.5384060000000  0.5292870000000 1.0
C      1  0.4671500000000  0.4583810000000  0.4511910000000 1.0
C      1  0.4671500000000  0.5416190000000  0.5488090000000 1.0
C      1  0.4448070000000  0.4630620000000  0.5008190000000 1.0
C      1  0.4448070000000  0.5369380000000  0.4991810000000 1.0
C      1  0.5046910000000  0.5097760000000  0.5716660000000 1.0
C      1  0.5046910000000  0.4902240000000  0.4283340000000 1.0
C      1  0.4783010000000  0.4872210000000  0.4441100000000 1.0
C      1  0.4783010000000  0.5127790000000  0.5558900000000 1.0
C      1  0.4970840000000  0.5541570000000  0.5514380000000 1.0
C      1  0.4970840000000  0.4458430000000  0.4485620000000 1.0
C      1  0.5660600000000  0.4858400000000  0.5041070000000 1.0
C      1  0.5660600000000  0.5141600000000  0.4958930000000 1.0
C      1  0.5178640000000  0.4948610000000  0.5155960000000 1.0
C      1  0.5178640000000  0.5051390000000  0.4844040000000 1.0
C      1  0.5047610000000  0.4556090000000  0.5436140000000 1.0
C      1  0.5047610000000  0.5443910000000  0.4563860000000 1.0
C      1  0.5105900000000  0.4300790000000  0.4717140000000 1.0
C      1  0.5105900000000  0.5699210000000  0.5282860000000 1.0
C      1  0.5411270000000  0.5467390000000  0.4632800000000 1.0
C      1  0.5411270000000  0.4532610000000  0.5367200000000 1.0
C      1  0.5401610000000  0.4484530000000  0.4749870000000 1.0
C      1  0.5401610000000  0.5515470000000  0.5250130000000 1.0
C      1  0.4550980000000  0.4437760000000  0.5258520000000 1.0
C      1  0.4550980000000  0.5562240000000  0.4741480000000 1.0
C      1  0.4725160000000  0.4702350000000  0.5361760000000 1.0
C      1  0.4725160000000  0.5297650000000  0.4638240000000 1.0
C      1  0.5093610000000  0.5330810000000  0.4870520000000 1.0
C      1  0.5093610000000  0.4669190000000  0.5129480000000 1.0
C      1  0.4994390000000  0.4823550000000  0.4692070000000 1.0
C      1  0.4994390000000  0.5176450000000  0.5307930000000 1.0
C      1  0.4883400000000  0.4669230000000  0.4918400000000 1.0
C      1  0.4883400000000  0.5330770000000  0.5081600000000 1.0
C      1  0.5331050000000  0.5037830000000  0.4561490000000 1.0
C      1  0.5331050000000  0.4962170000000  0.5438510000000 1.0
C      1  0.5718420000000  0.4884170000000  0.4584990000000 1.0
C      1  0.5718420000000  0.5115830000000  0.5415010000000 1.0
C      1  0.4329070000000  0.5054380000000  0.4462440000000 1.0
C      1  0.4329070000000  0.4945620000000  0.5537560000000 1.0
C      1  0.5319500000000  0.5534200000000  0.4941400000000 1.0
C      1  0.5319500000000  0.4465800000000  0.5058600000000 1.0
C      1  0.5246920000000  0.4689880000000  0.4495790000000 1.0
C      1  0.5246920000000  0.5310120000000  0.5504210000000 1.0
END
