TITL C-3985250-725-450 0.000585417335803132 125000 -301.856575651167 0 0 60 (C5) n - 1
REM
REM in /home/nfs/bkarasulu/CARBON/AIRSS/Generating-Clusters/TERSOFF/Higher-Symm/Only-C60
REM
REM
REM
REM
REM
REM ./C.cell (28575a23ae977d3b5fae324c64b13b57)
REM
REM compiler GCC version 9.2.1 20190827 (Red Hat 9.2.1-1)
REM options -cpp -mtune=generic -march=x86-64 -g -O0 -fpre-include=/usr/include/finclude/math-vector-fortran.h
REM seed -1386839755 18562982 -1071518931 1282502456 -983794918 -2074389984 961628664 1027837443 -613351579 -196178560 -512739142 -408405557 -681300661 1097966481 -1801791485 1082845430 1784185280 2146687975 96882660 1249035224 1385824336 -864210608 -1192161507 1638487027 -249161088 -1334005819 1028340801 -1663182777 1957826000 -156054579 -1079437309 155053787 713358282
REM
CELL 1.54180   50.00000   50.00000   50.00000   90.00000   90.00000   90.00000
LATT -1
SFAC C  
C      1  0.5600590000000  0.5157870000000  0.5013410000000 1.0
C      1  0.5172840000000  0.5157880000000  0.5575330000000 1.0
C      1  0.4506260000000  0.5157870000000  0.5342130000000 1.0
C      1  0.4522030000000  0.5157880000000  0.4636160000000 1.0
C      1  0.5198340000000  0.5157880000000  0.4432990000000 1.0
C      1  0.5065720000000  0.5179530000000  0.4725860000000 1.0
C      1  0.5281060000000  0.5179530000000  0.4977760000000 1.0
C      1  0.5108040000000  0.5179550000000  0.5260410000000 1.0
C      1  0.4785720000000  0.5179470000000  0.5183130000000 1.0
C      1  0.4759600000000  0.5179550000000  0.4852810000000 1.0
C      1  0.5030010000000  0.4686740000000  0.5602400000000 1.0
C      1  0.4436350000000  0.4686720000000  0.5214690000000 1.0
C      1  0.4621640000000  0.4686740000000  0.4530270000000 1.0
C      1  0.5329810000000  0.4686740000000  0.4495000000000 1.0
C      1  0.5582210000000  0.4686740000000  0.5157620000000 1.0
C      1  0.4830810000000  0.4885990000000  0.4408750000000 1.0
C      1  0.5510040000000  0.4886000000000  0.4656380000000 1.0
C      1  0.5484410000000  0.4886000000000  0.5378880000000 1.0
C      1  0.4789350000000  0.4886010000000  0.5577760000000 1.0
C      1  0.4385410000000  0.4885990000000  0.4978180000000 1.0
C      1  0.5666390000000  0.4864900000000  0.4935900000000 1.0
C      1  0.5266870000000  0.4864900000000  0.5613930000000 1.0
C      1  0.4498590000000  0.4864890000000  0.5443510000000 1.0
C      1  0.4423310000000  0.4864880000000  0.4660250000000 1.0
C      1  0.5144950000000  0.4864920000000  0.4346470000000 1.0
C      1  0.5691380000000  0.5298390000000  0.4767860000000 1.0
C      1  0.5434430000000  0.5298370000000  0.5585830000000 1.0
C      1  0.4577020000000  0.5298320000000  0.5594150000000 1.0
C      1  0.4304230000000  0.5298320000000  0.4781330000000 1.0
C      1  0.4992900000000  0.5298380000000  0.4270740000000 1.0
C      1  0.5618030000000  0.5218920000000  0.5335310000000 1.0
C      1  0.4872080000000  0.5218930000000  0.5691380000000 1.0
C      1  0.4302910000000  0.5218900000000  0.5091990000000 1.0
C      1  0.4697100000000  0.5218910000000  0.4365460000000 1.0
C      1  0.5509890000000  0.5218930000000  0.4515840000000 1.0
C      1  0.4975080000000  0.4326790000000  0.4568170000000 1.0
C      1  0.5402990000000  0.4326790000000  0.4842850000000 1.0
C      1  0.5273990000000  0.4326780000000  0.5334710000000 1.0
C      1  0.4766340000000  0.4326780000000  0.5364000000000 1.0
C      1  0.4581620000000  0.4326770000000  0.4890260000000 1.0
C      1  0.4962530000000  0.4837270000000  0.4723690000000 1.0
C      1  0.5251180000000  0.4837260000000  0.4878980000000 1.0
C      1  0.5192730000000  0.4837290000000  0.5201530000000 1.0
C      1  0.4867910000000  0.4837310000000  0.5245560000000 1.0
C      1  0.4725590000000  0.4837370000000  0.4950260000000 1.0
C      1  0.4719720000000  0.4440460000000  0.4657520000000 1.0
C      1  0.5239110000000  0.4440490000000  0.4627590000000 1.0
C      1  0.5428060000000  0.4440500000000  0.5112310000000 1.0
C      1  0.5025450000000  0.4440500000000  0.5441810000000 1.0
C      1  0.4587670000000  0.4440480000000  0.5160730000000 1.0
C      1  0.5034100000000  0.5594970000000  0.4694050000000 1.0
C      1  0.5301380000000  0.5594990000000  0.4937870000000 1.0
C      1  0.5152360000000  0.5595070000000  0.5267340000000 1.0
C      1  0.4792800000000  0.5595100000000  0.5227630000000 1.0
C      1  0.4719470000000  0.5595020000000  0.4873130000000 1.0
C      1  0.5370430000000  0.5508100000000  0.4596890000000 1.0
C      1  0.5497860000000  0.5508090000000  0.5227780000000 1.0
C      1  0.4937150000000  0.5508110000000  0.5544010000000 1.0
C      1  0.4463150000000  0.5508070000000  0.5108390000000 1.0
C      1  0.4731020000000  0.5508080000000  0.4523040000000 1.0
END
