TITL C-3985254-1270-1660 -0.00296239319378246 125000 -322.898024233777 0 0 60 (Cs) n - 1
REM
REM in /home/nfs/bkarasulu/CARBON/AIRSS/Generating-Clusters/TERSOFF/Higher-Symm/Only-C60
REM
REM
REM
REM
REM
REM ./C.cell (28575a23ae977d3b5fae324c64b13b57)
REM
REM compiler GCC version 9.2.1 20190827 (Red Hat 9.2.1-1)
REM options -cpp -mtune=generic -march=x86-64 -g -O0 -fpre-include=/usr/include/finclude/math-vector-fortran.h
REM seed -615163305 -129007848 400353540 820105320 1553841367 1378106214 851102844 -1146175410 -236210480 1989623233 -1189746397 -819327583 365321686 -1908457535 -1406741786 735091385 -810010365 1094382578 1671620334 1230266918 -268498076 1139854118 -1749410987 947640927 -763652197 421078151 1048858405 1621010934 -1062665075 28266627 1358609472 -919905951 -807329128
REM
CELL 1.54180   50.00000   50.00000   50.00000   90.00000   90.00000   90.00000
LATT -1
SFAC C  
C      1  0.4282290000000  0.4617020000000  0.4943710000000 1.0
C      1  0.5717330000000  0.4617200000000  0.4944000000000 1.0
C      1  0.5329790000000  0.4478070000000  0.4558780000000 1.0
C      1  0.4670230000000  0.4478190000000  0.4558910000000 1.0
C      1  0.5152070000000  0.5764100000000  0.5211680000000 1.0
C      1  0.4847870000000  0.5764120000000  0.5211650000000 1.0
C      1  0.5333450000000  0.4321370000000  0.5362670000000 1.0
C      1  0.4666660000000  0.4321110000000  0.5362690000000 1.0
C      1  0.4670120000000  0.4315400000000  0.5061040000000 1.0
C      1  0.5329920000000  0.4315130000000  0.5060980000000 1.0
C      1  0.5274100000000  0.4911830000000  0.4359160000000 1.0
C      1  0.4726060000000  0.4912680000000  0.4359580000000 1.0
C      1  0.5335980000000  0.4769760000000  0.5630200000000 1.0
C      1  0.4663890000000  0.4769620000000  0.5630830000000 1.0
C      1  0.5260820000000  0.5031740000000  0.5195780000000 1.0
C      1  0.4739560000000  0.5031930000000  0.5195530000000 1.0
C      1  0.4693620000000  0.5264670000000  0.5388110000000 1.0
C      1  0.5306550000000  0.5264570000000  0.5388100000000 1.0
C      1  0.4847500000000  0.4757180000000  0.5253100000000 1.0
C      1  0.5152970000000  0.4756980000000  0.5253570000000 1.0
C      1  0.5180510000000  0.4541780000000  0.5503540000000 1.0
C      1  0.4819560000000  0.4541770000000  0.5503830000000 1.0
C      1  0.4422910000000  0.4882520000000  0.5428460000000 1.0
C      1  0.5576950000000  0.4882680000000  0.5428250000000 1.0
C      1  0.5362160000000  0.5534980000000  0.5277940000000 1.0
C      1  0.4637850000000  0.5535010000000  0.5278030000000 1.0
C      1  0.5174910000000  0.5291440000000  0.4520620000000 1.0
C      1  0.4824950000000  0.5290750000000  0.4520200000000 1.0
C      1  0.5173600000000  0.4703520000000  0.4732070000000 1.0
C      1  0.4826450000000  0.4703600000000  0.4732150000000 1.0
C      1  0.4845300000000  0.5404460000000  0.4928130000000 1.0
C      1  0.5154850000000  0.5404510000000  0.4928150000000 1.0
C      1  0.5261820000000  0.5227250000000  0.5669680000000 1.0
C      1  0.4738180000000  0.5227340000000  0.5669740000000 1.0
C      1  0.4840540000000  0.4561930000000  0.5012650000000 1.0
C      1  0.5159400000000  0.4561940000000  0.5012770000000 1.0
C      1  0.5156890000000  0.4975470000000  0.5768370000000 1.0
C      1  0.4843140000000  0.4975670000000  0.5768370000000 1.0
C      1  0.5156600000000  0.5106530000000  0.4931420000000 1.0
C      1  0.4842640000000  0.5106950000000  0.4931360000000 1.0
C      1  0.5183580000000  0.5815940000000  0.4858480000000 1.0
C      1  0.4816310000000  0.5815890000000  0.4858510000000 1.0
C      1  0.5647940000000  0.4873070000000  0.5079580000000 1.0
C      1  0.4351700000000  0.4873050000000  0.5078930000000 1.0
C      1  0.4844750000000  0.4636240000000  0.4318790000000 1.0
C      1  0.5155290000000  0.4636240000000  0.4318690000000 1.0
C      1  0.5518000000000  0.4421770000000  0.4841540000000 1.0
C      1  0.4481780000000  0.4421590000000  0.4841470000000 1.0
C      1  0.4840500000000  0.5624680000000  0.4571730000000 1.0
C      1  0.5159490000000  0.5624640000000  0.4571670000000 1.0
C      1  0.4843980000000  0.5158210000000  0.4212760000000 1.0
C      1  0.5155970000000  0.5158210000000  0.4212620000000 1.0
C      1  0.5313530000000  0.5001200000000  0.4685300000000 1.0
C      1  0.4686380000000  0.5000960000000  0.4685270000000 1.0
C      1  0.4574240000000  0.5564790000000  0.4964930000000 1.0
C      1  0.5425690000000  0.5564730000000  0.4964960000000 1.0
C      1  0.5570350000000  0.5077380000000  0.4858640000000 1.0
C      1  0.4430330000000  0.5077580000000  0.4858870000000 1.0
C      1  0.5630640000000  0.5365630000000  0.4870790000000 1.0
C      1  0.4369590000000  0.5365490000000  0.4870690000000 1.0
END
