TITL C-3985250-725-902 -0.000324591347970797 125000 -288.592784083069 0 0 60 (C5) n - 1
REM
REM in /home/nfs/bkarasulu/CARBON/AIRSS/Generating-Clusters/TERSOFF/Higher-Symm/Only-C60
REM
REM
REM
REM
REM
REM ./C.cell (28575a23ae977d3b5fae324c64b13b57)
REM
REM compiler GCC version 9.2.1 20190827 (Red Hat 9.2.1-1)
REM options -cpp -mtune=generic -march=x86-64 -g -O0 -fpre-include=/usr/include/finclude/math-vector-fortran.h
REM seed -654711629 545580590 1234637606 1817602350 1836748917 376022009 -1251127530 -136436029 -1787502966 1629181842 769519378 -96744260 -1481708856 -1499705132 -576473514 -500549273 -1812737781 -2049726350 -1448566251 1107001036 1101655405 300758572 344354132 471911218 -1454934984 -2078191494 -1829760678 659386466 1387716951 776824147 -1773913905 -189391205 -1070598649
REM
CELL 1.54180   50.00000   50.00000   50.00000   90.00000   90.00000   90.00000
LATT -1
SFAC C  
C      1  0.4869030000000  0.4376520000000  0.4733340000000 1.0
C      1  0.4869030000000  0.4553730000000  0.5510570000000 1.0
C      1  0.4869030000000  0.5347670000000  0.5582200000000 1.0
C      1  0.4869030000000  0.5661140000000  0.4849260000000 1.0
C      1  0.4869030000000  0.5060940000000  0.4324630000000 1.0
C      1  0.4439100000000  0.4741220000000  0.5174540000000 1.0
C      1  0.4439100000000  0.5086030000000  0.5300050000000 1.0
C      1  0.4439100000000  0.5311950000000  0.5010900000000 1.0
C      1  0.4439100000000  0.5106770000000  0.4706680000000 1.0
C      1  0.4439100000000  0.4754030000000  0.4807820000000 1.0
C      1  0.5176050000000  0.5221470000000  0.4844240000000 1.0
C      1  0.5176040000000  0.4920310000000  0.4741230000000 1.0
C      1  0.5176050000000  0.4729270000000  0.4995830000000 1.0
C      1  0.5176050000000  0.4912380000000  0.5256190000000 1.0
C      1  0.5176040000000  0.5216580000000  0.5162500000000 1.0
C      1  0.4553060000000  0.4584760000000  0.5472800000000 1.0
C      1  0.4553060000000  0.5321340000000  0.5541020000000 1.0
C      1  0.4553060000000  0.5613840000000  0.4861570000000 1.0
C      1  0.4553060000000  0.5058030000000  0.4373420000000 1.0
C      1  0.4553060000000  0.4422030000000  0.4751190000000 1.0
C      1  0.5316650000000  0.5698180000000  0.4881000000000 1.0
C      1  0.5316650000000  0.5102580000000  0.4299220000000 1.0
C      1  0.5316640000000  0.4365210000000  0.4685890000000 1.0
C      1  0.5316640000000  0.4505100000000  0.5506650000000 1.0
C      1  0.5316650000000  0.5328920000000  0.5627230000000 1.0
C      1  0.4931020000000  0.4875300000000  0.5510680000000 1.0
C      1  0.4931030000000  0.5447150000000  0.5276410000000 1.0
C      1  0.4931010000000  0.5401060000000  0.4660150000000 1.0
C      1  0.4931020000000  0.4800720000000  0.4513550000000 1.0
C      1  0.4931010000000  0.4475780000000  0.5039210000000 1.0
C      1  0.4574080000000  0.5507350000000  0.5268030000000 1.0
C      1  0.4574100000000  0.5411690000000  0.4600310000000 1.0
C      1  0.4574090000000  0.4747090000000  0.4484940000000 1.0
C      1  0.4574100000000  0.4432000000000  0.5081370000000 1.0
C      1  0.4574100000000  0.4901870000000  0.5565340000000 1.0
C      1  0.5312550000000  0.4919370000000  0.5718970000000 1.0
C      1  0.5312550000000  0.5658870000000  0.5298860000000 1.0
C      1  0.5312550000000  0.5487840000000  0.4465730000000 1.0
C      1  0.5312550000000  0.4642630000000  0.4370940000000 1.0
C      1  0.5312540000000  0.4291300000000  0.5145490000000 1.0
C      1  0.4768370000000  0.5253070000000  0.4934480000000 1.0
C      1  0.4768380000000  0.5015890000000  0.4739080000000 1.0
C      1  0.4768370000000  0.4756750000000  0.4904250000000 1.0
C      1  0.4768380000000  0.4833770000000  0.5201750000000 1.0
C      1  0.4768380000000  0.5140500000000  0.5220430000000 1.0
C      1  0.5073370000000  0.5134180000000  0.5713040000000 1.0
C      1  0.5073370000000  0.5719600000000  0.5092730000000 1.0
C      1  0.5073370000000  0.5310560000000  0.4344270000000 1.0
C      1  0.5073370000000  0.4472340000000  0.4502010000000 1.0
C      1  0.5073370000000  0.4363330000000  0.5347960000000 1.0
C      1  0.5391610000000  0.4490730000000  0.4942400000000 1.0
C      1  0.5391610000000  0.4787850000000  0.5466540000000 1.0
C      1  0.5391610000000  0.5378140000000  0.5345950000000 1.0
C      1  0.5391610000000  0.5445870000000  0.4747270000000 1.0
C      1  0.5391610000000  0.4897420000000  0.4497860000000 1.0
C      1  0.5595110000000  0.5195100000000  0.5177680000000 1.0
C      1  0.5595110000000  0.5229270000000  0.4869360000000 1.0
C      1  0.5595110000000  0.4946610000000  0.4741580000000 1.0
C      1  0.5595110000000  0.4737730000000  0.4970920000000 1.0
C      1  0.5595110000000  0.4891290000000  0.5240450000000 1.0
END
