TITL C-3985247-764-427 0.00187415450026349 125000 -328.067494978009 0 0 60 (C1) n - 1
REM
REM in /home/nfs/bkarasulu/CARBON/AIRSS/Generating-Clusters/TERSOFF/Higher-Symm/Only-C60
REM
REM
REM
REM
REM
REM ./C.cell (28575a23ae977d3b5fae324c64b13b57)
REM
REM compiler GCC version 9.2.1 20190827 (Red Hat 9.2.1-1)
REM options -cpp -mtune=generic -march=x86-64 -g -O0 -fpre-include=/usr/include/finclude/math-vector-fortran.h
REM seed 1234969656 408071416 -497571209 -1432363857 -1607812128 -927614698 1584245986 731378169 -817796447 85399200 146712759 -596852164 1802744592 459393786 -1672282035 947464744 1036629298 -1756419641 840060997 -1994217129 -1832839364 -1732052711 -508457099 1449589704 19323418 520375471 -1023373572 2097579554 808385643 786334480 1887183830 -1763365493 -1871854843
REM
CELL 1.54180   50.00000   50.00000   50.00000   90.00000   90.00000   90.00000
LATT -1
SFAC C  
C      1  0.5139170000000  0.5132900000000  0.5338350000000 1.0
C      1  0.5421550000000  0.5102040000000  0.5204500000000 1.0
C      1  0.5454880000000  0.5091290000000  0.4868260000000 1.0
C      1  0.5201190000000  0.5044590000000  0.4704810000000 1.0
C      1  0.4647710000000  0.5146940000000  0.4681620000000 1.0
C      1  0.4509450000000  0.5116610000000  0.4948740000000 1.0
C      1  0.4693730000000  0.5120270000000  0.5195700000000 1.0
C      1  0.4677880000000  0.4908980000000  0.4503550000000 1.0
C      1  0.4325340000000  0.4890670000000  0.4922110000000 1.0
C      1  0.4692570000000  0.4848530000000  0.5346540000000 1.0
C      1  0.4999410000000  0.4903590000000  0.5495100000000 1.0
C      1  0.5543510000000  0.4885340000000  0.5368880000000 1.0
C      1  0.5657840000000  0.4882080000000  0.4818210000000 1.0
C      1  0.5264060000000  0.4871000000000  0.4478030000000 1.0
C      1  0.4641830000000  0.4506300000000  0.5061440000000 1.0
C      1  0.4832710000000  0.4455490000000  0.5308340000000 1.0
C      1  0.5152120000000  0.4477750000000  0.5330110000000 1.0
C      1  0.5370970000000  0.4504140000000  0.5108500000000 1.0
C      1  0.5321610000000  0.4510820000000  0.4796380000000 1.0
C      1  0.5032970000000  0.4502000000000  0.4635840000000 1.0
C      1  0.4730910000000  0.4504290000000  0.4760040000000 1.0
C      1  0.5574150000000  0.4648360000000  0.4650590000000 1.0
C      1  0.5068180000000  0.4679810000000  0.4376130000000 1.0
C      1  0.4533400000000  0.4658510000000  0.4570320000000 1.0
C      1  0.4382140000000  0.4669330000000  0.5113540000000 1.0
C      1  0.4702500000000  0.4625780000000  0.5597820000000 1.0
C      1  0.5180850000000  0.4678670000000  0.5561490000000 1.0
C      1  0.5634490000000  0.4646370000000  0.5216060000000 1.0
C      1  0.4872810000000  0.4907410000000  0.4295960000000 1.0
C      1  0.4284120000000  0.4845200000000  0.4635530000000 1.0
C      1  0.4376780000000  0.4891610000000  0.5349330000000 1.0
C      1  0.4787960000000  0.4948910000000  0.5741890000000 1.0
C      1  0.5421240000000  0.4857550000000  0.5628180000000 1.0
C      1  0.5819490000000  0.4851310000000  0.5054220000000 1.0
C      1  0.5549160000000  0.4874230000000  0.4400210000000 1.0
C      1  0.5619170000000  0.5181020000000  0.4449040000000 1.0
C      1  0.4978840000000  0.5187700000000  0.4294390000000 1.0
C      1  0.4275330000000  0.5128380000000  0.4486540000000 1.0
C      1  0.4280230000000  0.5178330000000  0.5307430000000 1.0
C      1  0.4662030000000  0.5217700000000  0.5684020000000 1.0
C      1  0.5349150000000  0.5136730000000  0.5733370000000 1.0
C      1  0.5854290000000  0.5141070000000  0.5173620000000 1.0
C      1  0.4376100000000  0.5366740000000  0.5071520000000 1.0
C      1  0.4657640000000  0.5331460000000  0.5410010000000 1.0
C      1  0.5181780000000  0.5347710000000  0.5560200000000 1.0
C      1  0.5603250000000  0.5353040000000  0.5232600000000 1.0
C      1  0.5544990000000  0.5339860000000  0.4714470000000 1.0
C      1  0.5097440000000  0.5274260000000  0.4548810000000 1.0
C      1  0.4518580000000  0.5387370000000  0.4536050000000 1.0
C      1  0.4701160000000  0.5580860000000  0.4736910000000 1.0
C      1  0.4599660000000  0.5582960000000  0.5040960000000 1.0
C      1  0.4791890000000  0.5606800000000  0.5324490000000 1.0
C      1  0.5130080000000  0.5596250000000  0.5364620000000 1.0
C      1  0.5380700000000  0.5572810000000  0.5135140000000 1.0
C      1  0.5352670000000  0.5570410000000  0.4816530000000 1.0
C      1  0.5033130000000  0.5525130000000  0.4701300000000 1.0
C      1  0.4962730000000  0.5176290000000  0.5101640000000 1.0
C      1  0.5019260000000  0.4967230000000  0.4912020000000 1.0
C      1  0.5009910000000  0.4699930000000  0.5004780000000 1.0
C      1  0.4997590000000  0.5441350000000  0.4999080000000 1.0
END
