TITL C-3985254-1270-123 0.000251723471905031 125000 -304.332433008114 0 0 60 (C3) n - 1
REM
REM in /home/nfs/bkarasulu/CARBON/AIRSS/Generating-Clusters/TERSOFF/Higher-Symm/Only-C60
REM
REM
REM
REM
REM
REM ./C.cell (28575a23ae977d3b5fae324c64b13b57)
REM
REM compiler GCC version 9.2.1 20190827 (Red Hat 9.2.1-1)
REM options -cpp -mtune=generic -march=x86-64 -g -O0 -fpre-include=/usr/include/finclude/math-vector-fortran.h
REM seed -507560515 -456209462 575933218 1173780269 -1484518770 1680135213 954265494 -1042649188 1868106194 1224081338 -805528897 -210077294 1583529904 277492095 -66360878 -7243040 -1801222302 -620273959 1481350929 -1411202492 -2046997191 1377231396 1606590438 2102576858 1108667712 1296061513 1920277147 1466886555 1204222136 -1436448252 1313099462 -789648923 861158079
REM
CELL 1.54180   50.00000   50.00000   50.00000   90.00000   90.00000   90.00000
LATT -1
SFAC C  
C      1  0.5326280000000  0.5001310000000  0.5116760000000 1.0
C      1  0.4735540000000  0.5001320000000  0.5224330000000 1.0
C      1  0.4938010000000  0.5001160000000  0.4658980000000 1.0
C      1  0.5185570000000  0.4526610000000  0.5540940000000 1.0
C      1  0.4438560000000  0.4526460000000  0.4890080000000 1.0
C      1  0.5375930000000  0.4526390000000  0.4568670000000 1.0
C      1  0.5154950000000  0.4817740000000  0.5466660000000 1.0
C      1  0.4518300000000  0.4817580000000  0.4900880000000 1.0
C      1  0.5326910000000  0.4817550000000  0.4632290000000 1.0
C      1  0.5113140000000  0.5460360000000  0.4536320000000 1.0
C      1  0.5345030000000  0.5460600000000  0.5329900000000 1.0
C      1  0.4541820000000  0.5460550000000  0.5133850000000 1.0
C      1  0.5554600000000  0.5011910000000  0.5342890000000 1.0
C      1  0.4425580000000  0.5011980000000  0.5309000000000 1.0
C      1  0.5019770000000  0.5011800000000  0.4348150000000 1.0
C      1  0.4513470000000  0.4864440000000  0.4396390000000 1.0
C      1  0.5766090000000  0.4864610000000  0.4880490000000 1.0
C      1  0.4720630000000  0.4864680000000  0.5723280000000 1.0
C      1  0.4862810000000  0.5398190000000  0.5395570000000 1.0
C      1  0.4726050000000  0.5397820000000  0.4683580000000 1.0
C      1  0.5411030000000  0.5398030000000  0.4921040000000 1.0
C      1  0.4618200000000  0.4587580000000  0.5515850000000 1.0
C      1  0.4744390000000  0.4587410000000  0.4411470000000 1.0
C      1  0.5637450000000  0.4587480000000  0.5072740000000 1.0
C      1  0.5469160000000  0.4919260000000  0.4861090000000 1.0
C      1  0.4885690000000  0.4919390000000  0.5475730000000 1.0
C      1  0.4645180000000  0.4919170000000  0.4663200000000 1.0
C      1  0.4534390000000  0.5196570000000  0.4368730000000 1.0
C      1  0.5779510000000  0.5196710000000  0.4912430000000 1.0
C      1  0.4686160000000  0.5196770000000  0.5718990000000 1.0
C      1  0.4858480000000  0.5292430000000  0.4367210000000 1.0
C      1  0.5618730000000  0.5292570000000  0.5193840000000 1.0
C      1  0.4522730000000  0.5292690000000  0.5439060000000 1.0
C      1  0.4920260000000  0.4760030000000  0.4236470000000 1.0
C      1  0.5701080000000  0.4760140000000  0.5312530000000 1.0
C      1  0.4378680000000  0.4760230000000  0.5451100000000 1.0
C      1  0.4969640000000  0.5365690000000  0.5693790000000 1.0
C      1  0.4414370000000  0.5365440000000  0.4626770000000 1.0
C      1  0.5615960000000  0.5365580000000  0.4679500000000 1.0
C      1  0.5213740000000  0.4367940000000  0.4761300000000 1.0
C      1  0.5099810000000  0.4368150000000  0.5304250000000 1.0
C      1  0.4686550000000  0.4368080000000  0.4934180000000 1.0
C      1  0.5202230000000  0.5646190000000  0.5056730000000 1.0
C      1  0.4849760000000  0.5646150000000  0.5146760000000 1.0
C      1  0.4947930000000  0.5646190000000  0.4796480000000 1.0
C      1  0.4802160000000  0.4747290000000  0.5071230000000 1.0
C      1  0.5037610000000  0.4747290000000  0.4793250000000 1.0
C      1  0.5160080000000  0.4747310000000  0.5135260000000 1.0
C      1  0.5388740000000  0.5305660000000  0.4481780000000 1.0
C      1  0.5254450000000  0.5305770000000  0.5595790000000 1.0
C      1  0.4356880000000  0.5305630000000  0.4922470000000 1.0
C      1  0.5111470000000  0.5254550000000  0.5176230000000 1.0
C      1  0.4791680000000  0.5254550000000  0.5008550000000 1.0
C      1  0.5096710000000  0.5254210000000  0.4815380000000 1.0
C      1  0.5311090000000  0.4453190000000  0.5049490000000 1.0
C      1  0.4801440000000  0.4453110000000  0.5244640000000 1.0
C      1  0.4887430000000  0.4453150000000  0.4705710000000 1.0
C      1  0.5311760000000  0.5023070000000  0.4413640000000 1.0
C      1  0.5351880000000  0.5023190000000  0.5563010000000 1.0
C      1  0.4336470000000  0.5023090000000  0.5023310000000 1.0
END
