TITL C-3985253-1688-958 4.3319209363932e-05 125000 -313.620922876508 0 0 60 (C2) n - 1
REM
REM in /home/nfs/bkarasulu/CARBON/AIRSS/Generating-Clusters/TERSOFF/Higher-Symm/Only-C60
REM
REM
REM
REM
REM
REM ./C.cell (28575a23ae977d3b5fae324c64b13b57)
REM
REM compiler GCC version 9.2.1 20190827 (Red Hat 9.2.1-1)
REM options -cpp -mtune=generic -march=x86-64 -g -O0 -fpre-include=/usr/include/finclude/math-vector-fortran.h
REM seed 1049000720 -143042236 934825555 1637311469 1293327260 -395542552 -770282628 162363111 327481147 1618792645 -1321738006 749574587 622971822 -1924585548 1792941253 179045622 -368494994 1090559884 -477666500 -656745695 1771932009 -1656111837 416660020 1913367424 -1004011248 -13487933 383705454 -1178483983 -1813185186 871698599 -1849618460 -768286956 160110182
REM
CELL 1.54180   50.00000   50.00000   50.00000   90.00000   90.00000   90.00000
LATT -1
SFAC C  
C      1  0.4555070000000  0.4525070000000  0.4480980000000 1.0
C      1  0.5445050000000  0.5474790000000  0.4480960000000 1.0
C      1  0.4515640000000  0.5395770000000  0.4441330000000 1.0
C      1  0.5484490000000  0.4604080000000  0.4441550000000 1.0
C      1  0.5562570000000  0.4549330000000  0.5228430000000 1.0
C      1  0.4437360000000  0.5450730000000  0.5228170000000 1.0
C      1  0.5684500000000  0.5338990000000  0.5212110000000 1.0
C      1  0.4315460000000  0.4661060000000  0.5212040000000 1.0
C      1  0.5183340000000  0.4674570000000  0.4440140000000 1.0
C      1  0.4816790000000  0.5325280000000  0.4440000000000 1.0
C      1  0.5178380000000  0.5327000000000  0.4452270000000 1.0
C      1  0.4821740000000  0.4672860000000  0.4452320000000 1.0
C      1  0.5123840000000  0.4248330000000  0.4765110000000 1.0
C      1  0.4876220000000  0.5751620000000  0.4764880000000 1.0
C      1  0.5161260000000  0.5737390000000  0.4787150000000 1.0
C      1  0.4838790000000  0.4262550000000  0.4787300000000 1.0
C      1  0.4845930000000  0.4843130000000  0.4717220000000 1.0
C      1  0.5154140000000  0.5156800000000  0.4717220000000 1.0
C      1  0.4848430000000  0.5162280000000  0.4712600000000 1.0
C      1  0.5151630000000  0.4837650000000  0.4712670000000 1.0
C      1  0.4792510000000  0.4868290000000  0.5231610000000 1.0
C      1  0.5207440000000  0.5131770000000  0.5231620000000 1.0
C      1  0.4866950000000  0.5172760000000  0.5214690000000 1.0
C      1  0.5133000000000  0.4827290000000  0.5214770000000 1.0
C      1  0.4825490000000  0.4492600000000  0.5555970000000 1.0
C      1  0.5174380000000  0.5507540000000  0.5555880000000 1.0
C      1  0.4851130000000  0.5480300000000  0.5554360000000 1.0
C      1  0.5148740000000  0.4519840000000  0.5554530000000 1.0
C      1  0.5659470000000  0.4647220000000  0.4680610000000 1.0
C      1  0.4340610000000  0.5352700000000  0.4680360000000 1.0
C      1  0.5641300000000  0.5410670000000  0.4699140000000 1.0
C      1  0.4358780000000  0.4589250000000  0.4699100000000 1.0
C      1  0.4356420000000  0.5176720000000  0.5338860000000 1.0
C      1  0.5643500000000  0.4823360000000  0.5339070000000 1.0
C      1  0.4478660000000  0.4904780000000  0.5277400000000 1.0
C      1  0.5521270000000  0.5095290000000  0.5277500000000 1.0
C      1  0.4398210000000  0.4457710000000  0.5000340000000 1.0
C      1  0.5601800000000  0.5542290000000  0.5000330000000 1.0
C      1  0.4381570000000  0.5559850000000  0.4911380000000 1.0
C      1  0.5618450000000  0.4440120000000  0.4911680000000 1.0
C      1  0.4856500000000  0.4821320000000  0.5555750000000 1.0
C      1  0.5143370000000  0.5178830000000  0.5555740000000 1.0
C      1  0.4789500000000  0.5169180000000  0.5562860000000 1.0
C      1  0.5210370000000  0.4830980000000  0.5562950000000 1.0
C      1  0.4730120000000  0.5284640000000  0.4965790000000 1.0
C      1  0.5269890000000  0.4715340000000  0.4965930000000 1.0
C      1  0.4718460000000  0.4727150000000  0.4968540000000 1.0
C      1  0.5281550000000  0.5272840000000  0.4968540000000 1.0
C      1  0.4708150000000  0.5602540000000  0.4946720000000 1.0
C      1  0.5291860000000  0.4397440000000  0.4946950000000 1.0
C      1  0.4718970000000  0.4411570000000  0.5010480000000 1.0
C      1  0.5281030000000  0.5588430000000  0.5010400000000 1.0
C      1  0.4461840000000  0.5149280000000  0.4876180000000 1.0
C      1  0.5538190000000  0.4850690000000  0.4876360000000 1.0
C      1  0.4449690000000  0.4850450000000  0.4862080000000 1.0
C      1  0.5550340000000  0.5149510000000  0.4862170000000 1.0
C      1  0.4887000000000  0.4361160000000  0.5267360000000 1.0
C      1  0.5112930000000  0.5638920000000  0.5267210000000 1.0
C      1  0.4752080000000  0.5619330000000  0.5282060000000 1.0
C      1  0.5247880000000  0.4380760000000  0.5282280000000 1.0
END
