TITL C-3985259-1859-14 -1.11384348531017e-06 125000 -303.029521673352 0 0 60 (Ci) n - 1
REM
REM in /home/nfs/bkarasulu/CARBON/AIRSS/Generating-Clusters/TERSOFF/Higher-Symm/Only-C60
REM
REM
REM
REM
REM
REM ./C.cell (28575a23ae977d3b5fae324c64b13b57)
REM
REM compiler GCC version 9.2.1 20190827 (Red Hat 9.2.1-1)
REM options -cpp -mtune=generic -march=x86-64 -g -O0 -fpre-include=/usr/include/finclude/math-vector-fortran.h
REM seed -540049130 -843594452 1382449680 84830001 -71143142 432706323 388736411 -2049401223 1529429813 2017733662 -14534639 588323282 1206779138 1645714065 1711433747 595337464 1354660111 -1801979962 717694606 40157890 1646435742 -646148862 -708381828 -9986987 -1233219297 -1708084021 1407266650 1022038497 -836695673 1723404435 1673901856 1716716563 -1328738865
REM
CELL 1.54180   50.00000   50.00000   50.00000   90.00000   90.00000   90.00000
LATT -1
SFAC C  
C      1  0.4995440000000  0.5104420000000  0.5125250000000 1.0
C      1  0.5004560000000  0.4895580000000  0.4874750000000 1.0
C      1  0.4812110000000  0.4907620000000  0.5284900000000 1.0
C      1  0.5187890000000  0.5092380000000  0.4715100000000 1.0
C      1  0.5741040000000  0.4984980000000  0.5031400000000 1.0
C      1  0.4258960000000  0.5015020000000  0.4968600000000 1.0
C      1  0.5560350000000  0.4982220000000  0.4527530000000 1.0
C      1  0.4439650000000  0.5017780000000  0.5472470000000 1.0
C      1  0.5246320000000  0.4750160000000  0.5609390000000 1.0
C      1  0.4753680000000  0.5249840000000  0.4390610000000 1.0
C      1  0.5273990000000  0.4880020000000  0.4477590000000 1.0
C      1  0.4726010000000  0.5119980000000  0.5522410000000 1.0
C      1  0.4444200000000  0.5432550000000  0.5104900000000 1.0
C      1  0.5555800000000  0.4567450000000  0.4895100000000 1.0
C      1  0.4847410000000  0.5712510000000  0.4564270000000 1.0
C      1  0.5152600000000  0.4287490000000  0.5435730000000 1.0
C      1  0.5298780000000  0.5088780000000  0.5267080000000 1.0
C      1  0.4701220000000  0.4911220000000  0.4732920000000 1.0
C      1  0.4634920000000  0.4475250000000  0.4790470000000 1.0
C      1  0.5365080000000  0.5524750000000  0.5209530000000 1.0
C      1  0.5434650000000  0.5120850000000  0.4950090000000 1.0
C      1  0.4565350000000  0.4879150000000  0.5049910000000 1.0
C      1  0.5286090000000  0.4390120000000  0.4849500000000 1.0
C      1  0.4713910000000  0.5609880000000  0.5150500000000 1.0
C      1  0.4298840000000  0.5157540000000  0.5252790000000 1.0
C      1  0.5701160000000  0.4842460000000  0.4747210000000 1.0
C      1  0.4686920000000  0.5210690000000  0.5025120000000 1.0
C      1  0.5313080000000  0.4789310000000  0.4974880000000 1.0
C      1  0.4998300000000  0.4656850000000  0.5218660000000 1.0
C      1  0.5001700000000  0.5343150000000  0.4781340000000 1.0
C      1  0.4866130000000  0.4990240000000  0.4286290000000 1.0
C      1  0.5133870000000  0.5009760000000  0.5713710000000 1.0
C      1  0.4346850000000  0.5285140000000  0.4792430000000 1.0
C      1  0.5653150000000  0.4714860000000  0.5207570000000 1.0
C      1  0.5238730000000  0.5336340000000  0.4316170000000 1.0
C      1  0.4761270000000  0.4663660000000  0.5683830000000 1.0
C      1  0.5168560000000  0.5236300000000  0.5509930000000 1.0
C      1  0.4831440000000  0.4763700000000  0.4490070000000 1.0
C      1  0.4843570000000  0.4960360000000  0.5755570000000 1.0
C      1  0.5156430000000  0.5039640000000  0.4244430000000 1.0
C      1  0.5123230000000  0.4586860000000  0.4594930000000 1.0
C      1  0.4876770000000  0.5413140000000  0.5405070000000 1.0
C      1  0.4508560000000  0.4703790000000  0.5490910000000 1.0
C      1  0.5491440000000  0.5296210000000  0.4509090000000 1.0
C      1  0.5111800000000  0.4269600000000  0.5104580000000 1.0
C      1  0.4888200000000  0.5730400000000  0.4895420000000 1.0
C      1  0.4384320000000  0.4513000000000  0.4953900000000 1.0
C      1  0.5615680000000  0.5487000000000  0.5046100000000 1.0
C      1  0.5331980000000  0.4762180000000  0.5311780000000 1.0
C      1  0.4668020000000  0.5237820000000  0.4688220000000 1.0
C      1  0.5804850000000  0.5273820000000  0.5112860000000 1.0
C      1  0.4195150000000  0.4726180000000  0.4887140000000 1.0
C      1  0.5458080000000  0.5438420000000  0.4779340000000 1.0
C      1  0.4541920000000  0.4561580000000  0.5220660000000 1.0
C      1  0.5052680000000  0.4522050000000  0.5615750000000 1.0
C      1  0.4947320000000  0.5477950000000  0.4384250000000 1.0
C      1  0.5088910000000  0.5424270000000  0.5129540000000 1.0
C      1  0.4911090000000  0.4575730000000  0.4870460000000 1.0
C      1  0.5198310000000  0.5615290000000  0.4773430000000 1.0
C      1  0.4801690000000  0.4384710000000  0.5226570000000 1.0
END
