TITL C-3985254-1270-1485 -2.86038429426469e-06 125000 -340.51660714627 0 0 60 (C2) n - 1
REM
REM in /home/nfs/bkarasulu/CARBON/AIRSS/Generating-Clusters/TERSOFF/Higher-Symm/Only-C60
REM
REM
REM
REM
REM
REM ./C.cell (28575a23ae977d3b5fae324c64b13b57)
REM
REM compiler GCC version 9.2.1 20190827 (Red Hat 9.2.1-1)
REM options -cpp -mtune=generic -march=x86-64 -g -O0 -fpre-include=/usr/include/finclude/math-vector-fortran.h
REM seed 1639574343 597824739 -1101247357 -675874853 1535839696 -552609231 764866487 1759437593 1933561796 -1498306569 510834096 -1824332247 766981458 1964430005 -33992743 2098493116 758967137 615677739 1441630285 -990865874 16730885 351484361 1445187013 -83170207 2105907159 2132839818 -1304920270 675811462 1007388381 1263179659 1678952217 -291209259 -1162512299
REM
CELL 1.54180   50.00000   50.00000   50.00000   90.00000   90.00000   90.00000
LATT -1
SFAC C  
C      1  0.4422720000000  0.4993060000000  0.5501350000000 1.0
C      1  0.5577280000000  0.4993060000000  0.4498650000000 1.0
C      1  0.5076380000000  0.5357200000000  0.4875890000000 1.0
C      1  0.4923620000000  0.5357200000000  0.5124110000000 1.0
C      1  0.5139480000000  0.5767970000000  0.4936420000000 1.0
C      1  0.4860520000000  0.5767970000000  0.5063580000000 1.0
C      1  0.5532400000000  0.5451030000000  0.5013890000000 1.0
C      1  0.4467600000000  0.5451030000000  0.4986110000000 1.0
C      1  0.5314760000000  0.4249210000000  0.5165410000000 1.0
C      1  0.4685240000000  0.4249210000000  0.4834590000000 1.0
C      1  0.4272130000000  0.5152690000000  0.5308520000000 1.0
C      1  0.5727870000000  0.5152690000000  0.4691480000000 1.0
C      1  0.5238640000000  0.5107810000000  0.4454930000000 1.0
C      1  0.4761360000000  0.5107810000000  0.5545070000000 1.0
C      1  0.5508040000000  0.4706780000000  0.4948330000000 1.0
C      1  0.4491960000000  0.4706780000000  0.5051670000000 1.0
C      1  0.4451090000000  0.5183370000000  0.4860430000000 1.0
C      1  0.5548910000000  0.5183370000000  0.5139570000000 1.0
C      1  0.4417170000000  0.5416650000000  0.5278480000000 1.0
C      1  0.5582830000000  0.5416650000000  0.4721520000000 1.0
C      1  0.4468990000000  0.5202260000000  0.4570120000000 1.0
C      1  0.5531010000000  0.5202260000000  0.5429880000000 1.0
C      1  0.5510400000000  0.4712850000000  0.4617310000000 1.0
C      1  0.4489600000000  0.4712850000000  0.5382690000000 1.0
C      1  0.4910520000000  0.5087130000000  0.4391640000000 1.0
C      1  0.5089480000000  0.5087130000000  0.5608360000000 1.0
C      1  0.4664260000000  0.5642250000000  0.4872000000000 1.0
C      1  0.5335740000000  0.5642250000000  0.5128000000000 1.0
C      1  0.4716920000000  0.5311100000000  0.4458820000000 1.0
C      1  0.5283080000000  0.5311100000000  0.5541180000000 1.0
C      1  0.5373870000000  0.4401740000000  0.4909790000000 1.0
C      1  0.4626130000000  0.4401740000000  0.5090210000000 1.0
C      1  0.4685120000000  0.4978140000000  0.4990330000000 1.0
C      1  0.5314880000000  0.4978140000000  0.5009670000000 1.0
C      1  0.4807100000000  0.5559830000000  0.4607270000000 1.0
C      1  0.5192900000000  0.5559830000000  0.5392730000000 1.0
C      1  0.5240730000000  0.4744740000000  0.4466570000000 1.0
C      1  0.4759270000000  0.4744740000000  0.5533430000000 1.0
C      1  0.5146580000000  0.5089470000000  0.4780490000000 1.0
C      1  0.4853420000000  0.5089470000000  0.5219510000000 1.0
C      1  0.5468610000000  0.4692950000000  0.5307090000000 1.0
C      1  0.4531390000000  0.4692950000000  0.4692910000000 1.0
C      1  0.5731090000000  0.4990210000000  0.4958170000000 1.0
C      1  0.4268910000000  0.4990220000000  0.5041830000000 1.0
C      1  0.4998630000000  0.4538190000000  0.5495640000000 1.0
C      1  0.5001370000000  0.4538190000000  0.4504360000000 1.0
C      1  0.4894070000000  0.5595870000000  0.5323250000000 1.0
C      1  0.5105930000000  0.5595870000000  0.4676750000000 1.0
C      1  0.4890900000000  0.4933760000000  0.4782020000000 1.0
C      1  0.5109100000000  0.4933760000000  0.5217980000000 1.0
C      1  0.5041670000000  0.4138980000000  0.5144340000000 1.0
C      1  0.4958330000000  0.4138980000000  0.4855660000000 1.0
C      1  0.4673520000000  0.4426960000000  0.4604230000000 1.0
C      1  0.5326480000000  0.4426960000000  0.5395770000000 1.0
C      1  0.5146270000000  0.4329580000000  0.4708980000000 1.0
C      1  0.4853730000000  0.4329580000000  0.5291020000000 1.0
C      1  0.4665090000000  0.5422860000000  0.5448430000000 1.0
C      1  0.5334910000000  0.5422860000000  0.4551570000000 1.0
C      1  0.4808180000000  0.4815340000000  0.4523600000000 1.0
C      1  0.5191820000000  0.4815340000000  0.5476400000000 1.0
END
