TITL C-3985254-1270-1094 -0.00121118552317483 125000 -314.122603448472 0 0 60 (D2) n - 1
REM
REM in /home/nfs/bkarasulu/CARBON/AIRSS/Generating-Clusters/TERSOFF/Higher-Symm/Only-C60
REM
REM
REM
REM
REM
REM ./C.cell (28575a23ae977d3b5fae324c64b13b57)
REM
REM compiler GCC version 9.2.1 20190827 (Red Hat 9.2.1-1)
REM options -cpp -mtune=generic -march=x86-64 -g -O0 -fpre-include=/usr/include/finclude/math-vector-fortran.h
REM seed -45192397 1705491357 -1136178749 -974377763 97895052 -1483993929 1165054156 -1813536339 -2105839200 -2000582055 -2021198963 -234615119 755445094 995652532 2085339162 862964738 -1575369389 -345693020 -1117308871 -159187300 -243383430 -120321504 981930799 1668265070 1384478540 -1702024188 -1810593100 542482593 1154728594 1620921776 -638909613 1429328107 1745450798
REM
CELL 1.54180   50.00000   50.00000   50.00000   90.00000   90.00000   90.00000
LATT -1
SFAC C  
C      1  0.4761860000000  0.4863010000000  0.4949070000000 1.0
C      1  0.5238140000000  0.5136990000000  0.4949070000000 1.0
C      1  0.5238140000000  0.4863010000000  0.5050930000000 1.0
C      1  0.4761860000000  0.5136990000000  0.5050930000000 1.0
C      1  0.5312610000000  0.4482280000000  0.4470590000000 1.0
C      1  0.4687390000000  0.5517720000000  0.4470590000000 1.0
C      1  0.4687390000000  0.4482280000000  0.5529410000000 1.0
C      1  0.5312610000000  0.5517720000000  0.5529410000000 1.0
C      1  0.4794900000000  0.4383800000000  0.5235770000000 1.0
C      1  0.5205100000000  0.5616200000000  0.5235770000000 1.0
C      1  0.5205100000000  0.4383800000000  0.4764230000000 1.0
C      1  0.4794900000000  0.5616200000000  0.4764230000000 1.0
C      1  0.5057550000000  0.4641670000000  0.4363830000000 1.0
C      1  0.4942450000000  0.5358330000000  0.4363830000000 1.0
C      1  0.4942450000000  0.4641670000000  0.5636170000000 1.0
C      1  0.5057550000000  0.5358330000000  0.5636170000000 1.0
C      1  0.4702000000000  0.5685910000000  0.5069340000000 1.0
C      1  0.5298000000000  0.4314090000000  0.5069340000000 1.0
C      1  0.5298000000000  0.5685920000000  0.4930660000000 1.0
C      1  0.4702000000000  0.4314080000000  0.4930660000000 1.0
C      1  0.4826510000000  0.4576720000000  0.4529310000000 1.0
C      1  0.5173490000000  0.5423280000000  0.4529310000000 1.0
C      1  0.5173490000000  0.4576720000000  0.5470690000000 1.0
C      1  0.4826510000000  0.5423280000000  0.5470690000000 1.0
C      1  0.4556300000000  0.4766640000000  0.5533280000000 1.0
C      1  0.5443700000000  0.5233360000000  0.5533280000000 1.0
C      1  0.5443700000000  0.4766640000000  0.4466720000000 1.0
C      1  0.4556300000000  0.5233360000000  0.4466720000000 1.0
C      1  0.4606390000000  0.4674210000000  0.5123780000000 1.0
C      1  0.5393610000000  0.5325790000000  0.5123780000000 1.0
C      1  0.5393610000000  0.4674200000000  0.4876230000000 1.0
C      1  0.4606390000000  0.5325800000000  0.4876230000000 1.0
C      1  0.4823240000000  0.4959070000000  0.5580830000000 1.0
C      1  0.5176760000000  0.5040930000000  0.5580830000000 1.0
C      1  0.5176760000000  0.4959070000000  0.4419170000000 1.0
C      1  0.4823240000000  0.5040930000000  0.4419170000000 1.0
C      1  0.4439780000000  0.4504190000000  0.4900340000000 1.0
C      1  0.5560220000000  0.5495810000000  0.4900340000000 1.0
C      1  0.5560220000000  0.4504190000000  0.5099660000000 1.0
C      1  0.4439780000000  0.5495810000000  0.5099660000000 1.0
C      1  0.5624280000000  0.4788570000000  0.5287000000000 1.0
C      1  0.4375720000000  0.5211430000000  0.5287000000000 1.0
C      1  0.4375720000000  0.4788570000000  0.4713000000000 1.0
C      1  0.5624280000000  0.5211430000000  0.4713000000000 1.0
C      1  0.4899400000000  0.4373080000000  0.4722540000000 1.0
C      1  0.5100600000000  0.5626920000000  0.4722540000000 1.0
C      1  0.5100600000000  0.4373080000000  0.5277460000000 1.0
C      1  0.4899400000000  0.5626920000000  0.5277460000000 1.0
C      1  0.4701270000000  0.5178190000000  0.5358590000000 1.0
C      1  0.5298730000000  0.4821810000000  0.5358590000000 1.0
C      1  0.5298730000000  0.5178190000000  0.4641410000000 1.0
C      1  0.4701270000000  0.4821810000000  0.4641410000000 1.0
C      1  0.5616540000000  0.5151310000000  0.5293030000000 1.0
C      1  0.4383460000000  0.4848690000000  0.5293030000000 1.0
C      1  0.4383460000000  0.5151310000000  0.4706970000000 1.0
C      1  0.5616540000000  0.4848690000000  0.4706970000000 1.0
C      1  0.5789280000000  0.4845280000000  0.4991240000000 1.0
C      1  0.4210720000000  0.5154720000000  0.4991240000000 1.0
C      1  0.4210720000000  0.4845280000000  0.5008760000000 1.0
C      1  0.5789280000000  0.5154720000000  0.5008760000000 1.0
END
