TITL C-3985259-1859-907 0.000762245932313241 125000 -290.75400224216 0 0 60 (C4) n - 1
REM
REM in /home/nfs/bkarasulu/CARBON/AIRSS/Generating-Clusters/TERSOFF/Higher-Symm/Only-C60
REM
REM
REM
REM
REM
REM ./C.cell (28575a23ae977d3b5fae324c64b13b57)
REM
REM compiler GCC version 9.2.1 20190827 (Red Hat 9.2.1-1)
REM options -cpp -mtune=generic -march=x86-64 -g -O0 -fpre-include=/usr/include/finclude/math-vector-fortran.h
REM seed 707091773 -1166811767 -1719274554 257672644 -1644092550 1691690862 -228768756 -654005525 776156010 -1314334683 1379686989 -1667064056 1544651600 1784888769 -1546051013 1264765454 1998947758 1913139522 1856976649 1893596038 -1282771621 -879097594 -1394091087 -453856282 1266703920 1555567857 -271406997 812694140 -452684214 -1973600080 -1149947842 -1599703540 2068399941
REM
CELL 1.54180   50.00000   50.00000   50.00000   90.00000   90.00000   90.00000
LATT -1
SFAC C  
C      1  0.5333860000000  0.4432550000000  0.4649850000000 1.0
C      1  0.5350160000000  0.4432560000000  0.5333850000000 1.0
C      1  0.4666150000000  0.4432570000000  0.5350160000000 1.0
C      1  0.4649840000000  0.4432560000000  0.4666150000000 1.0
C      1  0.4656370000000  0.5554770000000  0.4644940000000 1.0
C      1  0.4644930000000  0.5554750000000  0.5343630000000 1.0
C      1  0.5343630000000  0.5554760000000  0.5355070000000 1.0
C      1  0.5355070000000  0.5554740000000  0.4656360000000 1.0
C      1  0.4849730000000  0.5064850000000  0.5332750000000 1.0
C      1  0.4667220000000  0.5064830000000  0.4849700000000 1.0
C      1  0.5150270000000  0.5064860000000  0.4667250000000 1.0
C      1  0.5332770000000  0.5064840000000  0.5150290000000 1.0
C      1  0.5137280000000  0.4935090000000  0.5348510000000 1.0
C      1  0.5348490000000  0.4935090000000  0.4862720000000 1.0
C      1  0.4862720000000  0.4935080000000  0.4651480000000 1.0
C      1  0.4651520000000  0.4935090000000  0.5137270000000 1.0
C      1  0.5009210000000  0.4425690000000  0.5405000000000 1.0
C      1  0.4595010000000  0.4425700000000  0.5009210000000 1.0
C      1  0.4990800000000  0.4425680000000  0.4595000000000 1.0
C      1  0.5404990000000  0.4425690000000  0.4990790000000 1.0
C      1  0.4991170000000  0.5567490000000  0.5410870000000 1.0
C      1  0.5410890000000  0.5567490000000  0.5008820000000 1.0
C      1  0.5008820000000  0.5567500000000  0.4589140000000 1.0
C      1  0.4589110000000  0.5567490000000  0.4991180000000 1.0
C      1  0.5495180000000  0.4634660000000  0.5535320000000 1.0
C      1  0.4464670000000  0.4634640000000  0.5495180000000 1.0
C      1  0.4504840000000  0.4634620000000  0.4464690000000 1.0
C      1  0.5535330000000  0.4634670000000  0.4504830000000 1.0
C      1  0.4503020000000  0.5349750000000  0.5545710000000 1.0
C      1  0.5545700000000  0.5349770000000  0.5496970000000 1.0
C      1  0.5496960000000  0.5349800000000  0.4454290000000 1.0
C      1  0.4454310000000  0.5349740000000  0.4503020000000 1.0
C      1  0.4315370000000  0.4958900000000  0.5151080000000 1.0
C      1  0.4848970000000  0.4958890000000  0.4315240000000 1.0
C      1  0.5684630000000  0.4958900000000  0.4848870000000 1.0
C      1  0.5151070000000  0.4958890000000  0.5684710000000 1.0
C      1  0.5645610000000  0.5035860000000  0.5144820000000 1.0
C      1  0.5144760000000  0.5035910000000  0.4354430000000 1.0
C      1  0.4354380000000  0.5035840000000  0.4855140000000 1.0
C      1  0.4855250000000  0.5035900000000  0.5645580000000 1.0
C      1  0.4778980000000  0.4677680000000  0.5029420000000 1.0
C      1  0.4970580000000  0.4677680000000  0.4778960000000 1.0
C      1  0.5221020000000  0.4677680000000  0.4970570000000 1.0
C      1  0.5029430000000  0.4677680000000  0.5221040000000 1.0
C      1  0.5219080000000  0.5322750000000  0.5029000000000 1.0
C      1  0.5028990000000  0.5322760000000  0.4780950000000 1.0
C      1  0.4780920000000  0.5322740000000  0.4971000000000 1.0
C      1  0.4971000000000  0.5322750000000  0.5219060000000 1.0
C      1  0.5306440000000  0.4721660000000  0.5763370000000 1.0
C      1  0.4236600000000  0.4721650000000  0.5306400000000 1.0
C      1  0.4693530000000  0.4721680000000  0.4236660000000 1.0
C      1  0.5763380000000  0.4721660000000  0.4693580000000 1.0
C      1  0.4697360000000  0.5249500000000  0.5767760000000 1.0
C      1  0.5767760000000  0.5249510000000  0.5302650000000 1.0
C      1  0.5302710000000  0.5249430000000  0.4232310000000 1.0
C      1  0.4232240000000  0.5249520000000  0.4697350000000 1.0
C      1  0.4450430000000  0.4992260000000  0.5545950000000 1.0
C      1  0.5549460000000  0.4992220000000  0.4454070000000 1.0
C      1  0.5545880000000  0.4992200000000  0.5549550000000 1.0
C      1  0.4454140000000  0.4992260000000  0.4450450000000 1.0
END
