TITL C-3985245-9316-132 -0.000427851163366754 125000 -334.44677710623 0 0 60 (C3) n - 1
REM
REM in /home/nfs/bkarasulu/CARBON/AIRSS/Generating-Clusters/TERSOFF/Higher-Symm/Only-C60
REM
REM
REM
REM
REM
REM ./C.cell (28575a23ae977d3b5fae324c64b13b57)
REM
REM compiler GCC version 9.2.1 20190827 (Red Hat 9.2.1-1)
REM options -cpp -mtune=generic -march=x86-64 -g -O0 -fpre-include=/usr/include/finclude/math-vector-fortran.h
REM seed -596530996 -489002336 -624949321 972268757 -130992348 -363488366 -1813534538 964461922 -873169355 1487929561 131026484 674224485 1701487322 -181287114 -1788146762 1789412736 -2003038439 -755501867 -2016013730 -703371236 860580584 2080889245 435162021 -1428845075 -1768739580 -258288649 -2146177036 -918460693 1937389247 1752761575 -1457980446 593259715 -1044209152
REM
CELL 1.54180   50.00000   50.00000   50.00000   90.00000   90.00000   90.00000
LATT -1
SFAC C  
C      1  0.5147330000000  0.5127410000000  0.4474340000000 1.0
C      1  0.5147390000000  0.5391530000000  0.5373170000000 1.0
C      1  0.5147270000000  0.4481100000000  0.5152460000000 1.0
C      1  0.4773190000000  0.4598140000000  0.4615930000000 1.0
C      1  0.4773170000000  0.5533560000000  0.4844030000000 1.0
C      1  0.4773170000000  0.4868290000000  0.5540050000000 1.0
C      1  0.4725730000000  0.5126130000000  0.4462600000000 1.0
C      1  0.4725720000000  0.5402330000000  0.5377940000000 1.0
C      1  0.4725730000000  0.4471550000000  0.5159450000000 1.0
C      1  0.4755760000000  0.4275650000000  0.4936790000000 1.0
C      1  0.4755730000000  0.5416940000000  0.4404290000000 1.0
C      1  0.4755740000000  0.5307420000000  0.5658940000000 1.0
C      1  0.4945900000000  0.5227740000000  0.5208410000000 1.0
C      1  0.4945900000000  0.4705670000000  0.5093050000000 1.0
C      1  0.4945930000000  0.5066570000000  0.4698600000000 1.0
C      1  0.5474530000000  0.5045140000000  0.5432850000000 1.0
C      1  0.5474530000000  0.4602540000000  0.4822660000000 1.0
C      1  0.5474490000000  0.5352380000000  0.4744380000000 1.0
C      1  0.4477880000000  0.4631330000000  0.5176330000000 1.0
C      1  0.4477850000000  0.5031630000000  0.4592510000000 1.0
C      1  0.4477860000000  0.5337070000000  0.5231110000000 1.0
C      1  0.4977550000000  0.4315010000000  0.4720180000000 1.0
C      1  0.4977500000000  0.5584870000000  0.4546720000000 1.0
C      1  0.4977500000000  0.5100100000000  0.5733140000000 1.0
C      1  0.5263650000000  0.4922100000000  0.4304050000000 1.0
C      1  0.5263680000000  0.5641700000000  0.5280550000000 1.0
C      1  0.5263580000000  0.4436260000000  0.5415440000000 1.0
C      1  0.5223700000000  0.4690610000000  0.4652250000000 1.0
C      1  0.5223700000000  0.5455830000000  0.4905950000000 1.0
C      1  0.5223740000000  0.4853520000000  0.5441740000000 1.0
C      1  0.4795170000000  0.5682800000000  0.5317560000000 1.0
C      1  0.4795170000000  0.4383580000000  0.5432530000000 1.0
C      1  0.4795150000000  0.4933610000000  0.4249870000000 1.0
C      1  0.4493120000000  0.5402920000000  0.4938860000000 1.0
C      1  0.4493130000000  0.4851490000000  0.5379470000000 1.0
C      1  0.4493120000000  0.4745610000000  0.4681640000000 1.0
C      1  0.4347320000000  0.5096490000000  0.5322830000000 1.0
C      1  0.4347320000000  0.4672180000000  0.4922140000000 1.0
C      1  0.4347300000000  0.5231370000000  0.4755000000000 1.0
C      1  0.5548050000000  0.4605300000000  0.5131310000000 1.0
C      1  0.5547940000000  0.5083600000000  0.4592530000000 1.0
C      1  0.5547970000000  0.5311050000000  0.5276100000000 1.0
C      1  0.5196160000000  0.4615020000000  0.5663320000000 1.0
C      1  0.5196230000000  0.4618110000000  0.4334980000000 1.0
C      1  0.5196170000000  0.5766870000000  0.5001820000000 1.0
C      1  0.4883490000000  0.4671740000000  0.4335960000000 1.0
C      1  0.4883430000000  0.5739230000000  0.5047770000000 1.0
C      1  0.4883470000000  0.4589080000000  0.5616320000000 1.0
C      1  0.4968020000000  0.4777490000000  0.4793200000000 1.0
C      1  0.4968010000000  0.5290320000000  0.4910750000000 1.0
C      1  0.4968020000000  0.4932140000000  0.5296100000000 1.0
C      1  0.5242920000000  0.4355380000000  0.4903890000000 1.0
C      1  0.5242900000000  0.5405550000000  0.4489810000000 1.0
C      1  0.5242920000000  0.5239050000000  0.5606260000000 1.0
C      1  0.5108990000000  0.5818870000000  0.4702480000000 1.0
C      1  0.5108980000000  0.4848220000000  0.5857930000000 1.0
C      1  0.5108980000000  0.4332950000000  0.4439640000000 1.0
C      1  0.5651700000000  0.5324400000000  0.5001260000000 1.0
C      1  0.5651760000000  0.4836550000000  0.5280350000000 1.0
C      1  0.5651680000000  0.4838940000000  0.4718430000000 1.0
END
