TITL C-3985250-725-1189 0.000237335122150246 125000 -299.064763598428 0 0 60 (C3) n - 1
REM
REM in /home/nfs/bkarasulu/CARBON/AIRSS/Generating-Clusters/TERSOFF/Higher-Symm/Only-C60
REM
REM
REM
REM
REM
REM ./C.cell (28575a23ae977d3b5fae324c64b13b57)
REM
REM compiler GCC version 9.2.1 20190827 (Red Hat 9.2.1-1)
REM options -cpp -mtune=generic -march=x86-64 -g -O0 -fpre-include=/usr/include/finclude/math-vector-fortran.h
REM seed 1939533272 728541021 -2031109021 1239680746 1713906140 -205168930 169617806 537579385 -1530716136 370541419 -2118116536 1450347937 236205953 990972687 2004660976 -1195895260 -1927820103 -1342691630 -1313990204 -1198273842 983575217 2051956770 348359783 -1446823625 816712216 1299981747 -1414879883 -387993134 1556269783 577188616 999479968 -821836103 1672595190
REM
CELL 1.54180   50.00000   50.00000   50.00000   90.00000   90.00000   90.00000
LATT -1
SFAC C  
C      1  0.4650940000000  0.4677390000000  0.5020760000000 1.0
C      1  0.4651000000000  0.5143380000000  0.4710260000000 1.0
C      1  0.4650940000000  0.5179270000000  0.5269030000000 1.0
C      1  0.4416740000000  0.4803270000000  0.4563160000000 1.0
C      1  0.4416740000000  0.5476690000000  0.5048060000000 1.0
C      1  0.4416740000000  0.4720040000000  0.5388790000000 1.0
C      1  0.4770290000000  0.4395350000000  0.4583010000000 1.0
C      1  0.4770300000000  0.5663460000000  0.4684840000000 1.0
C      1  0.4770290000000  0.4941190000000  0.5732140000000 1.0
C      1  0.5344350000000  0.5512950000000  0.4796600000000 1.0
C      1  0.5344340000000  0.4919660000000  0.5545920000000 1.0
C      1  0.5344340000000  0.4567380000000  0.4657470000000 1.0
C      1  0.5073130000000  0.5385090000000  0.4761410000000 1.0
C      1  0.5073120000000  0.5014080000000  0.5452790000000 1.0
C      1  0.5073120000000  0.4600840000000  0.4785790000000 1.0
C      1  0.5443920000000  0.4767540000000  0.5296560000000 1.0
C      1  0.5443920000000  0.4859400000000  0.4650400000000 1.0
C      1  0.5443940000000  0.5373080000000  0.5053020000000 1.0
C      1  0.4407400000000  0.4447600000000  0.5274170000000 1.0
C      1  0.4407440000000  0.5038740000000  0.4384520000000 1.0
C      1  0.4407420000000  0.5513650000000  0.5341310000000 1.0
C      1  0.4594390000000  0.4372320000000  0.5038050000000 1.0
C      1  0.4594420000000  0.5280870000000  0.4437410000000 1.0
C      1  0.4594390000000  0.5346790000000  0.5524570000000 1.0
C      1  0.4691490000000  0.4698680000000  0.4603730000000 1.0
C      1  0.4691500000000  0.5493840000000  0.4937170000000 1.0
C      1  0.4691490000000  0.4807460000000  0.5459090000000 1.0
C      1  0.4950000000000  0.4803390000000  0.4241760000000 1.0
C      1  0.4950080000000  0.5754980000000  0.5208810000000 1.0
C      1  0.4950060000000  0.4441660000000  0.5549420000000 1.0
C      1  0.4955410000000  0.4511260000000  0.4336330000000 1.0
C      1  0.4955470000000  0.5819080000000  0.4908520000000 1.0
C      1  0.4955450000000  0.4669650000000  0.5755100000000 1.0
C      1  0.4907720000000  0.5302320000000  0.5071560000000 1.0
C      1  0.4907720000000  0.4786870000000  0.5226030000000 1.0
C      1  0.4907720000000  0.4910820000000  0.4702420000000 1.0
C      1  0.5364680000000  0.4477930000000  0.5260370000000 1.0
C      1  0.5364660000000  0.5035540000000  0.4417680000000 1.0
C      1  0.5364650000000  0.5486500000000  0.5321940000000 1.0
C      1  0.4411460000000  0.5181320000000  0.4922600000000 1.0
C      1  0.4411400000000  0.4976380000000  0.5195750000000 1.0
C      1  0.4411390000000  0.4842290000000  0.4881680000000 1.0
C      1  0.5050390000000  0.4465460000000  0.5241670000000 1.0
C      1  0.5050380000000  0.5057980000000  0.4416250000000 1.0
C      1  0.5050370000000  0.5476540000000  0.5342080000000 1.0
C      1  0.4908210000000  0.4360380000000  0.4922630000000 1.0
C      1  0.4908200000000  0.5386810000000  0.4484760000000 1.0
C      1  0.4908200000000  0.5252800000000  0.5592630000000 1.0
C      1  0.5595920000000  0.5095530000000  0.5510360000000 1.0
C      1  0.5595940000000  0.4510260000000  0.4827560000000 1.0
C      1  0.5595930000000  0.5394210000000  0.4662070000000 1.0
C      1  0.5216110000000  0.5169170000000  0.5090240000000 1.0
C      1  0.5216100000000  0.4837280000000  0.5101380000000 1.0
C      1  0.5216110000000  0.4993570000000  0.4808390000000 1.0
C      1  0.5711080000000  0.5202870000000  0.4944370000000 1.0
C      1  0.5711070000000  0.4946740000000  0.5203500000000 1.0
C      1  0.5711080000000  0.4850390000000  0.4852120000000 1.0
C      1  0.5536300000000  0.5378090000000  0.5526060000000 1.0
C      1  0.5536350000000  0.4355370000000  0.5064420000000 1.0
C      1  0.5536330000000  0.5266520000000  0.4409510000000 1.0
END
