TITL C-3985256-5419-88 2.56830088439012e-07 125000 -311.423139520877 0 0 60 (D2) n - 1
REM
REM in /home/nfs/bkarasulu/CARBON/AIRSS/Generating-Clusters/TERSOFF/Higher-Symm/Only-C60
REM
REM
REM
REM
REM
REM ./C.cell (28575a23ae977d3b5fae324c64b13b57)
REM
REM compiler GCC version 9.2.1 20190827 (Red Hat 9.2.1-1)
REM options -cpp -mtune=generic -march=x86-64 -g -O0 -fpre-include=/usr/include/finclude/math-vector-fortran.h
REM seed -961775019 1559722424 -834224863 -273400182 529158492 -1630686177 -881620231 940255945 156039675 543826083 -94486248 -1978467482 -419116108 669813040 -480986930 876759141 191125778 543553360 1545567511 -1429681499 535275206 -1166763056 -2139742009 1039340932 1455168882 -341058350 -1917590065 397312578 34077358 1089663174 2114778341 -728651101 -282886128
REM
CELL 1.54180   50.00000   50.00000   50.00000   90.00000   90.00000   90.00000
LATT -1
SFAC C  
C      1  0.4710020000000  0.5626230000000  0.5072820000000 1.0
C      1  0.5289980000000  0.5626230000000  0.4927180000000 1.0
C      1  0.4710020000000  0.4373770000000  0.4927180000000 1.0
C      1  0.5289980000000  0.4373770000000  0.5072820000000 1.0
C      1  0.5140140000000  0.4739180000000  0.4438540000000 1.0
C      1  0.4859860000000  0.4739180000000  0.5561460000000 1.0
C      1  0.5140140000000  0.5260820000000  0.5561460000000 1.0
C      1  0.4859860000000  0.5260820000000  0.4438540000000 1.0
C      1  0.5056750000000  0.5201540000000  0.5844910000000 1.0
C      1  0.4943250000000  0.5201540000000  0.4155090000000 1.0
C      1  0.5056750000000  0.4798460000000  0.4155090000000 1.0
C      1  0.4943250000000  0.4798460000000  0.5844910000000 1.0
C      1  0.4422660000000  0.5128380000000  0.4703530000000 1.0
C      1  0.5577340000000  0.5128380000000  0.5296470000000 1.0
C      1  0.4422660000000  0.4871620000000  0.5296470000000 1.0
C      1  0.5577340000000  0.4871620000000  0.4703530000000 1.0
C      1  0.4429440000000  0.5179350000000  0.5405590000000 1.0
C      1  0.5570560000000  0.5179350000000  0.4594410000000 1.0
C      1  0.4429440000000  0.4820650000000  0.4594410000000 1.0
C      1  0.5570560000000  0.4820650000000  0.5405590000000 1.0
C      1  0.5425090000000  0.5600850000000  0.5411880000000 1.0
C      1  0.4574910000000  0.5600850000000  0.4588120000000 1.0
C      1  0.5425090000000  0.4399150000000  0.4588120000000 1.0
C      1  0.4574910000000  0.4399150000000  0.5411880000000 1.0
C      1  0.4629400000000  0.5130210000000  0.4928480000000 1.0
C      1  0.5370600000000  0.5130210000000  0.5071520000000 1.0
C      1  0.4629400000000  0.4869790000000  0.5071520000000 1.0
C      1  0.5370600000000  0.4869790000000  0.4928480000000 1.0
C      1  0.5466450000000  0.4996580000000  0.5679010000000 1.0
C      1  0.4533550000000  0.4996580000000  0.4320990000000 1.0
C      1  0.5466450000000  0.5003420000000  0.4320990000000 1.0
C      1  0.4533550000000  0.5003420000000  0.5679010000000 1.0
C      1  0.5468430000000  0.5318750000000  0.5530940000000 1.0
C      1  0.4531570000000  0.5318750000000  0.4469060000000 1.0
C      1  0.5468430000000  0.4681250000000  0.4469060000000 1.0
C      1  0.4531570000000  0.4681250000000  0.5530940000000 1.0
C      1  0.4779370000000  0.4339030000000  0.5209680000000 1.0
C      1  0.5220630000000  0.4339030000000  0.4790320000000 1.0
C      1  0.4779370000000  0.5660970000000  0.4790320000000 1.0
C      1  0.5220630000000  0.5660970000000  0.5209680000000 1.0
C      1  0.5135370000000  0.5316980000000  0.4607160000000 1.0
C      1  0.4864630000000  0.5316980000000  0.5392840000000 1.0
C      1  0.5135370000000  0.4683020000000  0.5392840000000 1.0
C      1  0.4864630000000  0.4683020000000  0.4607160000000 1.0
C      1  0.4837440000000  0.4966100000000  0.5308860000000 1.0
C      1  0.5162560000000  0.4966100000000  0.4691140000000 1.0
C      1  0.4837440000000  0.5033900000000  0.4691140000000 1.0
C      1  0.5162560000000  0.5033900000000  0.5308860000000 1.0
C      1  0.5060440000000  0.4395970000000  0.5277630000000 1.0
C      1  0.4939560000000  0.4395970000000  0.4722370000000 1.0
C      1  0.5060440000000  0.5604030000000  0.4722370000000 1.0
C      1  0.4939560000000  0.5604030000000  0.5277630000000 1.0
C      1  0.4608810000000  0.5332230000000  0.5165050000000 1.0
C      1  0.5391190000000  0.5332230000000  0.4834950000000 1.0
C      1  0.4608810000000  0.4667770000000  0.4834950000000 1.0
C      1  0.5391190000000  0.4667770000000  0.5165050000000 1.0
C      1  0.4758700000000  0.4936860000000  0.4119700000000 1.0
C      1  0.5241300000000  0.4936860000000  0.5880300000000 1.0
C      1  0.4758700000000  0.5063140000000  0.5880300000000 1.0
C      1  0.5241300000000  0.5063140000000  0.4119700000000 1.0
END
