TITL C-3985245-9316-599 -1.09515760639211e-07 125000 -334.816231606928 0 0 60 (C4) n - 1
REM
REM in /home/nfs/bkarasulu/CARBON/AIRSS/Generating-Clusters/TERSOFF/Higher-Symm/Only-C60
REM
REM
REM
REM
REM
REM ./C.cell (28575a23ae977d3b5fae324c64b13b57)
REM
REM compiler GCC version 9.2.1 20190827 (Red Hat 9.2.1-1)
REM options -cpp -mtune=generic -march=x86-64 -g -O0 -fpre-include=/usr/include/finclude/math-vector-fortran.h
REM seed 688958804 2059014873 -312828094 -1046671827 -1661067359 -1431172460 1526702486 312208679 968140829 -391582200 544873310 560463226 455827643 600980245 -1919608113 -761308388 -1125818741 -1409547026 -288464930 -1168591572 335908944 -640789530 1860641918 -791010234 -6366475 -61939263 -1089007015 1264968033 723558417 1113806283 2084230701 -264774845 835357155
REM
CELL 1.54180   50.00000   50.00000   50.00000   90.00000   90.00000   90.00000
LATT -1
SFAC C  
C      1  0.5345750000000  0.5705740000000  0.4993130000000 1.0
C      1  0.4294260000000  0.5345750000000  0.4993130000000 1.0
C      1  0.4654250000000  0.4294260000000  0.4993130000000 1.0
C      1  0.5705740000000  0.4654250000000  0.4993130000000 1.0
C      1  0.5178560000000  0.5368490000000  0.5401640000000 1.0
C      1  0.4631510000000  0.5178560000000  0.5401640000000 1.0
C      1  0.4821440000000  0.4631510000000  0.5401640000000 1.0
C      1  0.5368490000000  0.4821440000000  0.5401640000000 1.0
C      1  0.4905690000000  0.4802910000000  0.5620150000000 1.0
C      1  0.5197090000000  0.4905690000000  0.5620150000000 1.0
C      1  0.5094310000000  0.5197090000000  0.5620150000000 1.0
C      1  0.4802910000000  0.5094310000000  0.5620150000000 1.0
C      1  0.5369430000000  0.5001390000000  0.4490660000000 1.0
C      1  0.4998610000000  0.5369430000000  0.4490660000000 1.0
C      1  0.4630570000000  0.4998610000000  0.4490660000000 1.0
C      1  0.5001390000000  0.4630570000000  0.4490660000000 1.0
C      1  0.4571210000000  0.5649310000000  0.4856750000000 1.0
C      1  0.4350690000000  0.4571210000000  0.4856750000000 1.0
C      1  0.5428790000000  0.4350690000000  0.4856750000000 1.0
C      1  0.5649310000000  0.5428790000000  0.4856750000000 1.0
C      1  0.4735870000000  0.4746990000000  0.4613480000000 1.0
C      1  0.5253010000000  0.4735870000000  0.4613480000000 1.0
C      1  0.5264130000000  0.5253010000000  0.4613480000000 1.0
C      1  0.4746990000000  0.5264130000000  0.4613480000000 1.0
C      1  0.5139980000000  0.5295660000000  0.5078020000000 1.0
C      1  0.4704340000000  0.5139980000000  0.5078020000000 1.0
C      1  0.4860020000000  0.4704340000000  0.5078020000000 1.0
C      1  0.5295660000000  0.4860020000000  0.5078020000000 1.0
C      1  0.5731220000000  0.4945200000000  0.5083220000000 1.0
C      1  0.5054800000000  0.5731220000000  0.5083220000000 1.0
C      1  0.4268780000000  0.5054800000000  0.5083220000000 1.0
C      1  0.4945200000000  0.4268780000000  0.5083220000000 1.0
C      1  0.5570050000000  0.5532560000000  0.5139020000000 1.0
C      1  0.4467440000000  0.5570050000000  0.5139020000000 1.0
C      1  0.4429950000000  0.4467440000000  0.5139020000000 1.0
C      1  0.5532560000000  0.4429950000000  0.5139020000000 1.0
C      1  0.4353770000000  0.5064800000000  0.4598220000000 1.0
C      1  0.4935200000000  0.4353770000000  0.4598220000000 1.0
C      1  0.5646230000000  0.4935200000000  0.4598220000000 1.0
C      1  0.5064800000000  0.5646230000000  0.4598220000000 1.0
C      1  0.4414790000000  0.4963560000000  0.5325710000000 1.0
C      1  0.5036440000000  0.4414790000000  0.5325710000000 1.0
C      1  0.5585210000000  0.5036440000000  0.5325710000000 1.0
C      1  0.4963560000000  0.5585210000000  0.5325710000000 1.0
C      1  0.5481500000000  0.5332650000000  0.5336020000000 1.0
C      1  0.4667350000000  0.5481500000000  0.5336020000000 1.0
C      1  0.4518500000000  0.4667350000000  0.5336020000000 1.0
C      1  0.5332650000000  0.4518500000000  0.5336020000000 1.0
C      1  0.5396540000000  0.5580980000000  0.4682090000000 1.0
C      1  0.4419020000000  0.5396540000000  0.4682090000000 1.0
C      1  0.4603460000000  0.4419020000000  0.4682090000000 1.0
C      1  0.5580980000000  0.4603460000000  0.4682090000000 1.0
C      1  0.4335570000000  0.4878960000000  0.4847190000000 1.0
C      1  0.5121040000000  0.4335570000000  0.4847190000000 1.0
C      1  0.5664430000000  0.5121040000000  0.4847190000000 1.0
C      1  0.4878960000000  0.5664430000000  0.4847190000000 1.0
C      1  0.5340450000000  0.5127750000000  0.4934700000000 1.0
C      1  0.4872250000000  0.5340450000000  0.4934700000000 1.0
C      1  0.4659550000000  0.4872250000000  0.4934700000000 1.0
C      1  0.5127750000000  0.4659550000000  0.4934700000000 1.0
END
