TITL C-3985250-725-847 4.74477583590171e-07 125000 -314.121652510236 0 0 60 (C1) n - 1
REM
REM in /home/nfs/bkarasulu/CARBON/AIRSS/Generating-Clusters/TERSOFF/Higher-Symm/Only-C60
REM
REM
REM
REM
REM
REM ./C.cell (28575a23ae977d3b5fae324c64b13b57)
REM
REM compiler GCC version 9.2.1 20190827 (Red Hat 9.2.1-1)
REM options -cpp -mtune=generic -march=x86-64 -g -O0 -fpre-include=/usr/include/finclude/math-vector-fortran.h
REM seed 803861261 1111014823 -1219367809 984210107 786302560 859162868 995918456 1095110688 1794222546 334756799 1627324872 932117235 526302020 -388347088 -1681790807 1661497282 -423166786 -611498024 1552496903 -2702526 1668594948 217290802 -454657093 -932109420 -621650624 -267621320 1455789206 -349645309 296252624 578170876 -1516293995 498067791 -331263669
REM
CELL 1.54180   50.00000   50.00000   50.00000   90.00000   90.00000   90.00000
LATT -1
SFAC C  
C      1  0.4446620000000  0.5396540000000  0.4850900000000 1.0
C      1  0.4941850000000  0.4359980000000  0.4835710000000 1.0
C      1  0.5657880000000  0.5286320000000  0.4887050000000 1.0
C      1  0.4539290000000  0.4624390000000  0.5312720000000 1.0
C      1  0.5556630000000  0.4790800000000  0.5333260000000 1.0
C      1  0.4905950000000  0.5589250000000  0.5295930000000 1.0
C      1  0.4653480000000  0.4463630000000  0.4812020000000 1.0
C      1  0.5692540000000  0.4979150000000  0.4856360000000 1.0
C      1  0.4720190000000  0.5540860000000  0.4788000000000 1.0
C      1  0.4530070000000  0.4649470000000  0.5013480000000 1.0
C      1  0.5542540000000  0.4788480000000  0.5034610000000 1.0
C      1  0.4932580000000  0.5575720000000  0.4994310000000 1.0
C      1  0.5329520000000  0.5420340000000  0.5525560000000 1.0
C      1  0.4479940000000  0.5095190000000  0.5524730000000 1.0
C      1  0.5190210000000  0.4488860000000  0.5510190000000 1.0
C      1  0.4311740000000  0.4848930000000  0.4612730000000 1.0
C      1  0.5482380000000  0.4561460000000  0.4582190000000 1.0
C      1  0.5241410000000  0.5601210000000  0.4580490000000 1.0
C      1  0.4668000000000  0.4936810000000  0.4350900000000 1.0
C      1  0.4971010000000  0.4907580000000  0.4358030000000 1.0
C      1  0.5118770000000  0.5144970000000  0.4432640000000 1.0
C      1  0.4722190000000  0.5177860000000  0.4565300000000 1.0
C      1  0.4918850000000  0.4705560000000  0.4594490000000 1.0
C      1  0.5330370000000  0.5079080000000  0.4629930000000 1.0
C      1  0.5588920000000  0.5312030000000  0.5410300000000 1.0
C      1  0.4446070000000  0.5365310000000  0.5386380000000 1.0
C      1  0.4971820000000  0.4336720000000  0.5367690000000 1.0
C      1  0.5182170000000  0.5397650000000  0.4941850000000 1.0
C      1  0.4547810000000  0.4954760000000  0.4942590000000 1.0
C      1  0.5269460000000  0.4654230000000  0.4930590000000 1.0
C      1  0.5149750000000  0.4505650000000  0.4638940000000 1.0
C      1  0.5416680000000  0.5352640000000  0.4708580000000 1.0
C      1  0.4450590000000  0.5137030000000  0.4686120000000 1.0
C      1  0.5192650000000  0.4981120000000  0.4905250000000 1.0
C      1  0.4900820000000  0.5173120000000  0.4879380000000 1.0
C      1  0.4885210000000  0.4836530000000  0.4891090000000 1.0
C      1  0.4827750000000  0.5167610000000  0.5207180000000 1.0
C      1  0.4939340000000  0.4762930000000  0.5216000000000 1.0
C      1  0.5233970000000  0.5061870000000  0.5215680000000 1.0
C      1  0.5070020000000  0.5297660000000  0.5363340000000 1.0
C      1  0.4711060000000  0.4914310000000  0.5373090000000 1.0
C      1  0.5221920000000  0.4794090000000  0.5387170000000 1.0
C      1  0.5212750000000  0.5691650000000  0.5379400000000 1.0
C      1  0.4298250000000  0.4847740000000  0.5401790000000 1.0
C      1  0.5483630000000  0.4466490000000  0.5372940000000 1.0
C      1  0.5295410000000  0.5784440000000  0.4824560000000 1.0
C      1  0.4154170000000  0.4827170000000  0.4870990000000 1.0
C      1  0.5568650000000  0.4381130000000  0.4820290000000 1.0
C      1  0.4933490000000  0.5445660000000  0.4510970000000 1.0
C      1  0.4567550000000  0.4641510000000  0.4531530000000 1.0
C      1  0.5560540000000  0.4860240000000  0.4587120000000 1.0
C      1  0.5614050000000  0.5443960000000  0.5140750000000 1.0
C      1  0.4325580000000  0.5303360000000  0.5119290000000 1.0
C      1  0.5079940000000  0.4278290000000  0.5091290000000 1.0
C      1  0.4637810000000  0.5585070000000  0.5420780000000 1.0
C      1  0.4686530000000  0.4389360000000  0.5419950000000 1.0
C      1  0.5679940000000  0.5034290000000  0.5459900000000 1.0
C      1  0.5366250000000  0.5643100000000  0.5106220000000 1.0
C      1  0.4257660000000  0.4986680000000  0.5122720000000 1.0
C      1  0.5387780000000  0.4372130000000  0.5086720000000 1.0
END
