TITL C-3985251-913-257 0.0013171680135213 125000 -336.865912735363 0 0 60 (C4h) n - 1
REM
REM in /home/nfs/bkarasulu/CARBON/AIRSS/Generating-Clusters/TERSOFF/Higher-Symm/Only-C60
REM
REM
REM
REM
REM
REM ./C.cell (28575a23ae977d3b5fae324c64b13b57)
REM
REM compiler GCC version 9.2.1 20190827 (Red Hat 9.2.1-1)
REM options -cpp -mtune=generic -march=x86-64 -g -O0 -fpre-include=/usr/include/finclude/math-vector-fortran.h
REM seed -1859321836 1979899532 -1616880492 -1569502496 330908420 1607948907 -143621568 1322756285 2034540582 555512776 -1601376662 -216973508 -246789331 1597791065 946972484 -1141391709 1898908413 -483451126 544043008 1116532618 1979819432 -2033138025 1747194986 1574700800 -1207706946 193571000 1299782972 -1320501844 -1063250801 -1084301069 2082616478 1502965825 302724776
REM
CELL 1.54180   50.00000   50.00000   50.00000   90.00000   90.00000   90.00000
LATT -1
SFAC C  
C      1  0.5390140000000  0.5655790000000  0.4531220000000 1.0
C      1  0.4344230000000  0.5390110000000  0.4531260000000 1.0
C      1  0.4609870000000  0.4344210000000  0.4531220000000 1.0
C      1  0.5655780000000  0.4609870000000  0.4531260000000 1.0
C      1  0.5390150000000  0.5655740000000  0.5472290000000 1.0
C      1  0.4344270000000  0.5390180000000  0.5472300000000 1.0
C      1  0.4609870000000  0.4344270000000  0.5472270000000 1.0
C      1  0.5655740000000  0.4609840000000  0.5472310000000 1.0
C      1  0.4850750000000  0.5206330000000  0.5511340000000 1.0
C      1  0.4793650000000  0.4850750000000  0.5511330000000 1.0
C      1  0.5149260000000  0.4793660000000  0.5511390000000 1.0
C      1  0.5206330000000  0.5149250000000  0.5511340000000 1.0
C      1  0.4850730000000  0.5206330000000  0.4492200000000 1.0
C      1  0.4793670000000  0.4850720000000  0.4492170000000 1.0
C      1  0.5149240000000  0.4793660000000  0.4492190000000 1.0
C      1  0.5206330000000  0.5149290000000  0.4492170000000 1.0
C      1  0.5166240000000  0.5314590000000  0.4758150000000 1.0
C      1  0.4685470000000  0.5166180000000  0.4758270000000 1.0
C      1  0.4833780000000  0.4685430000000  0.4758150000000 1.0
C      1  0.5314580000000  0.4833760000000  0.4758160000000 1.0
C      1  0.5166370000000  0.5314550000000  0.5245350000000 1.0
C      1  0.4685470000000  0.5166250000000  0.5245350000000 1.0
C      1  0.4833720000000  0.4685460000000  0.5245290000000 1.0
C      1  0.5314510000000  0.4833740000000  0.5245180000000 1.0
C      1  0.5042650000000  0.4249050000000  0.5158550000000 1.0
C      1  0.5750920000000  0.5042650000000  0.5158570000000 1.0
C      1  0.4957390000000  0.5750920000000  0.5158560000000 1.0
C      1  0.4248990000000  0.4957310000000  0.5158530000000 1.0
C      1  0.5042620000000  0.4249070000000  0.4844990000000 1.0
C      1  0.5750970000000  0.5042670000000  0.4845000000000 1.0
C      1  0.4957300000000  0.5751020000000  0.4845020000000 1.0
C      1  0.4249070000000  0.4957330000000  0.4845010000000 1.0
C      1  0.5185740000000  0.5597900000000  0.4741550000000 1.0
C      1  0.4402060000000  0.5185790000000  0.4741500000000 1.0
C      1  0.4814270000000  0.4402080000000  0.4741560000000 1.0
C      1  0.5597910000000  0.4814270000000  0.4741550000000 1.0
C      1  0.5185860000000  0.5597960000000  0.5262050000000 1.0
C      1  0.4402100000000  0.5185840000000  0.5262020000000 1.0
C      1  0.4814130000000  0.4402060000000  0.5262050000000 1.0
C      1  0.5597940000000  0.4814130000000  0.5262070000000 1.0
C      1  0.5734340000000  0.5287130000000  0.4674260000000 1.0
C      1  0.4712900000000  0.5734330000000  0.4674290000000 1.0
C      1  0.4265580000000  0.4712810000000  0.4674260000000 1.0
C      1  0.5287220000000  0.4265560000000  0.4674270000000 1.0
C      1  0.5734450000000  0.5287120000000  0.5329330000000 1.0
C      1  0.4712870000000  0.5734500000000  0.5329350000000 1.0
C      1  0.4265650000000  0.4712970000000  0.5329330000000 1.0
C      1  0.5287100000000  0.4265550000000  0.5329370000000 1.0
C      1  0.5362570000000  0.4505070000000  0.5502010000000 1.0
C      1  0.5494850000000  0.5362600000000  0.5501950000000 1.0
C      1  0.4637420000000  0.5494980000000  0.5502050000000 1.0
C      1  0.4505040000000  0.4637310000000  0.5502040000000 1.0
C      1  0.5362660000000  0.4505010000000  0.4501510000000 1.0
C      1  0.5495020000000  0.5362690000000  0.4501510000000 1.0
C      1  0.4637260000000  0.5495080000000  0.4501460000000 1.0
C      1  0.4504970000000  0.4637350000000  0.4501490000000 1.0
C      1  0.4899570000000  0.4813590000000  0.5001880000000 1.0
C      1  0.5186420000000  0.4899540000000  0.5001880000000 1.0
C      1  0.5100450000000  0.5186390000000  0.5001900000000 1.0
C      1  0.4813580000000  0.5100440000000  0.5001710000000 1.0
END
