TITL C-3985252-168-97 3.19770487997456e-06 125000 -360.472489500885 0 0 60 (D3h) n - 1
REM
REM in /home/nfs/bkarasulu/CARBON/AIRSS/Generating-Clusters/TERSOFF/Higher-Symm/Only-C60
REM
REM
REM
REM
REM
REM ./C.cell (28575a23ae977d3b5fae324c64b13b57)
REM
REM compiler GCC version 9.2.1 20190827 (Red Hat 9.2.1-1)
REM options -cpp -mtune=generic -march=x86-64 -g -O0 -fpre-include=/usr/include/finclude/math-vector-fortran.h
REM seed -843797689 187276939 -13721838 2138605644 1950806028 -1269504399 -1433950450 1044990692 1016044202 596271964 30011475 38214512 -1921793545 -1637652786 1379446672 -2039188383 182349489 817862194 -1167818745 47845692 -824344270 -1191618313 -828469727 525350314 239651148 1989267839 -1223116420 -493315065 490091758 838688157 792834405 -1198269881 -577423922
REM
CELL 1.54180   50.00000   50.00000   50.00000   90.00000   90.00000   90.00000
LATT -1
SFAC C  
C      1  0.4739890000000  0.5391790000000  0.4534440000000 1.0
C      1  0.4726870000000  0.5391790000000  0.5458040000000 1.0
C      1  0.5533240000000  0.5391790000000  0.5007520000000 1.0
C      1  0.4739890000000  0.4608210000000  0.4534440000000 1.0
C      1  0.4726870000000  0.4608210000000  0.5458040000000 1.0
C      1  0.5533240000000  0.4608210000000  0.5007520000000 1.0
C      1  0.5260110000000  0.5391790000000  0.4534440000000 1.0
C      1  0.5273130000000  0.5391790000000  0.5458040000000 1.0
C      1  0.4466760000000  0.5391790000000  0.5007520000000 1.0
C      1  0.5260110000000  0.4608210000000  0.4534440000000 1.0
C      1  0.5273130000000  0.4608210000000  0.5458040000000 1.0
C      1  0.4466760000000  0.4608210000000  0.5007520000000 1.0
C      1  0.4440800000000  0.4682960000000  0.5491940000000 1.0
C      1  0.5705640000000  0.4682960000000  0.5238320000000 1.0
C      1  0.4853570000000  0.4682960000000  0.4269740000000 1.0
C      1  0.4440800000000  0.5317040000000  0.5491940000000 1.0
C      1  0.5705640000000  0.5317040000000  0.5238320000000 1.0
C      1  0.4853570000000  0.5317040000000  0.4269740000000 1.0
C      1  0.5559200000000  0.4682960000000  0.5491940000000 1.0
C      1  0.4294360000000  0.4682960000000  0.5238320000000 1.0
C      1  0.5146430000000  0.4682960000000  0.4269740000000 1.0
C      1  0.5559200000000  0.5317040000000  0.5491940000000 1.0
C      1  0.4294360000000  0.5317040000000  0.5238320000000 1.0
C      1  0.5146430000000  0.5317040000000  0.4269740000000 1.0
C      1  0.5943300000000  0.4852100000000  0.5201710000000 1.0
C      1  0.4703040000000  0.4852100000000  0.4082230000000 1.0
C      1  0.4353670000000  0.4852100000000  0.5716060000000 1.0
C      1  0.5943300000000  0.5147900000000  0.5201710000000 1.0
C      1  0.4703040000000  0.5147900000000  0.4082230000000 1.0
C      1  0.4353670000000  0.5147900000000  0.5716060000000 1.0
C      1  0.4056700000000  0.4852100000000  0.5201710000000 1.0
C      1  0.5296960000000  0.4852100000000  0.4082230000000 1.0
C      1  0.5646330000000  0.4852100000000  0.5716060000000 1.0
C      1  0.4056700000000  0.5147900000000  0.5201710000000 1.0
C      1  0.5296960000000  0.5147900000000  0.4082230000000 1.0
C      1  0.5646330000000  0.5147900000000  0.5716060000000 1.0
C      1  0.4709890000000  0.5209640000000  0.4997740000000 1.0
C      1  0.5143100000000  0.5209640000000  0.5252370000000 1.0
C      1  0.5147010000000  0.5209640000000  0.4749890000000 1.0
C      1  0.4709890000000  0.4790360000000  0.4997740000000 1.0
C      1  0.5143100000000  0.4790360000000  0.5252370000000 1.0
C      1  0.5147010000000  0.4790360000000  0.4749890000000 1.0
C      1  0.5290110000000  0.5209640000000  0.4997740000000 1.0
C      1  0.4856900000000  0.5209640000000  0.5252370000000 1.0
C      1  0.4852990000000  0.5209640000000  0.4749890000000 1.0
C      1  0.5290110000000  0.4790360000000  0.4997740000000 1.0
C      1  0.4856900000000  0.4790360000000  0.5252370000000 1.0
C      1  0.4852990000000  0.4790360000000  0.4749890000000 1.0
C      1  0.5154050000000  0.4370890000000  0.4732290000000 1.0
C      1  0.4691130000000  0.4370890000000  0.5000450000000 1.0
C      1  0.5154820000000  0.4370890000000  0.5267270000000 1.0
C      1  0.5154050000000  0.5629110000000  0.4732290000000 1.0
C      1  0.4691130000000  0.5629110000000  0.5000450000000 1.0
C      1  0.5154820000000  0.5629110000000  0.5267270000000 1.0
C      1  0.4845950000000  0.4370890000000  0.4732290000000 1.0
C      1  0.5308870000000  0.4370890000000  0.5000450000000 1.0
C      1  0.4845180000000  0.4370890000000  0.5267270000000 1.0
C      1  0.4845950000000  0.5629110000000  0.4732290000000 1.0
C      1  0.5308870000000  0.5629110000000  0.5000450000000 1.0
C      1  0.4845180000000  0.5629110000000  0.5267270000000 1.0
END
