TITL C-3985258-5380-23 0.00156134088061337 125000 -328.910468148025 0 0 60 (S4) n - 1
REM
REM in /home/nfs/bkarasulu/CARBON/AIRSS/Generating-Clusters/TERSOFF/Higher-Symm/Only-C60
REM
REM
REM
REM
REM
REM ./C.cell (28575a23ae977d3b5fae324c64b13b57)
REM
REM compiler GCC version 9.2.1 20190827 (Red Hat 9.2.1-1)
REM options -cpp -mtune=generic -march=x86-64 -g -O0 -fpre-include=/usr/include/finclude/math-vector-fortran.h
REM seed -72461923 -1900231191 -66844131 -2022789466 -1109503897 -358178251 -1919197170 -2022093668 1289389979 -1593090276 620914321 1602440612 -736982286 1853017270 -564117379 -1070509039 1928720123 -987999908 -368977277 -514959378 746821497 137390244 -93160171 -1036509335 -2088122500 1026539022 -463578260 -2033796035 -1287281179 -120822771 495768543 -1665376915 -359702991
REM
CELL 1.54180   50.00000   50.00000   50.00000   90.00000   90.00000   90.00000
LATT -1
SFAC C  
C      1  0.5035970000000  0.5138980000000  0.4615340000000 1.0
C      1  0.4860670000000  0.5035790000000  0.5384900000000 1.0
C      1  0.4964170000000  0.4860960000000  0.4615060000000 1.0
C      1  0.5139420000000  0.4964130000000  0.5385050000000 1.0
C      1  0.4803250000000  0.4499650000000  0.4433120000000 1.0
C      1  0.5500160000000  0.4802960000000  0.5566540000000 1.0
C      1  0.5196780000000  0.5500270000000  0.4433230000000 1.0
C      1  0.4499860000000  0.5196940000000  0.5566940000000 1.0
C      1  0.4644500000000  0.4676450000000  0.5402670000000 1.0
C      1  0.5323410000000  0.4644700000000  0.4597740000000 1.0
C      1  0.5355450000000  0.5323600000000  0.5402470000000 1.0
C      1  0.4676320000000  0.5355270000000  0.4598090000000 1.0
C      1  0.4959800000000  0.5351120000000  0.5646000000000 1.0
C      1  0.4648860000000  0.4959830000000  0.4353940000000 1.0
C      1  0.5040170000000  0.4648880000000  0.5646040000000 1.0
C      1  0.5351160000000  0.5040150000000  0.4353820000000 1.0
C      1  0.5637950000000  0.5334840000000  0.4687540000000 1.0
C      1  0.4665360000000  0.5637840000000  0.5312520000000 1.0
C      1  0.4362210000000  0.4665190000000  0.4687710000000 1.0
C      1  0.5334650000000  0.4362090000000  0.5312520000000 1.0
C      1  0.5754440000000  0.4829510000000  0.4931780000000 1.0
C      1  0.5170610000000  0.5754150000000  0.5067900000000 1.0
C      1  0.4245450000000  0.5170760000000  0.4931900000000 1.0
C      1  0.4828730000000  0.4244750000000  0.5066700000000 1.0
C      1  0.5072530000000  0.5438850000000  0.5385780000000 1.0
C      1  0.4561100000000  0.5072190000000  0.4614130000000 1.0
C      1  0.4927470000000  0.4561020000000  0.5385760000000 1.0
C      1  0.5439150000000  0.4927580000000  0.4613990000000 1.0
C      1  0.5085660000000  0.5118150000000  0.5776200000000 1.0
C      1  0.4881870000000  0.5085670000000  0.4223820000000 1.0
C      1  0.4914360000000  0.4881810000000  0.5776220000000 1.0
C      1  0.5118180000000  0.4914350000000  0.4223850000000 1.0
C      1  0.5475430000000  0.5313560000000  0.5130790000000 1.0
C      1  0.4686300000000  0.5475540000000  0.4869060000000 1.0
C      1  0.4522350000000  0.4685960000000  0.5131510000000 1.0
C      1  0.5313730000000  0.4524790000000  0.4869210000000 1.0
C      1  0.5044310000000  0.4631660000000  0.5048950000000 1.0
C      1  0.5368090000000  0.5044380000000  0.4951060000000 1.0
C      1  0.4955750000000  0.5368190000000  0.5048880000000 1.0
C      1  0.4631950000000  0.4955560000000  0.4951240000000 1.0
C      1  0.4286180000000  0.4966520000000  0.4708510000000 1.0
C      1  0.5032640000000  0.4287260000000  0.5291540000000 1.0
C      1  0.5713780000000  0.5033340000000  0.4708440000000 1.0
C      1  0.4966890000000  0.5713510000000  0.5291360000000 1.0
C      1  0.5433960000000  0.5609570000000  0.5048020000000 1.0
C      1  0.4390720000000  0.5432950000000  0.4951880000000 1.0
C      1  0.4566830000000  0.4391430000000  0.5049670000000 1.0
C      1  0.5609440000000  0.4566720000000  0.4952340000000 1.0
C      1  0.4653400000000  0.4929180000000  0.5605330000000 1.0
C      1  0.5071070000000  0.4653550000000  0.4394410000000 1.0
C      1  0.5346580000000  0.5070740000000  0.5605110000000 1.0
C      1  0.4929420000000  0.5346710000000  0.4394340000000 1.0
C      1  0.4569370000000  0.5351540000000  0.5322670000000 1.0
C      1  0.4648640000000  0.4569650000000  0.4677320000000 1.0
C      1  0.5430710000000  0.4648370000000  0.5322770000000 1.0
C      1  0.5351570000000  0.5430680000000  0.4677570000000 1.0
C      1  0.4741340000000  0.5165740000000  0.5147800000000 1.0
C      1  0.4835480000000  0.4741630000000  0.4851040000000 1.0
C      1  0.5258720000000  0.4834210000000  0.5147780000000 1.0
C      1  0.5165690000000  0.5258650000000  0.4852090000000 1.0
END
