TITL C-3985249-2594-43 0.00194258186486169 125000 -310.633699002554 0 0 60 (C1) n - 1
REM
REM in /home/nfs/bkarasulu/CARBON/AIRSS/Generating-Clusters/TERSOFF/Higher-Symm/Only-C60
REM
REM
REM
REM
REM
REM ./C.cell (28575a23ae977d3b5fae324c64b13b57)
REM
REM compiler GCC version 9.2.1 20190827 (Red Hat 9.2.1-1)
REM options -cpp -mtune=generic -march=x86-64 -g -O0 -fpre-include=/usr/include/finclude/math-vector-fortran.h
REM seed 1072669032 -1315615611 102142589 1078020260 407377332 -1553483348 1661930519 1550535649 -1539656712 -824262388 -1660315993 -2022226524 1704292395 -1313030324 -1680022539 -301760141 1589397951 1613577900 -820637019 -1470690243 -916010118 -1849747146 322969925 710274853 103325695 -1202875016 -1536011800 -295494918 1268944560 1869193975 -130093271 -719940748 134282834
REM
CELL 1.54180   50.00000   50.00000   50.00000   90.00000   90.00000   90.00000
LATT -1
SFAC C  
C      1  0.4439830000000  0.5515710000000  0.4858600000000 1.0
C      1  0.5333790000000  0.5381670000000  0.4679610000000 1.0
C      1  0.4647350000000  0.4940780000000  0.4661200000000 1.0
C      1  0.4684230000000  0.4275250000000  0.5207020000000 1.0
C      1  0.4491370000000  0.5371380000000  0.5357690000000 1.0
C      1  0.4898360000000  0.5218190000000  0.4313440000000 1.0
C      1  0.4677090000000  0.5191690000000  0.4501110000000 1.0
C      1  0.4713430000000  0.5565390000000  0.5392630000000 1.0
C      1  0.4964790000000  0.5566850000000  0.4602420000000 1.0
C      1  0.5390120000000  0.4650320000000  0.4372590000000 1.0
C      1  0.4663640000000  0.4630230000000  0.4984060000000 1.0
C      1  0.4886490000000  0.5468270000000  0.5614250000000 1.0
C      1  0.5632400000000  0.5370930000000  0.5023380000000 1.0
C      1  0.4882350000000  0.4680410000000  0.5184320000000 1.0
C      1  0.5492980000000  0.4491250000000  0.4808170000000 1.0
C      1  0.5624550000000  0.4750940000000  0.4774840000000 1.0
C      1  0.5596780000000  0.4928670000000  0.5339890000000 1.0
C      1  0.5138750000000  0.4903260000000  0.4780230000000 1.0
C      1  0.5642750000000  0.4613440000000  0.5274630000000 1.0
C      1  0.4846700000000  0.5601220000000  0.5129860000000 1.0
C      1  0.4281550000000  0.4696100000000  0.4823830000000 1.0
C      1  0.4346600000000  0.5360000000000  0.5100920000000 1.0
C      1  0.5678960000000  0.5241110000000  0.5290900000000 1.0
C      1  0.4974230000000  0.4249550000000  0.5210830000000 1.0
C      1  0.4391290000000  0.4841660000000  0.5085290000000 1.0
C      1  0.5292430000000  0.5172160000000  0.4875220000000 1.0
C      1  0.5100080000000  0.5228560000000  0.5088100000000 1.0
C      1  0.5088760000000  0.5767670000000  0.4780540000000 1.0
C      1  0.4570220000000  0.4329900000000  0.4924600000000 1.0
C      1  0.4882860000000  0.4748600000000  0.4747110000000 1.0
C      1  0.4805940000000  0.5338620000000  0.4965270000000 1.0
C      1  0.5237640000000  0.5028150000000  0.4473390000000 1.0
C      1  0.4528210000000  0.4770730000000  0.5400550000000 1.0
C      1  0.5453400000000  0.4447210000000  0.5101910000000 1.0
C      1  0.4477960000000  0.4675840000000  0.4600980000000 1.0
C      1  0.5285130000000  0.4454490000000  0.4580260000000 1.0
C      1  0.5153920000000  0.4495740000000  0.5186870000000 1.0
C      1  0.5161100000000  0.5364090000000  0.4417040000000 1.0
C      1  0.4652360000000  0.4413100000000  0.4624150000000 1.0
C      1  0.5184570000000  0.5710820000000  0.5079100000000 1.0
C      1  0.5166060000000  0.4824520000000  0.4242580000000 1.0
C      1  0.4889500000000  0.4988550000000  0.5182590000000 1.0
C      1  0.5278790000000  0.4914000000000  0.5444940000000 1.0
C      1  0.5265870000000  0.4821850000000  0.5104560000000 1.0
C      1  0.5150710000000  0.5142140000000  0.5610860000000 1.0
C      1  0.5570570000000  0.4929340000000  0.4516270000000 1.0
C      1  0.4539330000000  0.5114080000000  0.5515220000000 1.0
C      1  0.4639800000000  0.5050000000000  0.4982980000000 1.0
C      1  0.5080980000000  0.4709380000000  0.5552580000000 1.0
C      1  0.4813160000000  0.4811980000000  0.5612460000000 1.0
C      1  0.5693010000000  0.5177920000000  0.4752490000000 1.0
C      1  0.5184720000000  0.5434620000000  0.5535620000000 1.0
C      1  0.4223140000000  0.5101710000000  0.5064920000000 1.0
C      1  0.4812380000000  0.5129350000000  0.5705640000000 1.0
C      1  0.5500380000000  0.5642050000000  0.5002930000000 1.0
C      1  0.5556920000000  0.4956200000000  0.4988850000000 1.0
C      1  0.4697950000000  0.5432790000000  0.4684610000000 1.0
C      1  0.4559080000000  0.4446990000000  0.5420360000000 1.0
C      1  0.4965550000000  0.4477490000000  0.4613230000000 1.0
C      1  0.5217160000000  0.5445080000000  0.5249500000000 1.0
END
