TITL C-3985250-725-1025 6.51272149930008e-05 125000 -328.324055853566 0 0 60 (C1) n - 1
REM
REM in /home/nfs/bkarasulu/CARBON/AIRSS/Generating-Clusters/TERSOFF/Higher-Symm/Only-C60
REM
REM
REM
REM
REM
REM ./C.cell (28575a23ae977d3b5fae324c64b13b57)
REM
REM compiler GCC version 9.2.1 20190827 (Red Hat 9.2.1-1)
REM options -cpp -mtune=generic -march=x86-64 -g -O0 -fpre-include=/usr/include/finclude/math-vector-fortran.h
REM seed -1689111190 1046224616 -1593210039 -295082420 1392222151 2129210265 1442155527 -590186969 1487422939 1828706818 388713021 -1198856465 892426501 99494089 455065645 -1067164937 900163642 1359846617 -1820456902 1787562788 2120413201 -1554819415 733030266 838467323 424275126 1862268049 -469644470 1440638939 -105131348 -1439668568 1275963030 -1374170829 -1570648469
REM
CELL 1.54180   50.00000   50.00000   50.00000   90.00000   90.00000   90.00000
LATT -1
SFAC C  
C      1  0.4385260000000  0.4829260000000  0.4978720000000 1.0
C      1  0.5524150000000  0.5410750000000  0.5068830000000 1.0
C      1  0.5113150000000  0.5307660000000  0.4296200000000 1.0
C      1  0.4426280000000  0.5381780000000  0.5032670000000 1.0
C      1  0.4589930000000  0.4615480000000  0.4573810000000 1.0
C      1  0.4921230000000  0.4528800000000  0.4969870000000 1.0
C      1  0.5583370000000  0.4738970000000  0.4665150000000 1.0
C      1  0.4460130000000  0.4765420000000  0.4361150000000 1.0
C      1  0.5100470000000  0.4998150000000  0.5681660000000 1.0
C      1  0.5469750000000  0.4496640000000  0.4843020000000 1.0
C      1  0.5189040000000  0.4611000000000  0.5401190000000 1.0
C      1  0.4736930000000  0.5763160000000  0.5038260000000 1.0
C      1  0.5596050000000  0.5220440000000  0.4857180000000 1.0
C      1  0.5113750000000  0.4705180000000  0.4535750000000 1.0
C      1  0.5239520000000  0.5542290000000  0.4725330000000 1.0
C      1  0.4611600000000  0.5145660000000  0.4618080000000 1.0
C      1  0.4417870000000  0.5124460000000  0.4862420000000 1.0
C      1  0.5202080000000  0.4947380000000  0.5262010000000 1.0
C      1  0.5391470000000  0.4414300000000  0.5320900000000 1.0
C      1  0.5013210000000  0.5507130000000  0.4522290000000 1.0
C      1  0.5040110000000  0.5479660000000  0.5600300000000 1.0
C      1  0.4919720000000  0.5622870000000  0.5210390000000 1.0
C      1  0.4579580000000  0.5590460000000  0.4869920000000 1.0
C      1  0.5274760000000  0.5466800000000  0.5425240000000 1.0
C      1  0.4793620000000  0.5435200000000  0.5420730000000 1.0
C      1  0.4916590000000  0.4962320000000  0.4562860000000 1.0
C      1  0.5581420000000  0.4925990000000  0.4925210000000 1.0
C      1  0.5583220000000  0.4493450000000  0.5122670000000 1.0
C      1  0.4459890000000  0.4575680000000  0.5156400000000 1.0
C      1  0.4451900000000  0.5082330000000  0.5424760000000 1.0
C      1  0.4938940000000  0.5106180000000  0.5437050000000 1.0
C      1  0.4780360000000  0.5000860000000  0.5033520000000 1.0
C      1  0.5380490000000  0.5153490000000  0.4383480000000 1.0
C      1  0.4941050000000  0.5274810000000  0.4928910000000 1.0
C      1  0.4511870000000  0.4324710000000  0.5004350000000 1.0
C      1  0.4740900000000  0.4360080000000  0.4528730000000 1.0
C      1  0.5387200000000  0.4838170000000  0.4445310000000 1.0
C      1  0.5310910000000  0.4788750000000  0.5634520000000 1.0
C      1  0.4467610000000  0.5052720000000  0.4372690000000 1.0
C      1  0.5177910000000  0.4628490000000  0.4834540000000 1.0
C      1  0.4992320000000  0.4465420000000  0.4408900000000 1.0
C      1  0.5377700000000  0.5272580000000  0.4662830000000 1.0
C      1  0.4921830000000  0.4539010000000  0.5273780000000 1.0
C      1  0.5439490000000  0.5170070000000  0.5402370000000 1.0
C      1  0.4534120000000  0.4670690000000  0.5655430000000 1.0
C      1  0.5538210000000  0.5636860000000  0.5496450000000 1.0
C      1  0.5260010000000  0.4903120000000  0.4960440000000 1.0
C      1  0.4661350000000  0.4648910000000  0.5377200000000 1.0
C      1  0.4686310000000  0.4753090000000  0.4843980000000 1.0
C      1  0.4924810000000  0.5086420000000  0.4284780000000 1.0
C      1  0.4759230000000  0.4296060000000  0.4833190000000 1.0
C      1  0.5571460000000  0.4894720000000  0.5468450000000 1.0
C      1  0.5183800000000  0.5500350000000  0.5077070000000 1.0
C      1  0.4491400000000  0.5360710000000  0.5332470000000 1.0
C      1  0.4389140000000  0.4932210000000  0.5679830000000 1.0
C      1  0.5678530000000  0.5404980000000  0.5330600000000 1.0
C      1  0.4761900000000  0.5416980000000  0.4689340000000 1.0
C      1  0.5668940000000  0.4776730000000  0.5193710000000 1.0
C      1  0.4702940000000  0.4952310000000  0.5319810000000 1.0
C      1  0.5133210000000  0.5101860000000  0.4773260000000 1.0
END
