TITL C-3985259-1859-88 -0.00642731071930906 125000 -306.738719761484 0 0 60 (Ci) n - 1
REM
REM in /home/nfs/bkarasulu/CARBON/AIRSS/Generating-Clusters/TERSOFF/Higher-Symm/Only-C60
REM
REM
REM
REM
REM
REM ./C.cell (28575a23ae977d3b5fae324c64b13b57)
REM
REM compiler GCC version 9.2.1 20190827 (Red Hat 9.2.1-1)
REM options -cpp -mtune=generic -march=x86-64 -g -O0 -fpre-include=/usr/include/finclude/math-vector-fortran.h
REM seed 692696416 283854158 -2022914537 1922396622 691102251 1440093046 1459644811 399642883 629666615 1959853041 -1353838898 540604284 -1048848627 1409637723 -1664784791 490981195 -1719401747 597441811 -647660065 -1329022343 306795231 327581156 -781635336 -542762512 -1314053343 -1625987391 1474160172 -1071612298 1656712605 -678537721 -2125339302 -288733060 42843011
REM
CELL 1.54180   50.00000   50.00000   50.00000   90.00000   90.00000   90.00000
LATT -1
SFAC C  
C      1  0.5103600000000  0.4748370000000  0.4296620000000 1.0
C      1  0.4896400000000  0.5251630000000  0.5703380000000 1.0
C      1  0.4636930000000  0.4619920000000  0.4384960000000 1.0
C      1  0.5363070000000  0.5380080000000  0.5615040000000 1.0
C      1  0.5301040000000  0.4864510000000  0.5649100000000 1.0
C      1  0.4698960000000  0.5135490000000  0.4350900000000 1.0
C      1  0.5087310000000  0.5463660000000  0.5599120000000 1.0
C      1  0.4912690000000  0.4536340000000  0.4400880000000 1.0
C      1  0.5150630000000  0.5349850000000  0.4951890000000 1.0
C      1  0.4849370000000  0.4650150000000  0.5048110000000 1.0
C      1  0.5349970000000  0.4686480000000  0.4442820000000 1.0
C      1  0.4650030000000  0.5313520000000  0.5557180000000 1.0
C      1  0.5733360000000  0.4736610000000  0.4924450000000 1.0
C      1  0.4266640000000  0.5263390000000  0.5075550000000 1.0
C      1  0.5295080000000  0.5660530000000  0.5218160000000 1.0
C      1  0.4704920000000  0.4339470000000  0.4781840000000 1.0
C      1  0.5020050000000  0.4363370000000  0.4689180000000 1.0
C      1  0.4979950000000  0.5636630000000  0.5310820000000 1.0
C      1  0.4991860000000  0.4964040000000  0.5734890000000 1.0
C      1  0.5008140000000  0.5035960000000  0.4265110000000 1.0
C      1  0.4964370000000  0.5613910000000  0.4951430000000 1.0
C      1  0.5035630000000  0.4386090000000  0.5048570000000 1.0
C      1  0.4751480000000  0.5354710000000  0.4596470000000 1.0
C      1  0.5248520000000  0.4645290000000  0.5403530000000 1.0
C      1  0.4580330000000  0.4567250000000  0.4946550000000 1.0
C      1  0.5419670000000  0.5432750000000  0.5053450000000 1.0
C      1  0.4197550000000  0.4965930000000  0.4885140000000 1.0
C      1  0.5802450000000  0.5034070000000  0.5114860000000 1.0
C      1  0.4658170000000  0.5196120000000  0.4873160000000 1.0
C      1  0.5341830000000  0.4803880000000  0.5126840000000 1.0
C      1  0.5097650000000  0.5067510000000  0.5341500000000 1.0
C      1  0.4902350000000  0.4932490000000  0.4658500000000 1.0
C      1  0.5312690000000  0.4521550000000  0.4681650000000 1.0
C      1  0.4687310000000  0.5478450000000  0.5318350000000 1.0
C      1  0.5532910000000  0.5205410000000  0.5203600000000 1.0
C      1  0.4467090000000  0.4794590000000  0.4796400000000 1.0
C      1  0.4879450000000  0.4183610000000  0.5205490000000 1.0
C      1  0.5120550000000  0.5816390000000  0.4794510000000 1.0
C      1  0.4539620000000  0.5422360000000  0.5062270000000 1.0
C      1  0.5460380000000  0.4577640000000  0.4937730000000 1.0
C      1  0.4459480000000  0.4585930000000  0.5220040000000 1.0
C      1  0.5540520000000  0.5414070000000  0.4779960000000 1.0
C      1  0.4571000000000  0.4884200000000  0.4508680000000 1.0
C      1  0.5429000000000  0.5115800000000  0.5491320000000 1.0
C      1  0.5068470000000  0.5229330000000  0.4532750000000 1.0
C      1  0.4931530000000  0.4770670000000  0.5467250000000 1.0
C      1  0.5324700000000  0.4388840000000  0.5173800000000 1.0
C      1  0.4675300000000  0.5611160000000  0.4826200000000 1.0
C      1  0.5328240000000  0.4978960000000  0.4744870000000 1.0
C      1  0.4671760000000  0.5021040000000  0.5255130000000 1.0
C      1  0.4230270000000  0.4781630000000  0.5196650000000 1.0
C      1  0.5769730000000  0.5218370000000  0.4803350000000 1.0
C      1  0.4238680000000  0.5026220000000  0.4532480000000 1.0
C      1  0.5761320000000  0.4973780000000  0.5467520000000 1.0
C      1  0.4655430000000  0.4618670000000  0.5452500000000 1.0
C      1  0.5344570000000  0.5381330000000  0.4547500000000 1.0
C      1  0.5142570000000  0.5045300000000  0.5016370000000 1.0
C      1  0.4857430000000  0.4954700000000  0.4983630000000 1.0
C      1  0.4378260000000  0.5041630000000  0.5257300000000 1.0
C      1  0.5621740000000  0.4958370000000  0.4742700000000 1.0
END
