TITL C-3985254-1270-1892 -9.66780076898403e-08 125000 -334.997772874938 0 0 60 (Td) n - 1
REM
REM in /home/nfs/bkarasulu/CARBON/AIRSS/Generating-Clusters/TERSOFF/Higher-Symm/Only-C60
REM
REM
REM
REM
REM
REM ./C.cell (28575a23ae977d3b5fae324c64b13b57)
REM
REM compiler GCC version 9.2.1 20190827 (Red Hat 9.2.1-1)
REM options -cpp -mtune=generic -march=x86-64 -g -O0 -fpre-include=/usr/include/finclude/math-vector-fortran.h
REM seed 1451524490 -595584648 -466120657 -243796356 2077671907 994123935 1612149987 1671674032 -1454838845 546697788 1035425307 -1517558876 -1823047439 -1184660579 415908608 -687599865 26251262 464059063 2003636018 -1857158498 937356572 2139849705 -1954628721 -1352870994 402878176 1617251709 -982477944 1789626648 1759814123 -252075292 1262073819 380212597 -731361946
REM
CELL 1.54180   50.00000   50.00000   50.00000   90.00000   90.00000   90.00000
LATT -1
SFAC C  
C      1  0.5256830000000  0.5049940000000  0.5646180000000 1.0
C      1  0.5646180000000  0.5256830000000  0.5049940000000 1.0
C      1  0.5049940000000  0.5646180000000  0.5256830000000 1.0
C      1  0.4743170000000  0.5049940000000  0.4353820000000 1.0
C      1  0.5256830000000  0.4950060000000  0.4353820000000 1.0
C      1  0.4743170000000  0.4950060000000  0.5646180000000 1.0
C      1  0.4353820000000  0.5256830000000  0.4950060000000 1.0
C      1  0.5646180000000  0.4743170000000  0.4950060000000 1.0
C      1  0.4353820000000  0.4743170000000  0.5049940000000 1.0
C      1  0.4950060000000  0.5646180000000  0.4743170000000 1.0
C      1  0.5049940000000  0.4353820000000  0.4743170000000 1.0
C      1  0.4950060000000  0.4353820000000  0.5256830000000 1.0
C      1  0.5646180000000  0.5049940000000  0.5256830000000 1.0
C      1  0.5049940000000  0.5256830000000  0.5646180000000 1.0
C      1  0.5256830000000  0.5646180000000  0.5049940000000 1.0
C      1  0.4353820000000  0.5049940000000  0.4743170000000 1.0
C      1  0.4353820000000  0.4950060000000  0.5256830000000 1.0
C      1  0.5646180000000  0.4950060000000  0.4743170000000 1.0
C      1  0.4950060000000  0.5256830000000  0.4353820000000 1.0
C      1  0.4950060000000  0.4743170000000  0.5646180000000 1.0
C      1  0.5049940000000  0.4743170000000  0.4353820000000 1.0
C      1  0.4743170000000  0.5646180000000  0.4950060000000 1.0
C      1  0.4743170000000  0.4353820000000  0.5049940000000 1.0
C      1  0.5256830000000  0.4353820000000  0.4950060000000 1.0
C      1  0.5525990000000  0.5726510000000  0.5114920000000 1.0
C      1  0.5114920000000  0.5525990000000  0.5726510000000 1.0
C      1  0.5726510000000  0.5114920000000  0.5525990000000 1.0
C      1  0.4474010000000  0.5726510000000  0.4885080000000 1.0
C      1  0.5525990000000  0.4273490000000  0.4885080000000 1.0
C      1  0.4474010000000  0.4273490000000  0.5114920000000 1.0
C      1  0.4885080000000  0.5525990000000  0.4273490000000 1.0
C      1  0.5114920000000  0.4474010000000  0.4273490000000 1.0
C      1  0.4885080000000  0.4474010000000  0.5726510000000 1.0
C      1  0.4273490000000  0.5114920000000  0.4474010000000 1.0
C      1  0.5726510000000  0.4885080000000  0.4474010000000 1.0
C      1  0.4273490000000  0.4885080000000  0.5525990000000 1.0
C      1  0.5114920000000  0.5726510000000  0.5525990000000 1.0
C      1  0.5726510000000  0.5525990000000  0.5114920000000 1.0
C      1  0.5525990000000  0.5114920000000  0.5726510000000 1.0
C      1  0.4885080000000  0.5726510000000  0.4474010000000 1.0
C      1  0.4885080000000  0.4273490000000  0.5525990000000 1.0
C      1  0.5114920000000  0.4273490000000  0.4474010000000 1.0
C      1  0.4273490000000  0.5525990000000  0.4885080000000 1.0
C      1  0.4273490000000  0.4474010000000  0.5114920000000 1.0
C      1  0.5726510000000  0.4474010000000  0.4885080000000 1.0
C      1  0.4474010000000  0.5114920000000  0.4273490000000 1.0
C      1  0.4474010000000  0.4885080000000  0.5726510000000 1.0
C      1  0.5525990000000  0.4885080000000  0.4273490000000 1.0
C      1  0.4788440000000  0.4788440000000  0.4526010000000 1.0
C      1  0.5211560000000  0.4788440000000  0.5473990000000 1.0
C      1  0.4788440000000  0.5211560000000  0.5473990000000 1.0
C      1  0.5211560000000  0.5211560000000  0.4526010000000 1.0
C      1  0.5473990000000  0.4788440000000  0.5211560000000 1.0
C      1  0.4526010000000  0.5211560000000  0.5211560000000 1.0
C      1  0.5473990000000  0.5211560000000  0.4788440000000 1.0
C      1  0.5211560000000  0.4526010000000  0.5211560000000 1.0
C      1  0.4788440000000  0.5473990000000  0.5211560000000 1.0
C      1  0.4788440000000  0.4526010000000  0.4788440000000 1.0
C      1  0.5211560000000  0.5473990000000  0.4788440000000 1.0
C      1  0.4526010000000  0.4788440000000  0.4788440000000 1.0
END
