TITL C-3985258-5380-25 2.20655749815274e-06 125000 -333.883850534937 0 0 60 (D3) n - 1
REM
REM in /home/nfs/bkarasulu/CARBON/AIRSS/Generating-Clusters/TERSOFF/Higher-Symm/Only-C60
REM
REM
REM
REM
REM
REM ./C.cell (28575a23ae977d3b5fae324c64b13b57)
REM
REM compiler GCC version 9.2.1 20190827 (Red Hat 9.2.1-1)
REM options -cpp -mtune=generic -march=x86-64 -g -O0 -fpre-include=/usr/include/finclude/math-vector-fortran.h
REM seed -1611826480 1593642150 -115338194 210331641 -2088361262 86926139 129072320 852790740 1039084985 -620272398 -192755027 -1268199638 1620778492 -1652446614 -1289373698 1114296785 -1998282397 -1267909024 1838627345 -1710805186 1568353045 1618577677 -1182873422 -1934399960 398501464 702134007 1546404129 946796478 187511722 -879220383 716593426 -165869213 206182951
REM
CELL 1.54180   50.00000   50.00000   50.00000   90.00000   90.00000   90.00000
LATT -1
SFAC C  
C      1  0.4688980000000  0.4992250000000  0.5157420000000 1.0
C      1  0.5148800000000  0.5273230000000  0.5157420000000 1.0
C      1  0.5162220000000  0.4734520000000  0.5157410000000 1.0
C      1  0.4688980000000  0.5007750000000  0.4842580000000 1.0
C      1  0.5148800000000  0.4726770000000  0.4842580000000 1.0
C      1  0.5162220000000  0.5265480000000  0.4842590000000 1.0
C      1  0.5295700000000  0.5006070000000  0.5747860000000 1.0
C      1  0.4857420000000  0.4740860000000  0.5747850000000 1.0
C      1  0.4846880000000  0.5253030000000  0.5747860000000 1.0
C      1  0.5295700000000  0.4993930000000  0.4252140000000 1.0
C      1  0.4857420000000  0.5259140000000  0.4252150000000 1.0
C      1  0.4846880000000  0.4746970000000  0.4252140000000 1.0
C      1  0.4319500000000  0.5280340000000  0.4918010000000 1.0
C      1  0.5583030000000  0.5449170000000  0.4918010000000 1.0
C      1  0.5097470000000  0.4270500000000  0.4917990000000 1.0
C      1  0.4319500000000  0.4719660000000  0.5081990000000 1.0
C      1  0.5583030000000  0.4550830000000  0.5081990000000 1.0
C      1  0.5097470000000  0.5729500000000  0.5082010000000 1.0
C      1  0.4728330000000  0.5371780000000  0.5498390000000 1.0
C      1  0.5457810000000  0.5049370000000  0.5498390000000 1.0
C      1  0.4813860000000  0.4578830000000  0.5498380000000 1.0
C      1  0.4728330000000  0.4628220000000  0.4501610000000 1.0
C      1  0.5457810000000  0.4950630000000  0.4501610000000 1.0
C      1  0.4813860000000  0.5421170000000  0.4501620000000 1.0
C      1  0.5439520000000  0.4636090000000  0.5343620000000 1.0
C      1  0.4465090000000  0.4801310000000  0.5343620000000 1.0
C      1  0.5095390000000  0.5562580000000  0.5343640000000 1.0
C      1  0.5439520000000  0.5363910000000  0.4656380000000 1.0
C      1  0.4465090000000  0.5198690000000  0.4656380000000 1.0
C      1  0.5095390000000  0.4437420000000  0.4656360000000 1.0
C      1  0.4450810000000  0.5003620000000  0.5587890000000 1.0
C      1  0.5277740000000  0.5473790000000  0.5587900000000 1.0
C      1  0.5271450000000  0.4522560000000  0.5587880000000 1.0
C      1  0.4450810000000  0.4996380000000  0.4412110000000 1.0
C      1  0.5277740000000  0.4526210000000  0.4412100000000 1.0
C      1  0.5271450000000  0.5477440000000  0.4412120000000 1.0
C      1  0.5160050000000  0.4744090000000  0.5770080000000 1.0
C      1  0.4698360000000  0.4989320000000  0.5770090000000 1.0
C      1  0.5141580000000  0.5266540000000  0.5770090000000 1.0
C      1  0.5160050000000  0.5255910000000  0.4229920000000 1.0
C      1  0.4698360000000  0.5010680000000  0.4229910000000 1.0
C      1  0.5141580000000  0.4733460000000  0.4229910000000 1.0
C      1  0.4873820000000  0.4753940000000  0.5259380000000 1.0
C      1  0.4850000000000  0.5232300000000  0.5259390000000 1.0
C      1  0.5276180000000  0.5013750000000  0.5259390000000 1.0
C      1  0.4873820000000  0.5246060000000  0.4740620000000 1.0
C      1  0.4850000000000  0.4767700000000  0.4740610000000 1.0
C      1  0.5276180000000  0.4986260000000  0.4740610000000 1.0
C      1  0.4419890000000  0.5297650000000  0.5463540000000 1.0
C      1  0.5547840000000  0.5353550000000  0.5463550000000 1.0
C      1  0.5032270000000  0.4348770000000  0.5463530000000 1.0
C      1  0.4419890000000  0.4702350000000  0.4536460000000 1.0
C      1  0.5547840000000  0.4646450000000  0.4536460000000 1.0
C      1  0.5032270000000  0.5651230000000  0.4536470000000 1.0
C      1  0.5444640000000  0.4597670000000  0.4824760000000 1.0
C      1  0.4429250000000  0.4816100000000  0.4824760000000 1.0
C      1  0.5126110000000  0.5586240000000  0.4824770000000 1.0
C      1  0.5444640000000  0.5402330000000  0.5175240000000 1.0
C      1  0.4429250000000  0.5183900000000  0.5175240000000 1.0
C      1  0.5126110000000  0.4413760000000  0.5175230000000 1.0
END
