TITL C-3985254-1270-341 0.00150813948565656 125000 -316.803996952936 0 0 60 (Cs) n - 1
REM
REM in /home/nfs/bkarasulu/CARBON/AIRSS/Generating-Clusters/TERSOFF/Higher-Symm/Only-C60
REM
REM
REM
REM
REM
REM ./C.cell (28575a23ae977d3b5fae324c64b13b57)
REM
REM compiler GCC version 9.2.1 20190827 (Red Hat 9.2.1-1)
REM options -cpp -mtune=generic -march=x86-64 -g -O0 -fpre-include=/usr/include/finclude/math-vector-fortran.h
REM seed 607194147 1130244527 443832249 -438996344 652921084 -689685612 -1439796643 -721065965 712120546 -895338430 -872823832 527195972 -1986158081 798392315 -455181069 1014577256 951203820 359657134 -1436926856 -799276686 -128109020 -727222284 425330117 677471827 -1182405530 160896600 740868038 1504302904 989921451 2056516499 -427479792 1025510005 871624667
REM
CELL 1.54180   50.00000   50.00000   50.00000   90.00000   90.00000   90.00000
LATT -1
SFAC C  
C      1  0.4671990000000  0.4448590000000  0.4838210000000 1.0
C      1  0.5328010000000  0.4448590000000  0.4838210000000 1.0
C      1  0.4721770000000  0.4321580000000  0.5281100000000 1.0
C      1  0.5278230000000  0.4321580000000  0.5281100000000 1.0
C      1  0.5251900000000  0.5079710000000  0.5237520000000 1.0
C      1  0.4748200000000  0.5079750000000  0.5237340000000 1.0
C      1  0.4442260000000  0.5069600000000  0.5314340000000 1.0
C      1  0.5557730000000  0.5069600000000  0.5314350000000 1.0
C      1  0.4243550000000  0.5160150000000  0.4778790000000 1.0
C      1  0.5756450000000  0.5160150000000  0.4778790000000 1.0
C      1  0.5560840000000  0.5352570000000  0.4952710000000 1.0
C      1  0.4439160000000  0.5352570000000  0.4952710000000 1.0
C      1  0.5653350000000  0.4930820000000  0.4575470000000 1.0
C      1  0.4346650000000  0.4930820000000  0.4575470000000 1.0
C      1  0.4652720000000  0.5484900000000  0.5433470000000 1.0
C      1  0.5347280000000  0.5484900000000  0.5433470000000 1.0
C      1  0.5573500000000  0.4599450000000  0.4978530000000 1.0
C      1  0.4426500000000  0.4599450000000  0.4978530000000 1.0
C      1  0.4611950000000  0.5009320000000  0.4435140000000 1.0
C      1  0.5388040000000  0.5009320000000  0.4435140000000 1.0
C      1  0.5261260000000  0.4966030000000  0.4833810000000 1.0
C      1  0.4738740000000  0.4966030000000  0.4833810000000 1.0
C      1  0.5157140000000  0.4590770000000  0.5379520000000 1.0
C      1  0.4842860000000  0.4590770000000  0.5379520000000 1.0
C      1  0.4835090000000  0.5703560000000  0.4869460000000 1.0
C      1  0.5164910000000  0.5703560000000  0.4869460000000 1.0
C      1  0.5158550000000  0.4843650000000  0.4564930000000 1.0
C      1  0.4841450000000  0.4843650000000  0.4564930000000 1.0
C      1  0.5655910000000  0.5355250000000  0.4543650000000 1.0
C      1  0.4344090000000  0.5355240000000  0.4543650000000 1.0
C      1  0.5277670000000  0.5286930000000  0.4849710000000 1.0
C      1  0.4722330000000  0.5286930000000  0.4849710000000 1.0
C      1  0.5153440000000  0.4279290000000  0.5012940000000 1.0
C      1  0.4846560000000  0.4279290000000  0.5012940000000 1.0
C      1  0.5392790000000  0.4695650000000  0.5558580000000 1.0
C      1  0.4607210000000  0.4695650000000  0.5558580000000 1.0
C      1  0.5163540000000  0.5457390000000  0.4621640000000 1.0
C      1  0.4836460000000  0.5457390000000  0.4621640000000 1.0
C      1  0.4855700000000  0.5320020000000  0.5105830000000 1.0
C      1  0.5144300000000  0.5320030000000  0.5105830000000 1.0
C      1  0.4623610000000  0.5319440000000  0.4437260000000 1.0
C      1  0.5376390000000  0.5319440000000  0.4437260000000 1.0
C      1  0.4433230000000  0.4933550000000  0.4989410000000 1.0
C      1  0.5566770000000  0.4933550000000  0.4989410000000 1.0
C      1  0.5688700000000  0.4663920000000  0.4691500000000 1.0
C      1  0.4311300000000  0.4663920000000  0.4691490000000 1.0
C      1  0.5426160000000  0.4991780000000  0.5607890000000 1.0
C      1  0.4573750000000  0.4991730000000  0.5608060000000 1.0
C      1  0.4767930000000  0.4557460000000  0.4590540000000 1.0
C      1  0.5232080000000  0.4557460000000  0.4590540000000 1.0
C      1  0.5173110000000  0.5630100000000  0.5214790000000 1.0
C      1  0.4826890000000  0.5630100000000  0.5214790000000 1.0
C      1  0.5150190000000  0.4819460000000  0.5128270000000 1.0
C      1  0.4849800000000  0.4819460000000  0.5128270000000 1.0
C      1  0.4819880000000  0.5255740000000  0.5611450000000 1.0
C      1  0.5180130000000  0.5255730000000  0.5611450000000 1.0
C      1  0.4440580000000  0.4505440000000  0.5297770000000 1.0
C      1  0.5559420000000  0.4505440000000  0.5297770000000 1.0
C      1  0.4414980000000  0.5367900000000  0.5265780000000 1.0
C      1  0.5585020000000  0.5367900000000  0.5265780000000 1.0
END
