TITL C-3985247-764-549 -2.37743560525975e-07 125000 -309.439640865003 0 0 60 (Th) n - 1
REM
REM in /home/nfs/bkarasulu/CARBON/AIRSS/Generating-Clusters/TERSOFF/Higher-Symm/Only-C60
REM
REM
REM
REM
REM
REM ./C.cell (28575a23ae977d3b5fae324c64b13b57)
REM
REM compiler GCC version 9.2.1 20190827 (Red Hat 9.2.1-1)
REM options -cpp -mtune=generic -march=x86-64 -g -O0 -fpre-include=/usr/include/finclude/math-vector-fortran.h
REM seed -1585394085 2124226726 1253832316 1211564915 202572825 -1779392316 -278556282 1670311656 -839485793 2091674899 912241311 -749746785 -1073120358 543828087 240245793 1281240882 1358537811 150965511 1502814568 317289596 1222163729 143221988 -94444628 -366774008 -1394764055 1490050633 -908776526 1625394245 -128643950 -1479616266 1157174292 -983378139 -1790421443
REM
CELL 1.54180   50.00000   50.00000   50.00000   90.00000   90.00000   90.00000
LATT -1
SFAC C  
C      1  0.5158150000000  0.4699520000000  0.5451620000000 1.0
C      1  0.5451620000000  0.5158150000000  0.4699520000000 1.0
C      1  0.4699520000000  0.5451620000000  0.5158150000000 1.0
C      1  0.4841850000000  0.5300480000000  0.5451620000000 1.0
C      1  0.4841850000000  0.4699520000000  0.4548380000000 1.0
C      1  0.5158150000000  0.5300480000000  0.4548380000000 1.0
C      1  0.4548380000000  0.4841850000000  0.4699520000000 1.0
C      1  0.4548380000000  0.5158150000000  0.5300480000000 1.0
C      1  0.5451620000000  0.4841850000000  0.5300480000000 1.0
C      1  0.5300480000000  0.4548380000000  0.5158150000000 1.0
C      1  0.5300480000000  0.5451620000000  0.4841850000000 1.0
C      1  0.4699520000000  0.4548380000000  0.4841850000000 1.0
C      1  0.5158150000000  0.4699520000000  0.4548380000000 1.0
C      1  0.5451620000000  0.5158150000000  0.5300480000000 1.0
C      1  0.4699520000000  0.5451620000000  0.4841850000000 1.0
C      1  0.4841850000000  0.5300480000000  0.4548380000000 1.0
C      1  0.4841850000000  0.4699520000000  0.5451620000000 1.0
C      1  0.5158150000000  0.5300480000000  0.5451620000000 1.0
C      1  0.4548380000000  0.4841850000000  0.5300480000000 1.0
C      1  0.4548380000000  0.5158150000000  0.4699520000000 1.0
C      1  0.5451620000000  0.4841850000000  0.4699520000000 1.0
C      1  0.5300480000000  0.4548380000000  0.4841850000000 1.0
C      1  0.5300480000000  0.5451620000000  0.5158150000000 1.0
C      1  0.4699520000000  0.4548380000000  0.5158150000000 1.0
C      1  0.4757710000000  0.5737520000000  0.5247250000000 1.0
C      1  0.5247250000000  0.4757710000000  0.5737520000000 1.0
C      1  0.5737520000000  0.5247250000000  0.4757710000000 1.0
C      1  0.5242290000000  0.4262480000000  0.5247250000000 1.0
C      1  0.5242290000000  0.5737520000000  0.4752750000000 1.0
C      1  0.4757710000000  0.4262480000000  0.4752750000000 1.0
C      1  0.4752750000000  0.5242290000000  0.5737520000000 1.0
C      1  0.4752750000000  0.4757710000000  0.4262480000000 1.0
C      1  0.5247250000000  0.5242290000000  0.4262480000000 1.0
C      1  0.4262480000000  0.4752750000000  0.4757710000000 1.0
C      1  0.4262480000000  0.5247250000000  0.5242290000000 1.0
C      1  0.5737520000000  0.4752750000000  0.5242290000000 1.0
C      1  0.4757710000000  0.5737520000000  0.4752750000000 1.0
C      1  0.5247250000000  0.4757710000000  0.4262480000000 1.0
C      1  0.5737520000000  0.5247250000000  0.5242290000000 1.0
C      1  0.5242290000000  0.4262480000000  0.4752750000000 1.0
C      1  0.5242290000000  0.5737520000000  0.5247250000000 1.0
C      1  0.4757710000000  0.4262480000000  0.5247250000000 1.0
C      1  0.4752750000000  0.5242290000000  0.4262480000000 1.0
C      1  0.4752750000000  0.4757710000000  0.5737520000000 1.0
C      1  0.5247250000000  0.5242290000000  0.5737520000000 1.0
C      1  0.4262480000000  0.4752750000000  0.5242290000000 1.0
C      1  0.4262480000000  0.5247250000000  0.4757710000000 1.0
C      1  0.5737520000000  0.4752750000000  0.4757710000000 1.0
C      1  0.4127670000000  0.5149870000000  0.5000000000000 1.0
C      1  0.5000000000000  0.4127670000000  0.5149870000000 1.0
C      1  0.5149870000000  0.5000000000000  0.4127670000000 1.0
C      1  0.5872330000000  0.4850130000000  0.5000000000000 1.0
C      1  0.5872330000000  0.5149870000000  0.5000000000000 1.0
C      1  0.4127670000000  0.4850130000000  0.5000000000000 1.0
C      1  0.5000000000000  0.5872330000000  0.5149870000000 1.0
C      1  0.5000000000000  0.4127670000000  0.4850130000000 1.0
C      1  0.5000000000000  0.5872330000000  0.4850130000000 1.0
C      1  0.4850130000000  0.5000000000000  0.5872330000000 1.0
C      1  0.4850130000000  0.5000000000000  0.4127670000000 1.0
C      1  0.5149870000000  0.5000000000000  0.5872330000000 1.0
END
