TITL C-3985245-9316-121 -3.73900699493982e-08 125000 -341.528819564856 0 0 60 (C1) n - 1
REM
REM in /home/nfs/bkarasulu/CARBON/AIRSS/Generating-Clusters/TERSOFF/Higher-Symm/Only-C60
REM
REM
REM
REM
REM
REM ./C.cell (28575a23ae977d3b5fae324c64b13b57)
REM
REM compiler GCC version 9.2.1 20190827 (Red Hat 9.2.1-1)
REM options -cpp -mtune=generic -march=x86-64 -g -O0 -fpre-include=/usr/include/finclude/math-vector-fortran.h
REM seed 430208134 925176860 -90536357 -11233492 24255002 156145598 773264237 -1785717825 -1350758410 -342938346 -142496378 -1479101855 873876883 -1592875865 1139026863 -700222218 -174982650 -1368173287 86959512 124962210 1645064288 -33680717 638936680 1108148082 -1544017209 -520949956 -31165021 1133728215 614696081 -1465888138 827079992 -706498610 -146941332
REM
CELL 1.54180   50.00000   50.00000   50.00000   90.00000   90.00000   90.00000
LATT -1
SFAC C  
C      1  0.4413000000000  0.5381780000000  0.5161320000000 1.0
C      1  0.5056670000000  0.5402030000000  0.5204280000000 1.0
C      1  0.5074370000000  0.4508690000000  0.4424700000000 1.0
C      1  0.5350720000000  0.5061260000000  0.4867630000000 1.0
C      1  0.4629290000000  0.4512020000000  0.5260910000000 1.0
C      1  0.5337060000000  0.4803270000000  0.4746460000000 1.0
C      1  0.4925820000000  0.4642910000000  0.5635780000000 1.0
C      1  0.5479640000000  0.4355600000000  0.5166210000000 1.0
C      1  0.4823020000000  0.5380920000000  0.4520540000000 1.0
C      1  0.4443710000000  0.5633040000000  0.4713980000000 1.0
C      1  0.5031020000000  0.5027100000000  0.4432340000000 1.0
C      1  0.5328690000000  0.5558100000000  0.4640500000000 1.0
C      1  0.5439510000000  0.4749760000000  0.5503880000000 1.0
C      1  0.5159060000000  0.4627430000000  0.5430420000000 1.0
C      1  0.5234630000000  0.4788700000000  0.4463520000000 1.0
C      1  0.5591860000000  0.5221540000000  0.4732540000000 1.0
C      1  0.4847470000000  0.4311110000000  0.5228570000000 1.0
C      1  0.4966390000000  0.5319150000000  0.4945300000000 1.0
C      1  0.4417760000000  0.5078800000000  0.5228940000000 1.0
C      1  0.4940450000000  0.4671190000000  0.4871160000000 1.0
C      1  0.5751170000000  0.4774660000000  0.4969240000000 1.0
C      1  0.5000270000000  0.4853030000000  0.5829270000000 1.0
C      1  0.5313060000000  0.5028760000000  0.5172910000000 1.0
C      1  0.5731910000000  0.5024020000000  0.5142360000000 1.0
C      1  0.4838260000000  0.5426420000000  0.5407920000000 1.0
C      1  0.5505170000000  0.4872380000000  0.4346700000000 1.0
C      1  0.4908180000000  0.5732050000000  0.4897790000000 1.0
C      1  0.4851850000000  0.4668740000000  0.4586860000000 1.0
C      1  0.4529470000000  0.4463590000000  0.4761070000000 1.0
C      1  0.5679140000000  0.5068270000000  0.4485240000000 1.0
C      1  0.4741100000000  0.4248250000000  0.4747390000000 1.0
C      1  0.5547860000000  0.5012070000000  0.5375180000000 1.0
C      1  0.4473300000000  0.4940070000000  0.4548360000000 1.0
C      1  0.5246240000000  0.5267730000000  0.5660890000000 1.0
C      1  0.4616090000000  0.5565830000000  0.5290380000000 1.0
C      1  0.5065530000000  0.4911770000000  0.5297080000000 1.0
C      1  0.5387020000000  0.5484110000000  0.5190300000000 1.0
C      1  0.5453930000000  0.5298160000000  0.5462460000000 1.0
C      1  0.4469440000000  0.4595930000000  0.5027220000000 1.0
C      1  0.4726830000000  0.5086570000000  0.4615650000000 1.0
C      1  0.5034780000000  0.5068250000000  0.5622210000000 1.0
C      1  0.4273320000000  0.4970060000000  0.4757140000000 1.0
C      1  0.5127950000000  0.5349230000000  0.4421920000000 1.0
C      1  0.5176610000000  0.5277620000000  0.4759640000000 1.0
C      1  0.5155920000000  0.4470770000000  0.4927410000000 1.0
C      1  0.4864060000000  0.4875520000000  0.5063020000000 1.0
C      1  0.5034430000000  0.4304830000000  0.4688670000000 1.0
C      1  0.4560900000000  0.4657320000000  0.4522880000000 1.0
C      1  0.4738320000000  0.5784740000000  0.5133500000000 1.0
C      1  0.4771760000000  0.5113270000000  0.4919770000000 1.0
C      1  0.5654070000000  0.5305210000000  0.5024440000000 1.0
C      1  0.4341070000000  0.4874680000000  0.5023330000000 1.0
C      1  0.4296930000000  0.5477090000000  0.4910980000000 1.0
C      1  0.4668180000000  0.4698890000000  0.5484940000000 1.0
C      1  0.5222500000000  0.5662740000000  0.4920220000000 1.0
C      1  0.5500960000000  0.4572140000000  0.4896810000000 1.0
C      1  0.5152270000000  0.4385980000000  0.5241220000000 1.0
C      1  0.4779280000000  0.5188500000000  0.5559640000000 1.0
C      1  0.4734240000000  0.5615000000000  0.4674170000000 1.0
C      1  0.4586480000000  0.4991390000000  0.5454820000000 1.0
END
