TITL C-3985254-1270-403 -5.68418898093297e-08 125000 -293.712717019247 0 0 60 (Th) n - 1
REM
REM in /home/nfs/bkarasulu/CARBON/AIRSS/Generating-Clusters/TERSOFF/Higher-Symm/Only-C60
REM
REM
REM
REM
REM
REM ./C.cell (28575a23ae977d3b5fae324c64b13b57)
REM
REM compiler GCC version 9.2.1 20190827 (Red Hat 9.2.1-1)
REM options -cpp -mtune=generic -march=x86-64 -g -O0 -fpre-include=/usr/include/finclude/math-vector-fortran.h
REM seed 11334607 145021118 1952398325 1829078 -2106796164 -169828569 543056647 -966222331 -892689991 -1560072492 -1583832221 848916088 -553094057 876799170 -1339010303 -1067183797 1994645789 1846046417 1870805253 -1099019765 -2094904552 578345798 -1629284706 -1495470098 894878311 1782711758 -1167577768 -1201581595 -1835497470 1626544925 1465604546 -2134729864 937467942
REM
CELL 1.54180   50.00000   50.00000   50.00000   90.00000   90.00000   90.00000
LATT -1
SFAC C  
C      1  0.4230940000000  0.4746350000000  0.4841840000000 1.0
C      1  0.4746350000000  0.4841840000000  0.4230940000000 1.0
C      1  0.4841840000000  0.4230940000000  0.4746350000000 1.0
C      1  0.5769060000000  0.5253650000000  0.4841840000000 1.0
C      1  0.4230940000000  0.5253650000000  0.5158160000000 1.0
C      1  0.5769060000000  0.4746350000000  0.5158160000000 1.0
C      1  0.5253650000000  0.5158160000000  0.4230940000000 1.0
C      1  0.4746350000000  0.5158160000000  0.5769060000000 1.0
C      1  0.5253650000000  0.4841840000000  0.5769060000000 1.0
C      1  0.5158160000000  0.5769060000000  0.4746350000000 1.0
C      1  0.4841840000000  0.5769060000000  0.5253650000000 1.0
C      1  0.5158160000000  0.4230940000000  0.5253650000000 1.0
C      1  0.4230940000000  0.4746350000000  0.5158160000000 1.0
C      1  0.4746350000000  0.4841840000000  0.5769060000000 1.0
C      1  0.4841840000000  0.4230940000000  0.5253650000000 1.0
C      1  0.5769060000000  0.5253650000000  0.5158160000000 1.0
C      1  0.4230940000000  0.5253650000000  0.4841840000000 1.0
C      1  0.5769060000000  0.4746350000000  0.4841840000000 1.0
C      1  0.5253650000000  0.5158160000000  0.5769060000000 1.0
C      1  0.4746350000000  0.5158160000000  0.4230940000000 1.0
C      1  0.5253650000000  0.4841840000000  0.4230940000000 1.0
C      1  0.5158160000000  0.5769060000000  0.5253650000000 1.0
C      1  0.4841840000000  0.5769060000000  0.4746350000000 1.0
C      1  0.5158160000000  0.4230940000000  0.4746350000000 1.0
C      1  0.4666640000000  0.5165200000000  0.4544480000000 1.0
C      1  0.5165200000000  0.4544480000000  0.4666640000000 1.0
C      1  0.4544480000000  0.4666640000000  0.5165200000000 1.0
C      1  0.5333360000000  0.4834800000000  0.4544480000000 1.0
C      1  0.4666640000000  0.4834800000000  0.5455520000000 1.0
C      1  0.5333360000000  0.5165200000000  0.5455520000000 1.0
C      1  0.4834800000000  0.5455520000000  0.4666640000000 1.0
C      1  0.5165200000000  0.5455520000000  0.5333360000000 1.0
C      1  0.4834800000000  0.4544480000000  0.5333360000000 1.0
C      1  0.5455520000000  0.5333360000000  0.5165200000000 1.0
C      1  0.4544480000000  0.5333360000000  0.4834800000000 1.0
C      1  0.5455520000000  0.4666640000000  0.4834800000000 1.0
C      1  0.4666640000000  0.5165200000000  0.5455520000000 1.0
C      1  0.5165200000000  0.4544480000000  0.5333360000000 1.0
C      1  0.4544480000000  0.4666640000000  0.4834800000000 1.0
C      1  0.5333360000000  0.4834800000000  0.5455520000000 1.0
C      1  0.4666640000000  0.4834800000000  0.4544480000000 1.0
C      1  0.5333360000000  0.5165200000000  0.4544480000000 1.0
C      1  0.4834800000000  0.5455520000000  0.5333360000000 1.0
C      1  0.5165200000000  0.5455520000000  0.4666640000000 1.0
C      1  0.4834800000000  0.4544480000000  0.4666640000000 1.0
C      1  0.5455520000000  0.5333360000000  0.4834800000000 1.0
C      1  0.4544480000000  0.5333360000000  0.5165200000000 1.0
C      1  0.5455520000000  0.4666640000000  0.5165200000000 1.0
C      1  0.5847830000000  0.5000000000000  0.5279280000000 1.0
C      1  0.5000000000000  0.5279280000000  0.5847830000000 1.0
C      1  0.5279280000000  0.4152170000000  0.5000000000000 1.0
C      1  0.4720720000000  0.5847830000000  0.5000000000000 1.0
C      1  0.4152170000000  0.5000000000000  0.5279280000000 1.0
C      1  0.5847830000000  0.5000000000000  0.4720720000000 1.0
C      1  0.4152170000000  0.5000000000000  0.4720720000000 1.0
C      1  0.5000000000000  0.4720720000000  0.5847830000000 1.0
C      1  0.5000000000000  0.4720720000000  0.4152170000000 1.0
C      1  0.5000000000000  0.5279280000000  0.4152170000000 1.0
C      1  0.5279280000000  0.5847830000000  0.5000000000000 1.0
C      1  0.4720720000000  0.4152170000000  0.5000000000000 1.0
END
