TITL C-3985254-1270-1257 2.92552196618847e-07 125000 -310.209087762442 0 0 60 (C4) n - 1
REM
REM in /home/nfs/bkarasulu/CARBON/AIRSS/Generating-Clusters/TERSOFF/Higher-Symm/Only-C60
REM
REM
REM
REM
REM
REM ./C.cell (28575a23ae977d3b5fae324c64b13b57)
REM
REM compiler GCC version 9.2.1 20190827 (Red Hat 9.2.1-1)
REM options -cpp -mtune=generic -march=x86-64 -g -O0 -fpre-include=/usr/include/finclude/math-vector-fortran.h
REM seed 1174301624 -1651956021 -1847494883 -232460362 532366503 -1061770083 397738190 -1491604475 -932269300 -33883430 -1394403406 -1100861235 -983369538 -1255138303 1030748930 1546680049 -1326488475 454672165 289166872 -1984508124 -835300936 -139808341 978772241 854594696 -532107828 206336919 665441842 1597084665 1678139295 -409784798 -1875223963 431884796 1187132532
REM
CELL 1.54180   50.00000   50.00000   50.00000   90.00000   90.00000   90.00000
LATT -1
SFAC C  
C      1  0.5427030000000  0.5026740000000  0.4404350000000 1.0
C      1  0.4973260000000  0.5427030000000  0.4404350000000 1.0
C      1  0.4572970000000  0.4973260000000  0.4404350000000 1.0
C      1  0.5026740000000  0.4572970000000  0.4404350000000 1.0
C      1  0.5192670000000  0.5145670000000  0.5343520000000 1.0
C      1  0.4854330000000  0.5192670000000  0.5343520000000 1.0
C      1  0.4807330000000  0.4854330000000  0.5343520000000 1.0
C      1  0.5145670000000  0.4807330000000  0.5343520000000 1.0
C      1  0.5630120000000  0.4933000000000  0.5417380000000 1.0
C      1  0.5067000000000  0.5630120000000  0.5417380000000 1.0
C      1  0.4369880000000  0.5067000000000  0.5417380000000 1.0
C      1  0.4933000000000  0.4369880000000  0.5417380000000 1.0
C      1  0.5298540000000  0.4710010000000  0.5602720000000 1.0
C      1  0.5289990000000  0.5298540000000  0.5602720000000 1.0
C      1  0.4701460000000  0.5289990000000  0.5602720000000 1.0
C      1  0.4710010000000  0.4701460000000  0.5602720000000 1.0
C      1  0.4814250000000  0.4584820000000  0.4610500000000 1.0
C      1  0.5415180000000  0.4814250000000  0.4610500000000 1.0
C      1  0.5185750000000  0.5415180000000  0.4610500000000 1.0
C      1  0.4584820000000  0.5185750000000  0.4610500000000 1.0
C      1  0.5593440000000  0.5212190000000  0.4887740000000 1.0
C      1  0.4787810000000  0.5593440000000  0.4887740000000 1.0
C      1  0.4406560000000  0.4787810000000  0.4887740000000 1.0
C      1  0.5212190000000  0.4406560000000  0.4887740000000 1.0
C      1  0.4447450000000  0.5374150000000  0.5359790000000 1.0
C      1  0.4625850000000  0.4447450000000  0.5359790000000 1.0
C      1  0.5552550000000  0.4625850000000  0.5359790000000 1.0
C      1  0.5374150000000  0.5552550000000  0.5359790000000 1.0
C      1  0.4978860000000  0.5446060000000  0.5665250000000 1.0
C      1  0.4553940000000  0.4978860000000  0.5665250000000 1.0
C      1  0.5021140000000  0.4553940000000  0.5665250000000 1.0
C      1  0.5446060000000  0.5021140000000  0.5665250000000 1.0
C      1  0.5199160000000  0.4904530000000  0.4820110000000 1.0
C      1  0.5095470000000  0.5199160000000  0.4820110000000 1.0
C      1  0.4800840000000  0.5095470000000  0.4820110000000 1.0
C      1  0.4904530000000  0.4800840000000  0.4820110000000 1.0
C      1  0.5016880000000  0.4774610000000  0.4191470000000 1.0
C      1  0.5225390000000  0.5016880000000  0.4191470000000 1.0
C      1  0.4983120000000  0.5225390000000  0.4191470000000 1.0
C      1  0.4774610000000  0.4983120000000  0.4191470000000 1.0
C      1  0.4854530000000  0.4355690000000  0.4827440000000 1.0
C      1  0.5644310000000  0.4854530000000  0.4827440000000 1.0
C      1  0.5145470000000  0.5644310000000  0.4827440000000 1.0
C      1  0.4355690000000  0.5145470000000  0.4827440000000 1.0
C      1  0.5494200000000  0.5076040000000  0.5172970000000 1.0
C      1  0.4923960000000  0.5494200000000  0.5172970000000 1.0
C      1  0.4505800000000  0.4923960000000  0.5172970000000 1.0
C      1  0.5076040000000  0.4505800000000  0.5172970000000 1.0
C      1  0.5493080000000  0.4591580000000  0.5030640000000 1.0
C      1  0.5408420000000  0.5493080000000  0.5030640000000 1.0
C      1  0.4506920000000  0.5408420000000  0.5030640000000 1.0
C      1  0.4591580000000  0.4506920000000  0.5030640000000 1.0
C      1  0.5160710000000  0.5315060000000  0.5085140000000 1.0
C      1  0.4684940000000  0.5160710000000  0.5085140000000 1.0
C      1  0.4839290000000  0.4684940000000  0.5085140000000 1.0
C      1  0.5315060000000  0.4839290000000  0.5085140000000 1.0
C      1  0.5453300000000  0.5271190000000  0.4580980000000 1.0
C      1  0.4728810000000  0.5453300000000  0.4580980000000 1.0
C      1  0.4546700000000  0.4728810000000  0.4580980000000 1.0
C      1  0.5271190000000  0.4546700000000  0.4580980000000 1.0
END
