TITL C-3985259-1859-1187 -5.29468080801471e-08 125000 -352.40214939452 0 0 60 (C3) n - 1
REM
REM in /home/nfs/bkarasulu/CARBON/AIRSS/Generating-Clusters/TERSOFF/Higher-Symm/Only-C60
REM
REM
REM
REM
REM
REM ./C.cell (28575a23ae977d3b5fae324c64b13b57)
REM
REM compiler GCC version 9.2.1 20190827 (Red Hat 9.2.1-1)
REM options -cpp -mtune=generic -march=x86-64 -g -O0 -fpre-include=/usr/include/finclude/math-vector-fortran.h
REM seed -1641308997 -1158561790 623666771 -526974306 -435938958 319469025 2000436175 -631186007 -1060442783 658524693 -1751614978 -53740689 1035167848 -1253373001 -1842345845 236920876 17407565 1783855593 -1664392583 1233234328 -462368796 -295148112 -1830443463 -2022292116 450169560 -1714739578 -387359156 45113302 -1839494138 -857544239 1662895459 -2043085915 -1823528614
REM
CELL 1.54180   50.00000   50.00000   50.00000   90.00000   90.00000   90.00000
LATT -1
SFAC C  
C      1  0.5147530000000  0.5258890000000  0.5462790000000 1.0
C      1  0.5150440000000  0.4742790000000  0.5462790000000 1.0
C      1  0.4702030000000  0.4998310000000  0.5462790000000 1.0
C      1  0.4852470000000  0.5258890000000  0.5462790000000 1.0
C      1  0.4849560000000  0.4742790000000  0.5462790000000 1.0
C      1  0.5297970000000  0.4998310000000  0.5462790000000 1.0
C      1  0.4345760000000  0.4790470000000  0.4762500000000 1.0
C      1  0.5145660000000  0.5671360000000  0.4762510000000 1.0
C      1  0.5508580000000  0.4538180000000  0.4762500000000 1.0
C      1  0.5654240000000  0.4790470000000  0.4762500000000 1.0
C      1  0.4854340000000  0.5671360000000  0.4762510000000 1.0
C      1  0.4491420000000  0.4538180000000  0.4762500000000 1.0
C      1  0.5524920000000  0.5466130000000  0.5201210000000 1.0
C      1  0.5141220000000  0.4312340000000  0.5201200000000 1.0
C      1  0.4333860000000  0.5221520000000  0.5201210000000 1.0
C      1  0.4475080000000  0.5466130000000  0.5201210000000 1.0
C      1  0.4858770000000  0.4312340000000  0.5201200000000 1.0
C      1  0.5666140000000  0.5221520000000  0.5201210000000 1.0
C      1  0.4816310000000  0.4507980000000  0.4704740000000 1.0
C      1  0.4665740000000  0.5405090000000  0.4704750000000 1.0
C      1  0.5517940000000  0.5086930000000  0.4704740000000 1.0
C      1  0.5183690000000  0.4507980000000  0.4704740000000 1.0
C      1  0.5334260000000  0.5405090000000  0.4704750000000 1.0
C      1  0.4482060000000  0.5086930000000  0.4704740000000 1.0
C      1  0.5290700000000  0.4497510000000  0.5368810000000 1.0
C      1  0.4419480000000  0.4999490000000  0.5368820000000 1.0
C      1  0.5289820000000  0.5503000000000  0.5368820000000 1.0
C      1  0.4709300000000  0.4497510000000  0.5368810000000 1.0
C      1  0.5580520000000  0.4999490000000  0.5368820000000 1.0
C      1  0.4710180000000  0.5503000000000  0.5368820000000 1.0
C      1  0.4734540000000  0.4243370000000  0.4936240000000 1.0
C      1  0.4477460000000  0.5608210000000  0.4936250000000 1.0
C      1  0.5787990000000  0.5148420000000  0.4936250000000 1.0
C      1  0.5265460000000  0.4243370000000  0.4936240000000 1.0
C      1  0.5522540000000  0.5608210000000  0.4936250000000 1.0
C      1  0.4212010000000  0.5148420000000  0.4936250000000 1.0
C      1  0.4853510000000  0.5258630000000  0.4482380000000 1.0
C      1  0.5297220000000  0.4997550000000  0.4482380000000 1.0
C      1  0.4849270000000  0.4743830000000  0.4482380000000 1.0
C      1  0.5146490000000  0.5258630000000  0.4482380000000 1.0
C      1  0.4702780000000  0.4997550000000  0.4482380000000 1.0
C      1  0.5150730000000  0.4743830000000  0.4482380000000 1.0
C      1  0.5286210000000  0.5820940000000  0.4992270000000 1.0
C      1  0.5567850000000  0.4341670000000  0.4992270000000 1.0
C      1  0.4145940000000  0.4837400000000  0.4992270000000 1.0
C      1  0.4713790000000  0.5820940000000  0.4992270000000 1.0
C      1  0.4432150000000  0.4341670000000  0.4992270000000 1.0
C      1  0.5854060000000  0.4837400000000  0.4992270000000 1.0
C      1  0.5145700000000  0.5740330000000  0.5254390000000 1.0
C      1  0.5568290000000  0.4503650000000  0.5254380000000 1.0
C      1  0.4286000000000  0.4756020000000  0.5254380000000 1.0
C      1  0.4854300000000  0.5740330000000  0.5254390000000 1.0
C      1  0.4431710000000  0.4503650000000  0.5254380000000 1.0
C      1  0.5714000000000  0.4756020000000  0.5254380000000 1.0
C      1  0.5146480000000  0.3987840000000  0.4834660000000 1.0
C      1  0.4050200000000  0.5379220000000  0.4834660000000 1.0
C      1  0.5803320000000  0.5632940000000  0.4834660000000 1.0
C      1  0.4853520000000  0.3987840000000  0.4834660000000 1.0
C      1  0.5949800000000  0.5379220000000  0.4834660000000 1.0
C      1  0.4196680000000  0.5632940000000  0.4834660000000 1.0
END
