TITL C-3985255-5397-55 0.00255412455119973 125000 -314.203012761106 0 0 60 (C2h) n - 1
REM
REM in /home/nfs/bkarasulu/CARBON/AIRSS/Generating-Clusters/TERSOFF/Higher-Symm/Only-C60
REM
REM
REM
REM
REM
REM ./C.cell (28575a23ae977d3b5fae324c64b13b57)
REM
REM compiler GCC version 9.2.1 20190827 (Red Hat 9.2.1-1)
REM options -cpp -mtune=generic -march=x86-64 -g -O0 -fpre-include=/usr/include/finclude/math-vector-fortran.h
REM seed 657099400 1459744013 1250548908 294589228 1573578674 1769264420 1465614809 -1343564369 -1002311579 376571833 -2143553575 -14743716 73247840 1643943290 1372431202 -546736019 1364523783 1902506274 2082539001 -211793133 -11117678 -1320001430 -1586687972 77138990 1541846393 -1170038245 789341294 -1252058293 578486502 -168084645 1304075509 -692789533 1543733807
REM
CELL 1.54180   50.00000   50.00000   50.00000   90.00000   90.00000   90.00000
LATT -1
SFAC C  
C      1  0.4596950000000  0.5180910000000  0.5631200000000 1.0
C      1  0.5403050000000  0.4819090000000  0.5631200000000 1.0
C      1  0.4596950000000  0.5180910000000  0.4368800000000 1.0
C      1  0.5403050000000  0.4819090000000  0.4368800000000 1.0
C      1  0.5571830000000  0.4723170000000  0.5174050000000 1.0
C      1  0.4428170000000  0.5276830000000  0.5174050000000 1.0
C      1  0.5571830000000  0.4723170000000  0.4825950000000 1.0
C      1  0.4428170000000  0.5276830000000  0.4825950000000 1.0
C      1  0.4600570000000  0.4889540000000  0.4429860000000 1.0
C      1  0.5399430000000  0.5110460000000  0.4429860000000 1.0
C      1  0.4600580000000  0.4889530000000  0.5570140000000 1.0
C      1  0.5399420000000  0.5110470000000  0.5570140000000 1.0
C      1  0.4257300000000  0.4997980000000  0.4828280000000 1.0
C      1  0.5742700000000  0.5002020000000  0.4828280000000 1.0
C      1  0.4257300000000  0.4997980000000  0.5171720000000 1.0
C      1  0.5742700000000  0.5002020000000  0.5171720000000 1.0
C      1  0.4687570000000  0.4273620000000  0.4566070000000 1.0
C      1  0.5312440000000  0.5726390000000  0.4566070000000 1.0
C      1  0.4687590000000  0.4273580000000  0.5433920000000 1.0
C      1  0.5312420000000  0.5726420000000  0.5433920000000 1.0
C      1  0.4553710000000  0.4300490000000  0.5159250000000 1.0
C      1  0.5446270000000  0.5699470000000  0.5159240000000 1.0
C      1  0.4553860000000  0.4300600000000  0.4840830000000 1.0
C      1  0.5446140000000  0.5699370000000  0.4840840000000 1.0
C      1  0.4905190000000  0.4446590000000  0.5535510000000 1.0
C      1  0.5094800000000  0.5553410000000  0.5535530000000 1.0
C      1  0.4905180000000  0.4446520000000  0.4464130000000 1.0
C      1  0.5094810000000  0.5553470000000  0.4464150000000 1.0
C      1  0.4969180000000  0.4606710000000  0.4846910000000 1.0
C      1  0.5030830000000  0.5393300000000  0.4846900000000 1.0
C      1  0.4969130000000  0.4606570000000  0.5153400000000 1.0
C      1  0.5030870000000  0.5393430000000  0.5153380000000 1.0
C      1  0.4871310000000  0.4752850000000  0.5554110000000 1.0
C      1  0.5128690000000  0.5247160000000  0.5554110000000 1.0
C      1  0.4871320000000  0.4752820000000  0.4445880000000 1.0
C      1  0.5128680000000  0.5247180000000  0.4445880000000 1.0
C      1  0.5066900000000  0.4863710000000  0.5315430000000 1.0
C      1  0.4933100000000  0.5136280000000  0.5315430000000 1.0
C      1  0.5066900000000  0.4863710000000  0.4684560000000 1.0
C      1  0.4933100000000  0.5136290000000  0.4684560000000 1.0
C      1  0.5165860000000  0.4446260000000  0.5358300000000 1.0
C      1  0.4834140000000  0.5553740000000  0.5358300000000 1.0
C      1  0.5165860000000  0.4446250000000  0.4641680000000 1.0
C      1  0.4834140000000  0.5553750000000  0.4641680000000 1.0
C      1  0.5413260000000  0.4609580000000  0.5420220000000 1.0
C      1  0.4586740000000  0.5390420000000  0.5420220000000 1.0
C      1  0.5413250000000  0.4609570000000  0.4579790000000 1.0
C      1  0.4586750000000  0.5390430000000  0.4579790000000 1.0
C      1  0.5352200000000  0.5292010000000  0.5161060000000 1.0
C      1  0.4647810000000  0.4708040000000  0.5161060000000 1.0
C      1  0.5352250000000  0.5292200000000  0.4838940000000 1.0
C      1  0.4647760000000  0.4707820000000  0.4838940000000 1.0
C      1  0.5317130000000  0.4946970000000  0.5161220000000 1.0
C      1  0.4682880000000  0.5053030000000  0.5161210000000 1.0
C      1  0.5317140000000  0.4946990000000  0.4838780000000 1.0
C      1  0.4682860000000  0.5053010000000  0.4838780000000 1.0
C      1  0.4408530000000  0.4793160000000  0.5344140000000 1.0
C      1  0.5591460000000  0.5206830000000  0.5344130000000 1.0
C      1  0.4408550000000  0.4793180000000  0.4655880000000 1.0
C      1  0.5591450000000  0.5206820000000  0.4655880000000 1.0
END
