TITL C-3985254-1270-230 0.000302176744452937 125000 -297.402591374247 0 0 60 (C5) n - 1
REM
REM in /home/nfs/bkarasulu/CARBON/AIRSS/Generating-Clusters/TERSOFF/Higher-Symm/Only-C60
REM
REM
REM
REM
REM
REM ./C.cell (28575a23ae977d3b5fae324c64b13b57)
REM
REM compiler GCC version 9.2.1 20190827 (Red Hat 9.2.1-1)
REM options -cpp -mtune=generic -march=x86-64 -g -O0 -fpre-include=/usr/include/finclude/math-vector-fortran.h
REM seed -1377453760 -1290814269 2063069511 -878686264 1116277720 -927017563 -833619849 882626383 339482331 -162564868 -897296689 2024721076 720376395 184962315 -820984836 58715235 1592650209 1180846876 1370974901 -1382118927 -404868566 410287362 1918331929 -413111628 -716845199 1316360313 -1672398169 1312350307 -937397279 1006241937 348938833 -1769039593 928840975
REM
CELL 1.54180   50.00000   50.00000   50.00000   90.00000   90.00000   90.00000
LATT -1
SFAC C  
C      1  0.4316320000000  0.4769830000000  0.4861950000000 1.0
C      1  0.4920040000000  0.4769730000000  0.4307860000000 1.0
C      1  0.5632860000000  0.4769150000000  0.4710500000000 1.0
C      1  0.5473660000000  0.4769970000000  0.5515310000000 1.0
C      1  0.4659070000000  0.4769240000000  0.5605710000000 1.0
C      1  0.4409670000000  0.4613890000000  0.5132500000000 1.0
C      1  0.4690500000000  0.4614000000000  0.4480440000000 1.0
C      1  0.5398280000000  0.4613770000000  0.4544280000000 1.0
C      1  0.5553670000000  0.4614600000000  0.5240390000000 1.0
C      1  0.4947810000000  0.4614730000000  0.5602710000000 1.0
C      1  0.4905370000000  0.5083880000000  0.4353860000000 1.0
C      1  0.5585310000000  0.5083760000000  0.4710270000000 1.0
C      1  0.5456070000000  0.5083650000000  0.5467340000000 1.0
C      1  0.4696900000000  0.5083860000000  0.5578540000000 1.0
C      1  0.4356330000000  0.5083920000000  0.4890060000000 1.0
C      1  0.4248020000000  0.5235830000000  0.4653240000000 1.0
C      1  0.5096980000000  0.5235760000000  0.4177400000000 1.0
C      1  0.5812260000000  0.5235530000000  0.4838570000000 1.0
C      1  0.5404830000000  0.5236740000000  0.5722120000000 1.0
C      1  0.4437910000000  0.5235150000000  0.5608610000000 1.0
C      1  0.5535650000000  0.5239720000000  0.5234700000000 1.0
C      1  0.4942630000000  0.5239920000000  0.5582040000000 1.0
C      1  0.4428720000000  0.5239960000000  0.5125280000000 1.0
C      1  0.4704670000000  0.5239700000000  0.4495510000000 1.0
C      1  0.5388510000000  0.5239690000000  0.4563140000000 1.0
C      1  0.4868520000000  0.4646680000000  0.5262960000000 1.0
C      1  0.4711080000000  0.4645710000000  0.4957360000000 1.0
C      1  0.4951460000000  0.4646150000000  0.4711440000000 1.0
C      1  0.5259740000000  0.4645400000000  0.4863770000000 1.0
C      1  0.5206870000000  0.4645570000000  0.5202480000000 1.0
C      1  0.5192070000000  0.5379590000000  0.4760300000000 1.0
C      1  0.5287460000000  0.5379330000000  0.5108640000000 1.0
C      1  0.4985550000000  0.5379410000000  0.5306890000000 1.0
C      1  0.4703790000000  0.5379690000000  0.5081150000000 1.0
C      1  0.4831130000000  0.5379910000000  0.4743370000000 1.0
C      1  0.5752240000000  0.5101840000000  0.5095080000000 1.0
C      1  0.5142590000000  0.5102930000000  0.5745780000000 1.0
C      1  0.4335470000000  0.5101790000000  0.5365630000000 1.0
C      1  0.4446890000000  0.5102050000000  0.4480880000000 1.0
C      1  0.5322710000000  0.5102160000000  0.4313350000000 1.0
C      1  0.5281580000000  0.4987310000000  0.4880570000000 1.0
C      1  0.5199890000000  0.4987320000000  0.5230890000000 1.0
C      1  0.4841910000000  0.4987760000000  0.5261600000000 1.0
C      1  0.4702310000000  0.4987450000000  0.4931020000000 1.0
C      1  0.4973830000000  0.4987420000000  0.4695310000000 1.0
C      1  0.4621470000000  0.4426000000000  0.5302230000000 1.0
C      1  0.4596680000000  0.4425580000000  0.4734500000000 1.0
C      1  0.5127640000000  0.4425490000000  0.4533880000000 1.0
C      1  0.5484490000000  0.4426660000000  0.4977330000000 1.0
C      1  0.5169850000000  0.4424440000000  0.5450000000000 1.0
C      1  0.4847400000000  0.5712180000000  0.4780300000000 1.0
C      1  0.5161750000000  0.5712150000000  0.4787060000000 1.0
C      1  0.5252610000000  0.5712060000000  0.5088100000000 1.0
C      1  0.4994340000000  0.5712140000000  0.5267450000000 1.0
C      1  0.4743970000000  0.5712210000000  0.5077220000000 1.0
C      1  0.5695910000000  0.4803700000000  0.5031340000000 1.0
C      1  0.5187810000000  0.4804640000000  0.5673980000000 1.0
C      1  0.4418610000000  0.4803580000000  0.5384180000000 1.0
C      1  0.4453990000000  0.4803890000000  0.4565480000000 1.0
C      1  0.5244350000000  0.4803850000000  0.4346170000000 1.0
END
