TITL C-3985247-764-813 -3.41967840238008e-05 125000 -316.525197393888 0 0 60 (C1) n - 1
REM
REM in /home/nfs/bkarasulu/CARBON/AIRSS/Generating-Clusters/TERSOFF/Higher-Symm/Only-C60
REM
REM
REM
REM
REM
REM ./C.cell (28575a23ae977d3b5fae324c64b13b57)
REM
REM compiler GCC version 9.2.1 20190827 (Red Hat 9.2.1-1)
REM options -cpp -mtune=generic -march=x86-64 -g -O0 -fpre-include=/usr/include/finclude/math-vector-fortran.h
REM seed -1027982705 878528800 512997153 -539635639 1333513130 -1767630784 217848655 -1535483079 1894699754 2144504841 -753576087 91136166 875094882 -733131075 -1766448071 27344616 1842419914 1802843441 -1595413893 -1982384619 -2101787967 1469444838 402673951 276662054 -1395161403 -1227002079 1326077470 530205253 -1029059567 1622326151 1872660144 967674479 644050475
REM
CELL 1.54180   50.00000   50.00000   50.00000   90.00000   90.00000   90.00000
LATT -1
SFAC C  
C      1  0.5513990000000  0.5138380000000  0.4571050000000 1.0
C      1  0.5579400000000  0.5143500000000  0.5357690000000 1.0
C      1  0.4833830000000  0.5121910000000  0.5633760000000 1.0
C      1  0.4321620000000  0.5134870000000  0.5051490000000 1.0
C      1  0.4747510000000  0.5128320000000  0.4387000000000 1.0
C      1  0.5012610000000  0.5152250000000  0.4744570000000 1.0
C      1  0.5250850000000  0.5156130000000  0.4932670000000 1.0
C      1  0.5146070000000  0.5162200000000  0.5216300000000 1.0
C      1  0.4842400000000  0.5170350000000  0.5203930000000 1.0
C      1  0.4760130000000  0.5157890000000  0.4913870000000 1.0
C      1  0.4814300000000  0.4351280000000  0.5205760000000 1.0
C      1  0.4729780000000  0.4335940000000  0.4908750000000 1.0
C      1  0.4991940000000  0.4332720000000  0.4724550000000 1.0
C      1  0.5249080000000  0.4329180000000  0.4911940000000 1.0
C      1  0.5151270000000  0.4328080000000  0.5215300000000 1.0
C      1  0.5025910000000  0.4587880000000  0.5568720000000 1.0
C      1  0.4363370000000  0.4616300000000  0.5264040000000 1.0
C      1  0.4628230000000  0.4601630000000  0.4531450000000 1.0
C      1  0.5335560000000  0.4587020000000  0.4488360000000 1.0
C      1  0.5588600000000  0.4586550000000  0.5153310000000 1.0
C      1  0.5541910000000  0.4482140000000  0.4838020000000 1.0
C      1  0.5328450000000  0.4488880000000  0.5467650000000 1.0
C      1  0.4619650000000  0.4517980000000  0.5395690000000 1.0
C      1  0.4480490000000  0.4506940000000  0.4805380000000 1.0
C      1  0.5023200000000  0.4492050000000  0.4441550000000 1.0
C      1  0.5244270000000  0.5734730000000  0.4645360000000 1.0
C      1  0.5407060000000  0.5740300000000  0.5128530000000 1.0
C      1  0.4999300000000  0.5735620000000  0.5436170000000 1.0
C      1  0.4584970000000  0.5733030000000  0.5136690000000 1.0
C      1  0.4734020000000  0.5728370000000  0.4649090000000 1.0
C      1  0.4836850000000  0.4726460000000  0.4800420000000 1.0
C      1  0.5161260000000  0.4714000000000  0.4768280000000 1.0
C      1  0.5284240000000  0.4717020000000  0.5068300000000 1.0
C      1  0.5055220000000  0.4732740000000  0.5265790000000 1.0
C      1  0.4814310000000  0.4761260000000  0.5115530000000 1.0
C      1  0.4737330000000  0.5618550000000  0.5362940000000 1.0
C      1  0.4569820000000  0.5613570000000  0.4866240000000 1.0
C      1  0.4989830000000  0.5615210000000  0.4554270000000 1.0
C      1  0.5416470000000  0.5622120000000  0.4857850000000 1.0
C      1  0.5261860000000  0.5623580000000  0.5357860000000 1.0
C      1  0.5226080000000  0.4928380000000  0.5426410000000 1.0
C      1  0.4639850000000  0.4929190000000  0.5315180000000 1.0
C      1  0.4579290000000  0.4915310000000  0.4804020000000 1.0
C      1  0.5085450000000  0.4921450000000  0.4525410000000 1.0
C      1  0.5482440000000  0.4927510000000  0.4932450000000 1.0
C      1  0.4746370000000  0.4777260000000  0.5593340000000 1.0
C      1  0.4350110000000  0.4779420000000  0.4992040000000 1.0
C      1  0.4844540000000  0.4793120000000  0.4354820000000 1.0
C      1  0.5567200000000  0.4790950000000  0.4650280000000 1.0
C      1  0.5519820000000  0.4794550000000  0.5428630000000 1.0
C      1  0.5133600000000  0.5148440000000  0.5646760000000 1.0
C      1  0.4410680000000  0.5166040000000  0.5340040000000 1.0
C      1  0.4508640000000  0.5134110000000  0.4568590000000 1.0
C      1  0.5272080000000  0.5153420000000  0.4393290000000 1.0
C      1  0.5667220000000  0.5158490000000  0.5070320000000 1.0
C      1  0.4490790000000  0.5323940000000  0.4841510000000 1.0
C      1  0.4996120000000  0.5328120000000  0.4472530000000 1.0
C      1  0.5503150000000  0.5335350000000  0.4835510000000 1.0
C      1  0.5317210000000  0.5337890000000  0.5430780000000 1.0
C      1  0.4682370000000  0.5330170000000  0.5431940000000 1.0
END
