TITL C-3985244-725-263 -0.00104197229538023 125000 -328.878124464472 0 0 60 (C2v) n - 1
REM
REM in /home/nfs/bkarasulu/CARBON/AIRSS/Generating-Clusters/TERSOFF/Higher-Symm/Only-C60
REM
REM
REM
REM
REM
REM ./C.cell (28575a23ae977d3b5fae324c64b13b57)
REM
REM compiler GCC version 9.2.1 20190827 (Red Hat 9.2.1-1)
REM options -cpp -mtune=generic -march=x86-64 -g -O0 -fpre-include=/usr/include/finclude/math-vector-fortran.h
REM seed -1587579159 1259236887 696827878 -891556311 -611387523 -1052099679 -1248230263 -322924380 1923238928 -198838195 1728318597 -363272160 -1326818771 193064112 1749297633 -1672927314 -619964834 1308759965 -867614083 14651274 -632047736 -628793555 1419796779 -197455842 -22241655 -1815141283 -1402866440 -2137806130 1344072904 665404376 1299383217 -61959763 -829208267
REM
CELL 1.54180   50.00000   50.00000   50.00000   90.00000   90.00000   90.00000
LATT -1
SFAC C  
C      1  0.5365050000000  0.5462490000000  0.5310300000000 1.0
C      1  0.4635090000000  0.5462290000000  0.4689570000000 1.0
C      1  0.5364990000000  0.5462360000000  0.4689610000000 1.0
C      1  0.4634960000000  0.5462380000000  0.5310340000000 1.0
C      1  0.5493070000000  0.4972520000000  0.5558860000000 1.0
C      1  0.4506560000000  0.4972430000000  0.4441320000000 1.0
C      1  0.5493340000000  0.4972190000000  0.4440920000000 1.0
C      1  0.4506870000000  0.4972290000000  0.5559180000000 1.0
C      1  0.5167680000000  0.4665990000000  0.5287360000000 1.0
C      1  0.4832320000000  0.4665940000000  0.4712660000000 1.0
C      1  0.5167700000000  0.4666080000000  0.4712800000000 1.0
C      1  0.4832360000000  0.4666040000000  0.5287320000000 1.0
C      1  0.5148350000000  0.5247910000000  0.4277040000000 1.0
C      1  0.4851100000000  0.5248080000000  0.5723160000000 1.0
C      1  0.5148710000000  0.5248130000000  0.5723200000000 1.0
C      1  0.4851430000000  0.5247830000000  0.4276980000000 1.0
C      1  0.5679520000000  0.4860370000000  0.5323900000000 1.0
C      1  0.4320650000000  0.4860480000000  0.4676160000000 1.0
C      1  0.5679300000000  0.4860340000000  0.4676180000000 1.0
C      1  0.4320600000000  0.4860470000000  0.5323680000000 1.0
C      1  0.5608360000000  0.5377810000000  0.5159730000000 1.0
C      1  0.4391310000000  0.5378130000000  0.4840400000000 1.0
C      1  0.5608590000000  0.5377860000000  0.4840570000000 1.0
C      1  0.4391540000000  0.5377840000000  0.5159610000000 1.0
C      1  0.5361250000000  0.4492710000000  0.5150940000000 1.0
C      1  0.4638720000000  0.4492680000000  0.4849070000000 1.0
C      1  0.5361280000000  0.4492610000000  0.4849080000000 1.0
C      1  0.4638800000000  0.4492680000000  0.5150930000000 1.0
C      1  0.5157540000000  0.4620040000000  0.5600280000000 1.0
C      1  0.4842550000000  0.4620040000000  0.4399700000000 1.0
C      1  0.5157350000000  0.4619990000000  0.4399700000000 1.0
C      1  0.4842520000000  0.4620000000000  0.5600310000000 1.0
C      1  0.5285760000000  0.5208530000000  0.5458670000000 1.0
C      1  0.4714800000000  0.5208680000000  0.4540790000000 1.0
C      1  0.5285900000000  0.5208160000000  0.4541490000000 1.0
C      1  0.4714070000000  0.5208490000000  0.5458860000000 1.0
C      1  0.4676060000000  0.4806540000000  0.5751450000000 1.0
C      1  0.5324090000000  0.4806430000000  0.4248440000000 1.0
C      1  0.4676130000000  0.4806440000000  0.4248350000000 1.0
C      1  0.5323850000000  0.4806570000000  0.5751380000000 1.0
C      1  0.4341170000000  0.4597690000000  0.5175020000000 1.0
C      1  0.5658780000000  0.4597850000000  0.4824810000000 1.0
C      1  0.4341270000000  0.4597880000000  0.4824990000000 1.0
C      1  0.5658870000000  0.4597590000000  0.5174770000000 1.0
C      1  0.4833640000000  0.4998180000000  0.5923200000000 1.0
C      1  0.5166180000000  0.4998320000000  0.4076830000000 1.0
C      1  0.4833800000000  0.4998330000000  0.4076880000000 1.0
C      1  0.5166530000000  0.4998200000000  0.5923130000000 1.0
C      1  0.5532980000000  0.5064100000000  0.5151530000000 1.0
C      1  0.4466550000000  0.5063540000000  0.4848740000000 1.0
C      1  0.5533170000000  0.5064440000000  0.4848470000000 1.0
C      1  0.4466920000000  0.5064290000000  0.5151450000000 1.0
C      1  0.5180530000000  0.4997890000000  0.4816140000000 1.0
C      1  0.4819660000000  0.4997570000000  0.5183470000000 1.0
C      1  0.5180440000000  0.4997610000000  0.5183790000000 1.0
C      1  0.4819380000000  0.4997900000000  0.4816460000000 1.0
C      1  0.5164830000000  0.5627440000000  0.4838030000000 1.0
C      1  0.4835220000000  0.5627420000000  0.5162010000000 1.0
C      1  0.5164830000000  0.5627440000000  0.5161960000000 1.0
C      1  0.4835130000000  0.5627490000000  0.4838020000000 1.0
END
