TITL C-3985254-1270-1312 -0.00382009443196532 125000 -312.520383802219 0 0 60 (C1) n - 1
REM
REM in /home/nfs/bkarasulu/CARBON/AIRSS/Generating-Clusters/TERSOFF/Higher-Symm/Only-C60
REM
REM
REM
REM
REM
REM ./C.cell (28575a23ae977d3b5fae324c64b13b57)
REM
REM compiler GCC version 9.2.1 20190827 (Red Hat 9.2.1-1)
REM options -cpp -mtune=generic -march=x86-64 -g -O0 -fpre-include=/usr/include/finclude/math-vector-fortran.h
REM seed 164290446 2142971892 -1975168286 -2066974541 -1973855701 -447811045 -1192159020 1802025611 1012891546 1455147361 -158651315 1616367517 -467387179 2000047373 -1642355163 1687947754 -116363455 -2112494991 1262310007 1658252892 -1300726025 1818284951 -1757336993 801081578 1077715298 -590256335 811060416 -1387586145 -1773821925 447337021 117829451 772353603 -2102335514
REM
CELL 1.54180   50.00000   50.00000   50.00000   90.00000   90.00000   90.00000
LATT -1
SFAC C  
C      1  0.4632680000000  0.5446930000000  0.4483390000000 1.0
C      1  0.5612250000000  0.5086230000000  0.4494990000000 1.0
C      1  0.4817270000000  0.4412990000000  0.4500850000000 1.0
C      1  0.4474910000000  0.4482490000000  0.5156630000000 1.0
C      1  0.4809900000000  0.5709230000000  0.5165790000000 1.0
C      1  0.5729900000000  0.4811210000000  0.5204790000000 1.0
C      1  0.5196900000000  0.4778420000000  0.4509260000000 1.0
C      1  0.4749920000000  0.4924940000000  0.4481180000000 1.0
C      1  0.5097990000000  0.5236090000000  0.4494410000000 1.0
C      1  0.4704410000000  0.4680070000000  0.4643380000000 1.0
C      1  0.4896440000000  0.5384360000000  0.4658020000000 1.0
C      1  0.5427580000000  0.4881470000000  0.4660480000000 1.0
C      1  0.5352020000000  0.5587300000000  0.4671220000000 1.0
C      1  0.5359130000000  0.4394580000000  0.4717420000000 1.0
C      1  0.4296360000000  0.4987520000000  0.4596740000000 1.0
C      1  0.5089860000000  0.4515310000000  0.4630510000000 1.0
C      1  0.4558200000000  0.5150760000000  0.4576020000000 1.0
C      1  0.5385230000000  0.5293110000000  0.4591790000000 1.0
C      1  0.5293980000000  0.5314080000000  0.5627040000000 1.0
C      1  0.5102560000000  0.4592440000000  0.5624340000000 1.0
C      1  0.4564020000000  0.5128680000000  0.5584290000000 1.0
C      1  0.4938860000000  0.4651050000000  0.4920990000000 1.0
C      1  0.4712300000000  0.5194810000000  0.4907560000000 1.0
C      1  0.5332080000000  0.5116340000000  0.4891410000000 1.0
C      1  0.4716400000000  0.5343830000000  0.5460810000000 1.0
C      1  0.5418030000000  0.5076280000000  0.5492470000000 1.0
C      1  0.4846400000000  0.4586150000000  0.5463230000000 1.0
C      1  0.5463240000000  0.4678360000000  0.5301110000000 1.0
C      1  0.4490770000000  0.4782680000000  0.5234720000000 1.0
C      1  0.5046100000000  0.5551090000000  0.5290020000000 1.0
C      1  0.4417580000000  0.4735070000000  0.4744480000000 1.0
C      1  0.5082220000000  0.5570810000000  0.4817160000000 1.0
C      1  0.5495550000000  0.4644110000000  0.4837330000000 1.0
C      1  0.5160670000000  0.5353910000000  0.5079660000000 1.0
C      1  0.5257950000000  0.4730040000000  0.5072910000000 1.0
C      1  0.4499980000000  0.4939040000000  0.4976650000000 1.0
C      1  0.5765580000000  0.4657830000000  0.4953340000000 1.0
C      1  0.4327630000000  0.4494760000000  0.4898510000000 1.0
C      1  0.4931970000000  0.5804200000000  0.4915660000000 1.0
C      1  0.5352300000000  0.4759230000000  0.5560770000000 1.0
C      1  0.4652280000000  0.4852300000000  0.5475950000000 1.0
C      1  0.5014680000000  0.5430580000000  0.5560640000000 1.0
C      1  0.5535430000000  0.5075910000000  0.5186770000000 1.0
C      1  0.4795210000000  0.4490290000000  0.5166490000000 1.0
C      1  0.4667630000000  0.5419790000000  0.5163970000000 1.0
C      1  0.5099580000000  0.5022550000000  0.5225480000000 1.0
C      1  0.5053850000000  0.4965350000000  0.4077220000000 1.0
C      1  0.5009660000000  0.5096760000000  0.6253860000000 1.0
C      1  0.4978550000000  0.5006260000000  0.4927700000000 1.0
C      1  0.4951450000000  0.4964160000000  0.7020740000000 1.0
C      1  0.4902830000000  0.5015920000000  0.5996320000000 1.0
C      1  0.5021730000000  0.4976160000000  0.4371770000000 1.0
C      1  0.5058780000000  0.4989860000000  0.5753210000000 1.0
C      1  0.4913380000000  0.5141800000000  0.3383170000000 1.0
C      1  0.4943540000000  0.4971740000000  0.6507110000000 1.0
C      1  0.4849240000000  0.4966790000000  0.3605790000000 1.0
C      1  0.5054810000000  0.5048660000000  0.6763660000000 1.0
C      1  0.4946390000000  0.4992890000000  0.5478120000000 1.0
C      1  0.4852910000000  0.5046320000000  0.3885020000000 1.0
C      1  0.4960510000000  0.5053200000000  0.3111310000000 1.0
END
