TITL C-3985250-725-672 4.42298248389594e-06 125000 -332.558933874891 0 0 60 (C1) n - 1
REM
REM in /home/nfs/bkarasulu/CARBON/AIRSS/Generating-Clusters/TERSOFF/Higher-Symm/Only-C60
REM
REM
REM
REM
REM
REM ./C.cell (28575a23ae977d3b5fae324c64b13b57)
REM
REM compiler GCC version 9.2.1 20190827 (Red Hat 9.2.1-1)
REM options -cpp -mtune=generic -march=x86-64 -g -O0 -fpre-include=/usr/include/finclude/math-vector-fortran.h
REM seed 1012952691 623653039 1730817919 2097675411 729993807 209503614 1471949658 251389278 -742863474 162094688 -355710107 -474894036 788994638 311938115 -2029154655 -1134254766 -1061676596 -664706229 1134198572 -527233325 -844441691 -231987203 -1408966359 -395701635 899022259 -215440721 1980071634 1204468324 -171728230 -190038251 -1959780964 -1752886303 -450892737
REM
CELL 1.54180   50.00000   50.00000   50.00000   90.00000   90.00000   90.00000
LATT -1
SFAC C  
C      1  0.5250640000000  0.4652290000000  0.5492510000000 1.0
C      1  0.5100660000000  0.5148050000000  0.4550040000000 1.0
C      1  0.5513240000000  0.5517990000000  0.5021510000000 1.0
C      1  0.4566350000000  0.5052750000000  0.4973330000000 1.0
C      1  0.5387540000000  0.5032750000000  0.4529510000000 1.0
C      1  0.5718700000000  0.4736010000000  0.4845430000000 1.0
C      1  0.5001100000000  0.5246240000000  0.5073970000000 1.0
C      1  0.4479870000000  0.4498700000000  0.4644910000000 1.0
C      1  0.4543520000000  0.5219960000000  0.5244970000000 1.0
C      1  0.4950470000000  0.5456070000000  0.5506750000000 1.0
C      1  0.4495540000000  0.4997290000000  0.4532300000000 1.0
C      1  0.5167000000000  0.5612600000000  0.5351800000000 1.0
C      1  0.4349840000000  0.4826060000000  0.4978300000000 1.0
C      1  0.5015520000000  0.5246960000000  0.4282550000000 1.0
C      1  0.4804440000000  0.5002760000000  0.5583720000000 1.0
C      1  0.5018870000000  0.4869740000000  0.4658720000000 1.0
C      1  0.4799220000000  0.4683620000000  0.4266300000000 1.0
C      1  0.5297090000000  0.5133710000000  0.5675370000000 1.0
C      1  0.4521670000000  0.4675940000000  0.5201600000000 1.0
C      1  0.5214350000000  0.5070640000000  0.5180660000000 1.0
C      1  0.5598070000000  0.4772550000000  0.5165000000000 1.0
C      1  0.4384240000000  0.5451090000000  0.5107960000000 1.0
C      1  0.5435420000000  0.5472510000000  0.5305470000000 1.0
C      1  0.4956880000000  0.5308280000000  0.4762990000000 1.0
C      1  0.5022060000000  0.4676820000000  0.5141410000000 1.0
C      1  0.4742040000000  0.4518210000000  0.4780270000000 1.0
C      1  0.4773310000000  0.4825690000000  0.4837880000000 1.0
C      1  0.4776140000000  0.5157590000000  0.4157320000000 1.0
C      1  0.4490490000000  0.5069300000000  0.5504870000000 1.0
C      1  0.4957860000000  0.4372380000000  0.5247320000000 1.0
C      1  0.5038910000000  0.4632160000000  0.4441070000000 1.0
C      1  0.5318340000000  0.5713930000000  0.4911790000000 1.0
C      1  0.4640850000000  0.4934180000000  0.4278080000000 1.0
C      1  0.5564060000000  0.5055440000000  0.4772300000000 1.0
C      1  0.5432970000000  0.4532720000000  0.5289060000000 1.0
C      1  0.5042850000000  0.5789320000000  0.5062040000000 1.0
C      1  0.4623420000000  0.5266410000000  0.4733680000000 1.0
C      1  0.5250550000000  0.4325400000000  0.5118890000000 1.0
C      1  0.5518250000000  0.5233770000000  0.5467150000000 1.0
C      1  0.5450310000000  0.4572040000000  0.4748820000000 1.0
C      1  0.4806360000000  0.5373580000000  0.5257890000000 1.0
C      1  0.5003240000000  0.4400410000000  0.4655770000000 1.0
C      1  0.4560440000000  0.5597620000000  0.4864630000000 1.0
C      1  0.4803510000000  0.4853060000000  0.5255900000000 1.0
C      1  0.4765820000000  0.5625000000000  0.5126280000000 1.0
C      1  0.5000770000000  0.5223380000000  0.5676130000000 1.0
C      1  0.5386280000000  0.4937870000000  0.5000520000000 1.0
C      1  0.4356160000000  0.4765850000000  0.4681430000000 1.0
C      1  0.4656090000000  0.4400730000000  0.5173350000000 1.0
C      1  0.5328530000000  0.4763710000000  0.4395690000000 1.0
C      1  0.4829680000000  0.5819130000000  0.4761850000000 1.0
C      1  0.5665320000000  0.5323630000000  0.4855770000000 1.0
C      1  0.5218120000000  0.4940740000000  0.5455100000000 1.0
C      1  0.4481820000000  0.4746530000000  0.5503550000000 1.0
C      1  0.5698950000000  0.5012180000000  0.5349360000000 1.0
C      1  0.4994940000000  0.4506300000000  0.5535120000000 1.0
C      1  0.5196040000000  0.4749170000000  0.4877630000000 1.0
C      1  0.4999170000000  0.5588370000000  0.4669570000000 1.0
C      1  0.4775580000000  0.4674470000000  0.5655350000000 1.0
C      1  0.5260530000000  0.4338370000000  0.4821460000000 1.0
END
