TITL C-3985245-9316-270 1.80706859660751e-07 125000 -322.978087201819 0 0 60 (C4) n - 1
REM
REM in /home/nfs/bkarasulu/CARBON/AIRSS/Generating-Clusters/TERSOFF/Higher-Symm/Only-C60
REM
REM
REM
REM
REM
REM ./C.cell (28575a23ae977d3b5fae324c64b13b57)
REM
REM compiler GCC version 9.2.1 20190827 (Red Hat 9.2.1-1)
REM options -cpp -mtune=generic -march=x86-64 -g -O0 -fpre-include=/usr/include/finclude/math-vector-fortran.h
REM seed -852598549 -368914987 328302194 866493925 1581695491 2042736853 -946762687 -1149031155 2117314079 -1068221162 -926446294 -1961764970 -140687526 1113586141 -1619667654 215914674 1503718772 246544623 -1113653515 1028797957 -1059461017 1202437386 679472806 -31793236 886862788 1139848650 -1673553338 -261369520 -1124778024 1114331363 1931194296 -1947794775 1693580876
REM
CELL 1.54180   50.00000   50.00000   50.00000   90.00000   90.00000   90.00000
LATT -1
SFAC C  
C      1  0.5050050000000  0.5175230000000  0.5542350000000 1.0
C      1  0.4457650000000  0.5175230000000  0.5050050000000 1.0
C      1  0.4949950000000  0.5175230000000  0.4457650000000 1.0
C      1  0.5542350000000  0.5175230000000  0.4949950000000 1.0
C      1  0.5473220000000  0.5443660000000  0.5487570000000 1.0
C      1  0.4512430000000  0.5443660000000  0.5473220000000 1.0
C      1  0.4526780000000  0.5443660000000  0.4512430000000 1.0
C      1  0.5487570000000  0.5443660000000  0.4526780000000 1.0
C      1  0.4434670000000  0.5141100000000  0.4691660000000 1.0
C      1  0.5308340000000  0.5141100000000  0.4434670000000 1.0
C      1  0.5565330000000  0.5141100000000  0.5308340000000 1.0
C      1  0.4691660000000  0.5141100000000  0.5565330000000 1.0
C      1  0.4269780000000  0.5307330000000  0.5273780000000 1.0
C      1  0.4726220000000  0.5307330000000  0.4269780000000 1.0
C      1  0.5730220000000  0.5307330000000  0.4726220000000 1.0
C      1  0.5273780000000  0.5307330000000  0.5730220000000 1.0
C      1  0.5667370000000  0.4777180000000  0.4660750000000 1.0
C      1  0.5339250000000  0.4777180000000  0.5667370000000 1.0
C      1  0.4332630000000  0.4777180000000  0.5339250000000 1.0
C      1  0.4660750000000  0.4777180000000  0.4332630000000 1.0
C      1  0.4728390000000  0.4561200000000  0.4749680000000 1.0
C      1  0.5250320000000  0.4561200000000  0.4728390000000 1.0
C      1  0.5271610000000  0.4561200000000  0.5250320000000 1.0
C      1  0.4749680000000  0.4561200000000  0.5271610000000 1.0
C      1  0.4708800000000  0.5587060000000  0.5306730000000 1.0
C      1  0.4693270000000  0.5587060000000  0.4708800000000 1.0
C      1  0.5291200000000  0.5587060000000  0.4693270000000 1.0
C      1  0.5306730000000  0.5587060000000  0.5291200000000 1.0
C      1  0.4847390000000  0.5379380000000  0.5153770000000 1.0
C      1  0.4846230000000  0.5379380000000  0.4847390000000 1.0
C      1  0.5152610000000  0.5379380000000  0.4846230000000 1.0
C      1  0.5153770000000  0.5379380000000  0.5152610000000 1.0
C      1  0.5255890000000  0.4823780000000  0.4340580000000 1.0
C      1  0.5659420000000  0.4823780000000  0.5255890000000 1.0
C      1  0.4744110000000  0.4823780000000  0.5659420000000 1.0
C      1  0.4340580000000  0.4823780000000  0.4744110000000 1.0
C      1  0.5406000000000  0.4484900000000  0.4983460000000 1.0
C      1  0.5016540000000  0.4484900000000  0.5406000000000 1.0
C      1  0.4594000000000  0.4484900000000  0.5016540000000 1.0
C      1  0.4983460000000  0.4484900000000  0.4594000000000 1.0
C      1  0.5158560000000  0.4839100000000  0.4852530000000 1.0
C      1  0.5147470000000  0.4839100000000  0.5158560000000 1.0
C      1  0.4841440000000  0.4839100000000  0.5147470000000 1.0
C      1  0.4852530000000  0.4839100000000  0.4841440000000 1.0
C      1  0.4777220000000  0.5100760000000  0.4716890000000 1.0
C      1  0.5283110000000  0.5100760000000  0.4777220000000 1.0
C      1  0.5222780000000  0.5100760000000  0.5283110000000 1.0
C      1  0.4716890000000  0.5100760000000  0.5222780000000 1.0
C      1  0.4965940000000  0.4681100000000  0.4346580000000 1.0
C      1  0.5653420000000  0.4681100000000  0.4965940000000 1.0
C      1  0.5034060000000  0.4681100000000  0.5653420000000 1.0
C      1  0.4346580000000  0.4681100000000  0.5034060000000 1.0
C      1  0.5488200000000  0.4644490000000  0.5440620000000 1.0
C      1  0.4559380000000  0.4644490000000  0.5488200000000 1.0
C      1  0.4511800000000  0.4644490000000  0.4559380000000 1.0
C      1  0.5440620000000  0.4644490000000  0.4511800000000 1.0
C      1  0.4362010000000  0.5053720000000  0.5441680000000 1.0
C      1  0.4558320000000  0.5053720000000  0.4362010000000 1.0
C      1  0.5637990000000  0.5053720000000  0.4558320000000 1.0
C      1  0.5441680000000  0.5053720000000  0.5637990000000 1.0
END
