TITL C-3985245-9316-365 -3.89519485748974e-05 125000 -308.548837489834 0 0 60 (D3) n - 1
REM
REM in /home/nfs/bkarasulu/CARBON/AIRSS/Generating-Clusters/TERSOFF/Higher-Symm/Only-C60
REM
REM
REM
REM
REM
REM ./C.cell (28575a23ae977d3b5fae324c64b13b57)
REM
REM compiler GCC version 9.2.1 20190827 (Red Hat 9.2.1-1)
REM options -cpp -mtune=generic -march=x86-64 -g -O0 -fpre-include=/usr/include/finclude/math-vector-fortran.h
REM seed -2033588130 1813981009 376995307 -551700174 -619435566 1608544768 -358122340 1294318403 611867381 -1820485200 -1823705389 -1049278425 -1324028762 -1514046277 -1401424299 95003761 846764902 1410906286 767580222 1436800145 1531670742 -1032016142 422731877 387460008 2109851509 1535124334 -1038440660 1055830991 -929236086 -1061622508 889022041 1699161385 -678855121
REM
CELL 1.54180   50.00000   50.00000   50.00000   90.00000   90.00000   90.00000
LATT -1
SFAC C  
C      1  0.4901460000000  0.5320060000000  0.5042030000000 1.0
C      1  0.4901460000000  0.4803570000000  0.5256160000000 1.0
C      1  0.4901460000000  0.4876370000000  0.4701810000000 1.0
C      1  0.5098540000000  0.4679940000000  0.5042030000000 1.0
C      1  0.5098540000000  0.5196430000000  0.5256160000000 1.0
C      1  0.5098540000000  0.5123630000000  0.4701810000000 1.0
C      1  0.4460030000000  0.5470070000000  0.4617630000000 1.0
C      1  0.4460030000000  0.5096110000000  0.5598280000000 1.0
C      1  0.4460040000000  0.4433820000000  0.4784100000000 1.0
C      1  0.5539970000000  0.4529930000000  0.4617630000000 1.0
C      1  0.5539970000000  0.4903890000000  0.5598280000000 1.0
C      1  0.5539960000000  0.5566180000000  0.4784100000000 1.0
C      1  0.5182660000000  0.5459980000000  0.5384310000000 1.0
C      1  0.5182660000000  0.4437190000000  0.5206200000000 1.0
C      1  0.5182660000000  0.5102830000000  0.4409490000000 1.0
C      1  0.4817340000000  0.4540020000000  0.5384310000000 1.0
C      1  0.4817340000000  0.5562810000000  0.5206200000000 1.0
C      1  0.4817340000000  0.4897170000000  0.4409490000000 1.0
C      1  0.4909070000000  0.5390180000000  0.5695190000000 1.0
C      1  0.4909080000000  0.4202860000000  0.4990310000000 1.0
C      1  0.4909080000000  0.5406960000000  0.4314500000000 1.0
C      1  0.5090930000000  0.4609820000000  0.5695190000000 1.0
C      1  0.5090920000000  0.5797140000000  0.4990310000000 1.0
C      1  0.5090920000000  0.4593040000000  0.4314500000000 1.0
C      1  0.4726400000000  0.5494370000000  0.5484360000000 1.0
C      1  0.4726400000000  0.4333340000000  0.5185960000000 1.0
C      1  0.4726400000000  0.5172290000000  0.4329680000000 1.0
C      1  0.5273600000000  0.4505630000000  0.5484360000000 1.0
C      1  0.5273600000000  0.5666660000000  0.5185960000000 1.0
C      1  0.5273600000000  0.4827710000000  0.4329680000000 1.0
C      1  0.5528000000000  0.5131730000000  0.4645580000000 1.0
C      1  0.5528000000000  0.5241070000000  0.5291290000000 1.0
C      1  0.5528000000000  0.4627200000000  0.5063130000000 1.0
C      1  0.4472000000000  0.4868270000000  0.4645580000000 1.0
C      1  0.4472000000000  0.4758930000000  0.5291290000000 1.0
C      1  0.4472000000000  0.5372800000000  0.5063130000000 1.0
C      1  0.5477850000000  0.5480260000000  0.5070120000000 1.0
C      1  0.5477860000000  0.4699150000000  0.5380860000000 1.0
C      1  0.5477850000000  0.4820590000000  0.4549020000000 1.0
C      1  0.4522150000000  0.4519740000000  0.5070120000000 1.0
C      1  0.4522140000000  0.5300850000000  0.5380860000000 1.0
C      1  0.4522150000000  0.5179410000000  0.4549020000000 1.0
C      1  0.5343210000000  0.4833670000000  0.4881320000000 1.0
C      1  0.5343210000000  0.5185940000000  0.4915290000000 1.0
C      1  0.5343220000000  0.4980390000000  0.5203380000000 1.0
C      1  0.4656790000000  0.5166330000000  0.4881320000000 1.0
C      1  0.4656790000000  0.4814060000000  0.4915290000000 1.0
C      1  0.4656780000000  0.5019610000000  0.5203380000000 1.0
C      1  0.5380910000000  0.5159780000000  0.5601130000000 1.0
C      1  0.5380920000000  0.4399510000000  0.4837810000000 1.0
C      1  0.5380920000000  0.5440710000000  0.4561060000000 1.0
C      1  0.4619090000000  0.4840220000000  0.5601130000000 1.0
C      1  0.4619080000000  0.5600490000000  0.4837810000000 1.0
C      1  0.4619080000000  0.4559290000000  0.4561060000000 1.0
C      1  0.5072640000000  0.5139850000000  0.5671060000000 1.0
C      1  0.5072640000000  0.4348920000000  0.4785580000000 1.0
C      1  0.5072640000000  0.5511230000000  0.4543360000000 1.0
C      1  0.4927360000000  0.4860150000000  0.5671060000000 1.0
C      1  0.4927360000000  0.5651080000000  0.4785580000000 1.0
C      1  0.4927360000000  0.4488770000000  0.4543360000000 1.0
END
