TITL C-3985254-1270-1333 1.4639802889826e-05 125000 -319.369733877119 0 0 60 (C1) n - 1
REM
REM in /home/nfs/bkarasulu/CARBON/AIRSS/Generating-Clusters/TERSOFF/Higher-Symm/Only-C60
REM
REM
REM
REM
REM
REM ./C.cell (28575a23ae977d3b5fae324c64b13b57)
REM
REM compiler GCC version 9.2.1 20190827 (Red Hat 9.2.1-1)
REM options -cpp -mtune=generic -march=x86-64 -g -O0 -fpre-include=/usr/include/finclude/math-vector-fortran.h
REM seed 540292092 1971325895 1683935889 -1633856237 -288068229 -145031167 1100960608 -1681882555 -1304680812 1686224337 291644587 -1203785036 -1460493783 967502013 795116666 -2067702657 659126204 -781354982 1243831191 1288398947 -1770805381 -1525512737 1594976805 -1897995846 1170174598 538443602 -423169871 864966470 -1072752870 450282711 4791916 -1352956267 1447180195
REM
CELL 1.54180   50.00000   50.00000   50.00000   90.00000   90.00000   90.00000
LATT -1
SFAC C  
C      1  0.5188150000000  0.5817040000000  0.4990950000000 1.0
C      1  0.5157790000000  0.5293940000000  0.5158320000000 1.0
C      1  0.4621470000000  0.5403240000000  0.4724300000000 1.0
C      1  0.5303480000000  0.4911070000000  0.5395320000000 1.0
C      1  0.4788840000000  0.5506170000000  0.4939150000000 1.0
C      1  0.5484120000000  0.5552780000000  0.5271920000000 1.0
C      1  0.5491820000000  0.4536830000000  0.5321810000000 1.0
C      1  0.5267990000000  0.5201400000000  0.5409650000000 1.0
C      1  0.4730800000000  0.5028070000000  0.5174430000000 1.0
C      1  0.4953790000000  0.4811520000000  0.4387850000000 1.0
C      1  0.5062160000000  0.5140550000000  0.4654120000000 1.0
C      1  0.4392340000000  0.4518970000000  0.4997890000000 1.0
C      1  0.5467040000000  0.5472740000000  0.4750540000000 1.0
C      1  0.4623840000000  0.5703740000000  0.5288190000000 1.0
C      1  0.5585390000000  0.4809320000000  0.5417210000000 1.0
C      1  0.5292050000000  0.5150790000000  0.4189460000000 1.0
C      1  0.4892490000000  0.4676640000000  0.4947850000000 1.0
C      1  0.5180710000000  0.5451160000000  0.4661430000000 1.0
C      1  0.4317070000000  0.5283410000000  0.5112530000000 1.0
C      1  0.4864600000000  0.5304300000000  0.5167160000000 1.0
C      1  0.4400590000000  0.5001150000000  0.5195350000000 1.0
C      1  0.5662300000000  0.5284840000000  0.5166460000000 1.0
C      1  0.4912700000000  0.5681270000000  0.5425490000000 1.0
C      1  0.4508400000000  0.4974900000000  0.5525210000000 1.0
C      1  0.4557510000000  0.5286060000000  0.5557190000000 1.0
C      1  0.4798870000000  0.4798190000000  0.5406020000000 1.0
C      1  0.5231920000000  0.4634520000000  0.4660730000000 1.0
C      1  0.5468490000000  0.5684960000000  0.4968210000000 1.0
C      1  0.4821220000000  0.4466860000000  0.5304600000000 1.0
C      1  0.4792430000000  0.4379150000000  0.4954800000000 1.0
C      1  0.4810680000000  0.4911050000000  0.4779820000000 1.0
C      1  0.4356000000000  0.4805000000000  0.4961550000000 1.0
C      1  0.4651920000000  0.4470410000000  0.4517430000000 1.0
C      1  0.5569700000000  0.5202480000000  0.4865660000000 1.0
C      1  0.5702620000000  0.4964690000000  0.5184660000000 1.0
C      1  0.4489160000000  0.4969200000000  0.4724470000000 1.0
C      1  0.4431480000000  0.5469850000000  0.5331590000000 1.0
C      1  0.5211690000000  0.4990310000000  0.4421440000000 1.0
C      1  0.5163500000000  0.4423750000000  0.5425900000000 1.0
C      1  0.5241170000000  0.4219210000000  0.5209320000000 1.0
C      1  0.4980730000000  0.4491670000000  0.4489180000000 1.0
C      1  0.4778170000000  0.5244690000000  0.4527310000000 1.0
C      1  0.4542770000000  0.4368550000000  0.4782130000000 1.0
C      1  0.4646890000000  0.4967260000000  0.4397550000000 1.0
C      1  0.5176620000000  0.4651040000000  0.4954220000000 1.0
C      1  0.5572220000000  0.4526270000000  0.5012590000000 1.0
C      1  0.5092110000000  0.4731940000000  0.5489970000000 1.0
C      1  0.5030050000000  0.4286520000000  0.4778370000000 1.0
C      1  0.5633780000000  0.4843240000000  0.4851860000000 1.0
C      1  0.5355120000000  0.5370800000000  0.5627780000000 1.0
C      1  0.5286040000000  0.4883140000000  0.5083510000000 1.0
C      1  0.5177630000000  0.5745720000000  0.5292340000000 1.0
C      1  0.5438890000000  0.4816110000000  0.4556330000000 1.0
C      1  0.4834520000000  0.5385260000000  0.5462760000000 1.0
C      1  0.4516310000000  0.4687110000000  0.4383570000000 1.0
C      1  0.5305310000000  0.4332100000000  0.4942850000000 1.0
C      1  0.5018350000000  0.5643600000000  0.4820560000000 1.0
C      1  0.4507120000000  0.4438520000000  0.5258890000000 1.0
C      1  0.4392260000000  0.5257950000000  0.4816000000000 1.0
C      1  0.5266820000000  0.5136980000000  0.4926250000000 1.0
END
