TITL C-3985250-725-1033 0.00206499623847883 125000 -317.292238346904 0 0 60 (C2h) n - 1
REM
REM in /home/nfs/bkarasulu/CARBON/AIRSS/Generating-Clusters/TERSOFF/Higher-Symm/Only-C60
REM
REM
REM
REM
REM
REM ./C.cell (28575a23ae977d3b5fae324c64b13b57)
REM
REM compiler GCC version 9.2.1 20190827 (Red Hat 9.2.1-1)
REM options -cpp -mtune=generic -march=x86-64 -g -O0 -fpre-include=/usr/include/finclude/math-vector-fortran.h
REM seed -1298896336 -761353090 -232565940 -1232016015 145423386 -1287075047 -947416307 1538220591 1951592483 383921682 -2014474667 -147841686 -1478771034 -1230481919 -781942676 -903018765 1940308540 -1991236406 650452636 1083053931 1919127508 -27262433 -177133454 879312052 -933856721 674293059 -1279783963 -564556841 1372168586 1336187656 -127153524 -690201584 -351039915
REM
CELL 1.54180   50.00000   50.00000   50.00000   90.00000   90.00000   90.00000
LATT -1
SFAC C  
C      1  0.5439580000000  0.5554330000000  0.5110210000000 1.0
C      1  0.4560420000000  0.5554330000000  0.4889790000000 1.0
C      1  0.5439580000000  0.4445670000000  0.5110210000000 1.0
C      1  0.4560420000000  0.4445670000000  0.4889790000000 1.0
C      1  0.5618400000000  0.4856080000000  0.4943310000000 1.0
C      1  0.4381600000000  0.4856080000000  0.5056690000000 1.0
C      1  0.5618400000000  0.5143920000000  0.4943310000000 1.0
C      1  0.4381600000000  0.5143920000000  0.5056690000000 1.0
C      1  0.4748540000000  0.5645780000000  0.4684540000000 1.0
C      1  0.5251460000000  0.5645780000000  0.5315460000000 1.0
C      1  0.4748540000000  0.4354220000000  0.4684540000000 1.0
C      1  0.5251460000000  0.4354220000000  0.5315460000000 1.0
C      1  0.4519360000000  0.5181510000000  0.4506590000000 1.0
C      1  0.5480640000000  0.5181510000000  0.5493410000000 1.0
C      1  0.4519360000000  0.4818490000000  0.4506590000000 1.0
C      1  0.5480640000000  0.4818490000000  0.5493410000000 1.0
C      1  0.5060390000000  0.4369430000000  0.4744240000000 1.0
C      1  0.4939610000000  0.4369430000000  0.5255760000000 1.0
C      1  0.5060390000000  0.5630570000000  0.4744240000000 1.0
C      1  0.4939610000000  0.5630570000000  0.5255760000000 1.0
C      1  0.4970900000000  0.4698040000000  0.5226380000000 1.0
C      1  0.5029100000000  0.4698040000000  0.4773620000000 1.0
C      1  0.4970900000000  0.5301960000000  0.5226380000000 1.0
C      1  0.5029100000000  0.5301960000000  0.4773620000000 1.0
C      1  0.5207570000000  0.5154340000000  0.5029010000000 1.0
C      1  0.4792430000000  0.5154340000000  0.4970990000000 1.0
C      1  0.5207570000000  0.4845660000000  0.5029010000000 1.0
C      1  0.4792430000000  0.4845660000000  0.4970990000000 1.0
C      1  0.4633040000000  0.4453900000000  0.5176410000000 1.0
C      1  0.5366960000000  0.4453900000000  0.4823590000000 1.0
C      1  0.4633040000000  0.5546100000000  0.5176410000000 1.0
C      1  0.5366960000000  0.5546100000000  0.4823590000000 1.0
C      1  0.4818550000000  0.4849240000000  0.4329020000000 1.0
C      1  0.5181450000000  0.4849240000000  0.5670980000000 1.0
C      1  0.4818550000000  0.5150760000000  0.4329020000000 1.0
C      1  0.5181450000000  0.5150760000000  0.5670980000000 1.0
C      1  0.5119800000000  0.4065940000000  0.4759340000000 1.0
C      1  0.4880200000000  0.4065940000000  0.5240660000000 1.0
C      1  0.5119800000000  0.5934060000000  0.4759340000000 1.0
C      1  0.4880200000000  0.5934060000000  0.5240660000000 1.0
C      1  0.4425280000000  0.4698390000000  0.4803450000000 1.0
C      1  0.5574720000000  0.4698390000000  0.5196550000000 1.0
C      1  0.4425280000000  0.5301610000000  0.4803450000000 1.0
C      1  0.5574720000000  0.5301610000000  0.5196550000000 1.0
C      1  0.5386140000000  0.4843910000000  0.4476980000000 1.0
C      1  0.4613860000000  0.4843910000000  0.5523020000000 1.0
C      1  0.5386140000000  0.5156090000000  0.4476980000000 1.0
C      1  0.4613860000000  0.5156090000000  0.5523020000000 1.0
C      1  0.4492560000000  0.4699860000000  0.5294250000000 1.0
C      1  0.5507440000000  0.4699860000000  0.4705750000000 1.0
C      1  0.4492560000000  0.5300140000000  0.5294250000000 1.0
C      1  0.5507440000000  0.5300140000000  0.4705750000000 1.0
C      1  0.4926170000000  0.5169950000000  0.5485900000000 1.0
C      1  0.5073830000000  0.5169950000000  0.4514100000000 1.0
C      1  0.4926170000000  0.4830050000000  0.5485900000000 1.0
C      1  0.5073830000000  0.4830050000000  0.4514100000000 1.0
C      1  0.5374990000000  0.5499670000000  0.5543220000000 1.0
C      1  0.4625010000000  0.5499670000000  0.4456780000000 1.0
C      1  0.5374990000000  0.4500330000000  0.5543220000000 1.0
C      1  0.4625010000000  0.4500330000000  0.4456780000000 1.0
END
