TITL C-3985253-1688-447 8.20316243787407e-07 125000 -357.978245089285 0 0 60 (C5) n - 1
REM
REM in /home/nfs/bkarasulu/CARBON/AIRSS/Generating-Clusters/TERSOFF/Higher-Symm/Only-C60
REM
REM
REM
REM
REM
REM ./C.cell (28575a23ae977d3b5fae324c64b13b57)
REM
REM compiler GCC version 9.2.1 20190827 (Red Hat 9.2.1-1)
REM options -cpp -mtune=generic -march=x86-64 -g -O0 -fpre-include=/usr/include/finclude/math-vector-fortran.h
REM seed 158571133 1871220940 -1371811727 1519371316 -2055418152 282811451 1133769408 942355529 -1112133638 1511080300 -554461961 -835111965 -285207407 -1871545183 -244326788 1249882772 160893827 701210665 -1776538014 -1660966251 -2147018656 1570631026 1648961956 488460743 1784797566 -922743463 -1395733002 -1351938543 -865931507 690791937 1010837488 1345979101 -2029253099
REM
CELL 1.54180   50.00000   50.00000   50.00000   90.00000   90.00000   90.00000
LATT -1
SFAC C  
C      1  0.4926700000000  0.4438570000000  0.5197150000000 1.0
C      1  0.4926700000000  0.5014010000000  0.5594880000000 1.0
C      1  0.4926700000000  0.5570090000000  0.5170510000000 1.0
C      1  0.4926690000000  0.5338330000000  0.4510500000000 1.0
C      1  0.4926690000000  0.4639010000000  0.4526970000000 1.0
C      1  0.5373400000000  0.4904010000000  0.5555310000000 1.0
C      1  0.5373400000000  0.5498470000000  0.5262890000000 1.0
C      1  0.5373390000000  0.5404070000000  0.4607160000000 1.0
C      1  0.5373390000000  0.4751250000000  0.4494310000000 1.0
C      1  0.5373390000000  0.4442200000000  0.5080300000000 1.0
C      1  0.5194260000000  0.5619680000000  0.5052430000000 1.0
C      1  0.5194250000000  0.5241360000000  0.4426850000000 1.0
C      1  0.5194250000000  0.4529490000000  0.4593340000000 1.0
C      1  0.5194260000000  0.4467850000000  0.5321820000000 1.0
C      1  0.5194260000000  0.5141620000000  0.5605550000000 1.0
C      1  0.5780850000000  0.5226160000000  0.5115470000000 1.0
C      1  0.5780840000000  0.5179710000000  0.4820590000000 1.0
C      1  0.5780840000000  0.4884910000000  0.4773640000000 1.0
C      1  0.5780840000000  0.4749160000000  0.5039500000000 1.0
C      1  0.5780850000000  0.4960060000000  0.5250760000000 1.0
C      1  0.4651500000000  0.4358600000000  0.4842230000000 1.0
C      1  0.4651510000000  0.4651750000000  0.5561250000000 1.0
C      1  0.4651510000000  0.5426170000000  0.5504650000000 1.0
C      1  0.4651500000000  0.5611640000000  0.4750640000000 1.0
C      1  0.4651490000000  0.4951850000000  0.4341240000000 1.0
C      1  0.4522310000000  0.5334740000000  0.4666830000000 1.0
C      1  0.4522310000000  0.4786570000000  0.4578690000000 1.0
C      1  0.4522320000000  0.4533350000000  0.5072790000000 1.0
C      1  0.4522320000000  0.4925020000000  0.5466310000000 1.0
C      1  0.4522320000000  0.5420310000000  0.5215410000000 1.0
C      1  0.4649110000000  0.4443740000000  0.5357340000000 1.0
C      1  0.4649120000000  0.5167950000000  0.5639460000000 1.0
C      1  0.4649110000000  0.5660060000000  0.5037870000000 1.0
C      1  0.4649100000000  0.5239990000000  0.4383950000000 1.0
C      1  0.4649100000000  0.4488260000000  0.4581390000000 1.0
C      1  0.4930050000000  0.4266840000000  0.4942410000000 1.0
C      1  0.4930060000000  0.4718670000000  0.5679480000000 1.0
C      1  0.4930060000000  0.5559290000000  0.5477530000000 1.0
C      1  0.4930050000000  0.5626990000000  0.4615650000000 1.0
C      1  0.4930040000000  0.4828210000000  0.4284930000000 1.0
C      1  0.5210470000000  0.5612480000000  0.4757990000000 1.0
C      1  0.5210470000000  0.4959110000000  0.4342710000000 1.0
C      1  0.5210470000000  0.4362240000000  0.4835780000000 1.0
C      1  0.5210480000000  0.4646740000000  0.5555790000000 1.0
C      1  0.5210480000000  0.5419430000000  0.5507720000000 1.0
C      1  0.4303800000000  0.5184890000000  0.4818250000000 1.0
C      1  0.4303800000000  0.4884270000000  0.4768000000000 1.0
C      1  0.4303800000000  0.4743580000000  0.5038380000000 1.0
C      1  0.4303800000000  0.4957260000000  0.5255730000000 1.0
C      1  0.4303800000000  0.5230000000000  0.5119680000000 1.0
C      1  0.4799120000000  0.4740560000000  0.5074180000000 1.0
C      1  0.4799120000000  0.4990380000000  0.5269670000000 1.0
C      1  0.4799120000000  0.5253500000000  0.5092490000000 1.0
C      1  0.4799120000000  0.5166290000000  0.4787490000000 1.0
C      1  0.4799120000000  0.4849280000000  0.4776180000000 1.0
C      1  0.5658440000000  0.4918910000000  0.5508870000000 1.0
C      1  0.5658440000000  0.5458920000000  0.5234360000000 1.0
C      1  0.5658430000000  0.5364710000000  0.4635960000000 1.0
C      1  0.5658430000000  0.4766490000000  0.4540640000000 1.0
C      1  0.5658440000000  0.4490970000000  0.5080130000000 1.0
END
