TITL C-3985245-9316-897 -2.12399489515962e-07 125000 -325.653384409414 0 0 60 (C5) n - 1
REM
REM in /home/nfs/bkarasulu/CARBON/AIRSS/Generating-Clusters/TERSOFF/Higher-Symm/Only-C60
REM
REM
REM
REM
REM
REM ./C.cell (28575a23ae977d3b5fae324c64b13b57)
REM
REM compiler GCC version 9.2.1 20190827 (Red Hat 9.2.1-1)
REM options -cpp -mtune=generic -march=x86-64 -g -O0 -fpre-include=/usr/include/finclude/math-vector-fortran.h
REM seed 256154265 570544217 687351271 -1422756045 -405038108 -1785676458 1515821912 80312428 2118281514 750918764 758172909 882247644 396786869 -2085374577 1420848439 -1980602858 -490388483 1742446471 -901865512 -29315339 1112223983 539300604 608349946 494244785 118347299 1469957063 -1699245131 994636953 -258723315 2140255364 1814272253 960564617 1488194760
REM
CELL 1.54180   50.00000   50.00000   50.00000   90.00000   90.00000   90.00000
LATT -1
SFAC C  
C      1  0.4943670000000  0.5267760000000  0.4390310000000 1.0
C      1  0.4727930000000  0.5029170000000  0.4390320000000 1.0
C      1  0.4888180000000  0.4750260000000  0.4390320000000 1.0
C      1  0.5202950000000  0.4816480000000  0.4390310000000 1.0
C      1  0.5237240000000  0.5136310000000  0.4390310000000 1.0
C      1  0.4432850000000  0.5079700000000  0.4469180000000 1.0
C      1  0.4748940000000  0.4485240000000  0.4469180000000 1.0
C      1  0.5411970000000  0.4602160000000  0.4469170000000 1.0
C      1  0.5505670000000  0.5268870000000  0.4469170000000 1.0
C      1  0.4900540000000  0.5564010000000  0.4469170000000 1.0
C      1  0.5137140000000  0.5666730000000  0.4643720000000 1.0
C      1  0.4408280000000  0.5336460000000  0.4643730000000 1.0
C      1  0.4497150000000  0.4541210000000  0.4643730000000 1.0
C      1  0.5280940000000  0.4379990000000  0.4643730000000 1.0
C      1  0.5676480000000  0.5075600000000  0.4643720000000 1.0
C      1  0.4791480000000  0.5484020000000  0.5402900000000 1.0
C      1  0.4475240000000  0.4951250000000  0.5402910000000 1.0
C      1  0.4884210000000  0.4485860000000  0.5402910000000 1.0
C      1  0.5453200000000  0.4730990000000  0.5402900000000 1.0
C      1  0.5395890000000  0.5347890000000  0.5402900000000 1.0
C      1  0.5468550000000  0.4811750000000  0.5681900000000 1.0
C      1  0.5323830000000  0.5387440000000  0.5681890000000 1.0
C      1  0.4731600000000  0.5427710000000  0.5681900000000 1.0
C      1  0.4510290000000  0.4876900000000  0.5681900000000 1.0
C      1  0.4965760000000  0.4496220000000  0.5681900000000 1.0
C      1  0.4944500000000  0.4738810000000  0.4740850000000 1.0
C      1  0.5231250000000  0.4866510000000  0.4740840000000 1.0
C      1  0.5198420000000  0.5178680000000  0.4740840000000 1.0
C      1  0.4891370000000  0.5243920000000  0.4740840000000 1.0
C      1  0.4734450000000  0.4972070000000  0.4740850000000 1.0
C      1  0.4822390000000  0.4774220000000  0.5248170000000 1.0
C      1  0.5159850000000  0.4761320000000  0.5248160000000 1.0
C      1  0.5276400000000  0.5078260000000  0.5248160000000 1.0
C      1  0.5010980000000  0.5287060000000  0.5248170000000 1.0
C      1  0.4730390000000  0.5099150000000  0.5248170000000 1.0
C      1  0.5238580000000  0.4905220000000  0.5835700000000 1.0
C      1  0.5163870000000  0.5197610000000  0.5835700000000 1.0
C      1  0.4862710000000  0.5216910000000  0.5835700000000 1.0
C      1  0.4751290000000  0.4936460000000  0.5835700000000 1.0
C      1  0.4983580000000  0.4743820000000  0.5835700000000 1.0
C      1  0.4586950000000  0.4497450000000  0.4936510000000 1.0
C      1  0.5350310000000  0.4451870000000  0.4936500000000 1.0
C      1  0.5629560000000  0.5163790000000  0.4936490000000 1.0
C      1  0.5038770000000  0.5649360000000  0.4936500000000 1.0
C      1  0.4394410000000  0.5237540000000  0.4936500000000 1.0
C      1  0.5248660000000  0.5504330000000  0.5130390000000 1.0
C      1  0.4597190000000  0.5392340000000  0.5130390000000 1.0
C      1  0.4502390000000  0.4738140000000  0.5130400000000 1.0
C      1  0.5095270000000  0.4445830000000  0.5130390000000 1.0
C      1  0.5556490000000  0.4919360000000  0.5130390000000 1.0
C      1  0.4778100000000  0.5490050000000  0.4894800000000 1.0
C      1  0.4465360000000  0.4940390000000  0.4894810000000 1.0
C      1  0.4891470000000  0.4473100000000  0.4894810000000 1.0
C      1  0.5467570000000  0.4733970000000  0.4894800000000 1.0
C      1  0.5397500000000  0.5362480000000  0.4894800000000 1.0
C      1  0.5423510000000  0.5534660000000  0.4625570000000 1.0
C      1  0.4622380000000  0.5568010000000  0.4625580000000 1.0
C      1  0.4343100000000  0.4816380000000  0.4625580000000 1.0
C      1  0.4971630000000  0.4318510000000  0.4625580000000 1.0
C      1  0.5639360000000  0.4762430000000  0.4625570000000 1.0
END
