TITL C-3985245-9316-767 0.00037732415659802 125000 -317.746365224471 0 0 60 (D6d) n - 1
REM
REM in /home/nfs/bkarasulu/CARBON/AIRSS/Generating-Clusters/TERSOFF/Higher-Symm/Only-C60
REM
REM
REM
REM
REM
REM ./C.cell (28575a23ae977d3b5fae324c64b13b57)
REM
REM compiler GCC version 9.2.1 20190827 (Red Hat 9.2.1-1)
REM options -cpp -mtune=generic -march=x86-64 -g -O0 -fpre-include=/usr/include/finclude/math-vector-fortran.h
REM seed -1267013724 -761945515 -275000918 1821608950 -98445621 -1745413439 -415872245 447134655 1702393513 1235784372 1042951655 -1256819486 -115999964 1424087403 1031142459 -1650707411 -1685708391 648694218 997940987 1404000310 -1032558273 1733625727 1021627477 955574007 1867662085 -1555493502 1398337634 1123917721 190207362 1184852573 704249846 -1319225059 -617922194
REM
CELL 1.54180   50.00000   50.00000   50.00000   90.00000   90.00000   90.00000
LATT -1
SFAC C  
C      1  0.5581220000000  0.5024780000000  0.4944690000000 1.0
C      1  0.5490970000000  0.5312070000000  0.5055320000000 1.0
C      1  0.5269140000000  0.5515800000000  0.4944740000000 1.0
C      1  0.4975260000000  0.5581220000000  0.5055340000000 1.0
C      1  0.4687860000000  0.5491000000000  0.4944720000000 1.0
C      1  0.4484230000000  0.5269120000000  0.5055280000000 1.0
C      1  0.4418780000000  0.4975230000000  0.4944730000000 1.0
C      1  0.4509060000000  0.4687930000000  0.5055300000000 1.0
C      1  0.4730840000000  0.4484220000000  0.4944700000000 1.0
C      1  0.5024790000000  0.4418770000000  0.5055290000000 1.0
C      1  0.5312090000000  0.4509030000000  0.4944670000000 1.0
C      1  0.5515810000000  0.4730820000000  0.5055250000000 1.0
C      1  0.4863640000000  0.4738660000000  0.5638480000000 1.0
C      1  0.5012560000000  0.4705500000000  0.4361500000000 1.0
C      1  0.5158120000000  0.4751230000000  0.5638480000000 1.0
C      1  0.5261320000000  0.4863630000000  0.4361510000000 1.0
C      1  0.5294500000000  0.5012560000000  0.5638480000000 1.0
C      1  0.5248760000000  0.5158120000000  0.4361510000000 1.0
C      1  0.5136390000000  0.5261330000000  0.5638490000000 1.0
C      1  0.4987440000000  0.5294490000000  0.4361510000000 1.0
C      1  0.4841880000000  0.5248770000000  0.5638490000000 1.0
C      1  0.4738680000000  0.5136380000000  0.4361520000000 1.0
C      1  0.4705510000000  0.4987430000000  0.5638490000000 1.0
C      1  0.4751230000000  0.4841890000000  0.4361510000000 1.0
C      1  0.5678300000000  0.4646030000000  0.4791420000000 1.0
C      1  0.5764420000000  0.5032600000000  0.5208580000000 1.0
C      1  0.5645660000000  0.5410430000000  0.4791470000000 1.0
C      1  0.5354000000000  0.5678300000000  0.5208580000000 1.0
C      1  0.4967370000000  0.5764410000000  0.4791440000000 1.0
C      1  0.4589580000000  0.5645680000000  0.5208540000000 1.0
C      1  0.4321680000000  0.5353980000000  0.4791400000000 1.0
C      1  0.4235580000000  0.4967380000000  0.5208590000000 1.0
C      1  0.4354300000000  0.4589580000000  0.4791440000000 1.0
C      1  0.4646030000000  0.4321700000000  0.5208580000000 1.0
C      1  0.5032610000000  0.4235600000000  0.4791430000000 1.0
C      1  0.5410440000000  0.4354300000000  0.5208580000000 1.0
C      1  0.4732770000000  0.4487890000000  0.5494610000000 1.0
C      1  0.5024620000000  0.4422870000000  0.4505400000000 1.0
C      1  0.5309880000000  0.4512500000000  0.5494610000000 1.0
C      1  0.5512120000000  0.4732770000000  0.4505410000000 1.0
C      1  0.5577120000000  0.5024610000000  0.5494630000000 1.0
C      1  0.5487500000000  0.5309890000000  0.4505390000000 1.0
C      1  0.5267240000000  0.5512120000000  0.5494570000000 1.0
C      1  0.4975390000000  0.5577130000000  0.4505350000000 1.0
C      1  0.4690120000000  0.5487520000000  0.5494600000000 1.0
C      1  0.4487900000000  0.5267240000000  0.4505380000000 1.0
C      1  0.4422860000000  0.4975380000000  0.5494610000000 1.0
C      1  0.4512500000000  0.4690120000000  0.4505390000000 1.0
C      1  0.4425070000000  0.4975490000000  0.4642300000000 1.0
C      1  0.4514390000000  0.4691310000000  0.5357720000000 1.0
C      1  0.4733760000000  0.4489820000000  0.4642280000000 1.0
C      1  0.5024520000000  0.4425080000000  0.5357720000000 1.0
C      1  0.5308680000000  0.4514390000000  0.4642290000000 1.0
C      1  0.5510200000000  0.4733760000000  0.5357710000000 1.0
C      1  0.5574920000000  0.5024520000000  0.4642300000000 1.0
C      1  0.5485610000000  0.5308670000000  0.5357710000000 1.0
C      1  0.5266220000000  0.5510180000000  0.4642280000000 1.0
C      1  0.4975490000000  0.5574930000000  0.5357700000000 1.0
C      1  0.4691320000000  0.5485600000000  0.4642300000000 1.0
C      1  0.4489800000000  0.5266240000000  0.5357700000000 1.0
END
