TITL C-3985250-725-1021 2.7703570117781e-05 125000 -328.39982351503 0 0 60 (C3) n - 1
REM
REM in /home/nfs/bkarasulu/CARBON/AIRSS/Generating-Clusters/TERSOFF/Higher-Symm/Only-C60
REM
REM
REM
REM
REM
REM ./C.cell (28575a23ae977d3b5fae324c64b13b57)
REM
REM compiler GCC version 9.2.1 20190827 (Red Hat 9.2.1-1)
REM options -cpp -mtune=generic -march=x86-64 -g -O0 -fpre-include=/usr/include/finclude/math-vector-fortran.h
REM seed 1168273731 -1098270652 -2117418440 197630133 -540320713 853215932 -488429458 399150154 -1852822539 -77736482 -2113395416 761221805 -728144410 -65465456 -1468549453 -1999720819 1559224115 -1615373468 -1211615041 -586786093 -667392851 -1349026405 1459988673 -2116294214 -656762260 1653205659 106788760 532677091 242414481 -1984172246 -1778399076 -1421645699 -698400473
REM
CELL 1.54180   50.00000   50.00000   50.00000   90.00000   90.00000   90.00000
LATT -1
SFAC C  
C      1  0.4705790000000  0.5281890000000  0.5216040000000 1.0
C      1  0.5391250000000  0.5113850000000  0.5216070000000 1.0
C      1  0.4902970000000  0.4604270000000  0.5216050000000 1.0
C      1  0.5537790000000  0.5392460000000  0.5198830000000 1.0
C      1  0.5070980000000  0.4338050000000  0.5198810000000 1.0
C      1  0.4391240000000  0.5269500000000  0.5198800000000 1.0
C      1  0.5310830000000  0.5007550000000  0.5509220000000 1.0
C      1  0.4851120000000  0.4727050000000  0.5509210000000 1.0
C      1  0.4838050000000  0.5265430000000  0.5509190000000 1.0
C      1  0.5139510000000  0.5280460000000  0.5507910000000 1.0
C      1  0.5173120000000  0.4738960000000  0.5507910000000 1.0
C      1  0.4687370000000  0.4980610000000  0.5507910000000 1.0
C      1  0.5221720000000  0.5199140000000  0.4359800000000 1.0
C      1  0.5061640000000  0.4708540000000  0.4359840000000 1.0
C      1  0.4716720000000  0.5092370000000  0.4359850000000 1.0
C      1  0.4562300000000  0.4405230000000  0.4850370000000 1.0
C      1  0.4703760000000  0.5676380000000  0.4850300000000 1.0
C      1  0.5733920000000  0.4918340000000  0.4850360000000 1.0
C      1  0.5643030000000  0.4603930000000  0.4842120000000 1.0
C      1  0.4335460000000  0.4641130000000  0.4842130000000 1.0
C      1  0.5021480000000  0.5754900000000  0.4842080000000 1.0
C      1  0.4846010000000  0.5752240000000  0.5372900000000 1.0
C      1  0.5728450000000  0.4757240000000  0.5372950000000 1.0
C      1  0.4425530000000  0.4490530000000  0.5372960000000 1.0
C      1  0.4893700000000  0.4735480000000  0.4745970000000 1.0
C      1  0.4824100000000  0.5224250000000  0.4745950000000 1.0
C      1  0.5282210000000  0.5040210000000  0.4746000000000 1.0
C      1  0.4801820000000  0.4297740000000  0.4693970000000 1.0
C      1  0.4490860000000  0.5522710000000  0.4693950000000 1.0
C      1  0.5707290000000  0.5179550000000  0.4694000000000 1.0
C      1  0.5540220000000  0.4631080000000  0.5165160000000 1.0
C      1  0.4410370000000  0.4716620000000  0.5165170000000 1.0
C      1  0.5049400000000  0.5652310000000  0.5165120000000 1.0
C      1  0.4404060000000  0.5499790000000  0.5410490000000 1.0
C      1  0.5730800000000  0.5266220000000  0.5410540000000 1.0
C      1  0.4865150000000  0.4234010000000  0.5410520000000 1.0
C      1  0.5535920000000  0.5182850000000  0.4424960000000 1.0
C      1  0.4890370000000  0.4444610000000  0.4424970000000 1.0
C      1  0.4573670000000  0.5372600000000  0.4424930000000 1.0
C      1  0.5006610000000  0.5352950000000  0.4514660000000 1.0
C      1  0.5302410000000  0.4817840000000  0.4514720000000 1.0
C      1  0.4691000000000  0.4829170000000  0.4514690000000 1.0
C      1  0.5431880000000  0.4926700000000  0.5005610000000 1.0
C      1  0.4720570000000  0.4662640000000  0.5005600000000 1.0
C      1  0.4847560000000  0.5410640000000  0.5005560000000 1.0
C      1  0.5143830000000  0.4526960000000  0.4772450000000 1.0
C      1  0.4518420000000  0.5111920000000  0.4772470000000 1.0
C      1  0.5337740000000  0.5361080000000  0.4772470000000 1.0
C      1  0.5646820000000  0.5001170000000  0.5528960000000 1.0
C      1  0.4677610000000  0.4439270000000  0.5528950000000 1.0
C      1  0.4675590000000  0.5559590000000  0.5528910000000 1.0
C      1  0.5063140000000  0.4262710000000  0.4896090000000 1.0
C      1  0.4329920000000  0.5313930000000  0.4896090000000 1.0
C      1  0.5606940000000  0.5423330000000  0.4896110000000 1.0
C      1  0.5260940000000  0.5497550000000  0.5325110000000 1.0
C      1  0.5300410000000  0.4525260000000  0.5325120000000 1.0
C      1  0.4438640000000  0.4977220000000  0.5325130000000 1.0
C      1  0.5158750000000  0.5571190000000  0.4659320000000 1.0
C      1  0.5415310000000  0.4576940000000  0.4659340000000 1.0
C      1  0.4425930000000  0.4851840000000  0.4659340000000 1.0
END
