TITL C-3985245-9316-1252 3.61540540731537e-07 125000 -287.745565394259 0 0 60 (C3i) n - 1
REM
REM in /home/nfs/bkarasulu/CARBON/AIRSS/Generating-Clusters/TERSOFF/Higher-Symm/Only-C60
REM
REM
REM
REM
REM
REM ./C.cell (28575a23ae977d3b5fae324c64b13b57)
REM
REM compiler GCC version 9.2.1 20190827 (Red Hat 9.2.1-1)
REM options -cpp -mtune=generic -march=x86-64 -g -O0 -fpre-include=/usr/include/finclude/math-vector-fortran.h
REM seed -754179536 -1998564302 -662644230 1232927535 305712228 -1587957123 945739890 882252286 1124001123 -2053867700 -1724838458 -2144936117 570615520 1099316997 2098329427 -1069763624 145279173 779345943 -784654512 1672755704 1197150222 1874579818 -218041878 671233165 1498893989 1348960065 1469709918 1185975487 -1007889691 -21031417 -1200639278 -1844673761 -1747835622
REM
CELL 1.54180   50.00000   50.00000   50.00000   90.00000   90.00000   90.00000
LATT -1
SFAC C  
C      1  0.5175720000000  0.5173820000000  0.4687210000000 1.0
C      1  0.4641260000000  0.5173820000000  0.5004220000000 1.0
C      1  0.5183030000000  0.5173820000000  0.5308570000000 1.0
C      1  0.5175720000000  0.4826180000000  0.5312790000000 1.0
C      1  0.4641260000000  0.4826180000000  0.4995780000000 1.0
C      1  0.5183030000000  0.4826180000000  0.4691430000000 1.0
C      1  0.4824280000000  0.4826180000000  0.5312790000000 1.0
C      1  0.5358740000000  0.4826180000000  0.4995780000000 1.0
C      1  0.4816970000000  0.4826180000000  0.4691430000000 1.0
C      1  0.4824280000000  0.5173820000000  0.4687210000000 1.0
C      1  0.5358740000000  0.5173820000000  0.5004220000000 1.0
C      1  0.4816970000000  0.5173820000000  0.5308570000000 1.0
C      1  0.4845690000000  0.4528400000000  0.4369190000000 1.0
C      1  0.4530860000000  0.4528400000000  0.5449040000000 1.0
C      1  0.5623450000000  0.4528400000000  0.5181770000000 1.0
C      1  0.4845690000000  0.5471600000000  0.5630810000000 1.0
C      1  0.4530860000000  0.5471600000000  0.4550960000000 1.0
C      1  0.5623450000000  0.5471600000000  0.4818230000000 1.0
C      1  0.5154310000000  0.5471600000000  0.5630810000000 1.0
C      1  0.5469140000000  0.5471600000000  0.4550960000000 1.0
C      1  0.4376550000000  0.5471600000000  0.4818230000000 1.0
C      1  0.5154310000000  0.4528400000000  0.4369190000000 1.0
C      1  0.5469140000000  0.4528400000000  0.5449040000000 1.0
C      1  0.4376550000000  0.4528400000000  0.5181770000000 1.0
C      1  0.4473340000000  0.4783950000000  0.5589560000000 1.0
C      1  0.5773890000000  0.4783950000000  0.5161320000000 1.0
C      1  0.4752760000000  0.4783950000000  0.4249120000000 1.0
C      1  0.4473340000000  0.5216050000000  0.4410440000000 1.0
C      1  0.5773890000000  0.5216050000000  0.4838680000000 1.0
C      1  0.4752760000000  0.5216050000000  0.5750880000000 1.0
C      1  0.5526660000000  0.5216050000000  0.4410440000000 1.0
C      1  0.4226110000000  0.5216050000000  0.4838680000000 1.0
C      1  0.5247240000000  0.5216050000000  0.5750880000000 1.0
C      1  0.5526660000000  0.4783950000000  0.5589560000000 1.0
C      1  0.4226110000000  0.4783950000000  0.5161320000000 1.0
C      1  0.5247240000000  0.4783950000000  0.4249120000000 1.0
C      1  0.4503440000000  0.4945310000000  0.4545080000000 1.0
C      1  0.4854300000000  0.4945310000000  0.5657490000000 1.0
C      1  0.5642250000000  0.4945310000000  0.4797430000000 1.0
C      1  0.4503440000000  0.5054690000000  0.5454920000000 1.0
C      1  0.4854300000000  0.5054690000000  0.4342510000000 1.0
C      1  0.5642250000000  0.5054690000000  0.5202570000000 1.0
C      1  0.5496560000000  0.5054690000000  0.5454920000000 1.0
C      1  0.5145700000000  0.5054690000000  0.4342510000000 1.0
C      1  0.4357750000000  0.5054690000000  0.5202570000000 1.0
C      1  0.5496560000000  0.4945310000000  0.4545080000000 1.0
C      1  0.5145700000000  0.4945310000000  0.5657490000000 1.0
C      1  0.4357750000000  0.4945310000000  0.4797430000000 1.0
C      1  0.4831070000000  0.5515390000000  0.4700170000000 1.0
C      1  0.4824800000000  0.5515390000000  0.5296210000000 1.0
C      1  0.5344120000000  0.5515390000000  0.5003620000000 1.0
C      1  0.4831070000000  0.4484610000000  0.5299830000000 1.0
C      1  0.4824800000000  0.4484610000000  0.4703790000000 1.0
C      1  0.5344120000000  0.4484610000000  0.4996380000000 1.0
C      1  0.5168930000000  0.4484610000000  0.5299830000000 1.0
C      1  0.5175200000000  0.4484610000000  0.4703790000000 1.0
C      1  0.4655880000000  0.4484610000000  0.4996380000000 1.0
C      1  0.5168930000000  0.5515390000000  0.4700170000000 1.0
C      1  0.5175200000000  0.5515390000000  0.5296210000000 1.0
C      1  0.4655880000000  0.5515390000000  0.5003620000000 1.0
END
