TITL C-3985250-725-1152 -1.00387015380588e-07 125000 -347.62011837557 0 0 60 (D2) n - 1
REM
REM in /home/nfs/bkarasulu/CARBON/AIRSS/Generating-Clusters/TERSOFF/Higher-Symm/Only-C60
REM
REM
REM
REM
REM
REM ./C.cell (28575a23ae977d3b5fae324c64b13b57)
REM
REM compiler GCC version 9.2.1 20190827 (Red Hat 9.2.1-1)
REM options -cpp -mtune=generic -march=x86-64 -g -O0 -fpre-include=/usr/include/finclude/math-vector-fortran.h
REM seed 1301182430 -1428207540 272711250 729887346 -1550875675 -1883621446 -920439816 1026367597 -725450803 825634966 -473487091 -1235560020 769331978 -1478908125 1414146444 -677760919 -1434356621 -1488237125 210313154 -1950048040 -884203095 258561632 1092014076 23652871 2128188506 266342867 -1712243194 1036813378 1908687972 409904889 1532446138 2071680748 1819273934
REM
CELL 1.54180   50.00000   50.00000   50.00000   90.00000   90.00000   90.00000
LATT -1
SFAC C  
C      1  0.4699280000000  0.4657840000000  0.4710010000000 1.0
C      1  0.4699280000000  0.5342160000000  0.5289990000000 1.0
C      1  0.5300720000000  0.5342160000000  0.4710010000000 1.0
C      1  0.5300720000000  0.4657840000000  0.5289990000000 1.0
C      1  0.5508930000000  0.4875050000000  0.4888520000000 1.0
C      1  0.5508930000000  0.5124950000000  0.5111480000000 1.0
C      1  0.4491070000000  0.5124950000000  0.4888520000000 1.0
C      1  0.4491070000000  0.4875050000000  0.5111480000000 1.0
C      1  0.5137020000000  0.4951110000000  0.5832240000000 1.0
C      1  0.5137020000000  0.5048890000000  0.4167760000000 1.0
C      1  0.4862980000000  0.5048890000000  0.5832240000000 1.0
C      1  0.4862980000000  0.4951110000000  0.4167760000000 1.0
C      1  0.4647290000000  0.5131010000000  0.4284480000000 1.0
C      1  0.4647290000000  0.4868990000000  0.5715520000000 1.0
C      1  0.5352710000000  0.4868990000000  0.4284480000000 1.0
C      1  0.5352710000000  0.5131010000000  0.5715520000000 1.0
C      1  0.4734040000000  0.5347760000000  0.4467070000000 1.0
C      1  0.4734040000000  0.4652240000000  0.5532930000000 1.0
C      1  0.5265960000000  0.4652240000000  0.4467070000000 1.0
C      1  0.5265960000000  0.5347760000000  0.5532930000000 1.0
C      1  0.5562150000000  0.5043250000000  0.4407520000000 1.0
C      1  0.5562150000000  0.4956750000000  0.5592480000000 1.0
C      1  0.4437850000000  0.4956750000000  0.4407520000000 1.0
C      1  0.4437850000000  0.5043250000000  0.5592480000000 1.0
C      1  0.4988980000000  0.4508140000000  0.5579310000000 1.0
C      1  0.4988980000000  0.5491860000000  0.4420690000000 1.0
C      1  0.5011020000000  0.5491860000000  0.5579310000000 1.0
C      1  0.5011020000000  0.4508140000000  0.4420690000000 1.0
C      1  0.4585930000000  0.4698560000000  0.4437570000000 1.0
C      1  0.4585930000000  0.5301440000000  0.5562430000000 1.0
C      1  0.5414070000000  0.5301440000000  0.4437570000000 1.0
C      1  0.5414070000000  0.4698560000000  0.5562430000000 1.0
C      1  0.5680450000000  0.5063250000000  0.5346920000000 1.0
C      1  0.5680450000000  0.4936750000000  0.4653080000000 1.0
C      1  0.4319550000000  0.4936750000000  0.5346920000000 1.0
C      1  0.4319550000000  0.5063250000000  0.4653080000000 1.0
C      1  0.5105760000000  0.4394380000000  0.5258190000000 1.0
C      1  0.5105760000000  0.5605620000000  0.4741810000000 1.0
C      1  0.4894240000000  0.5605620000000  0.5258190000000 1.0
C      1  0.4894240000000  0.4394380000000  0.4741810000000 1.0
C      1  0.5519430000000  0.5333980000000  0.4901750000000 1.0
C      1  0.5519430000000  0.4666020000000  0.5098250000000 1.0
C      1  0.4480570000000  0.4666020000000  0.4901750000000 1.0
C      1  0.4480570000000  0.5333980000000  0.5098250000000 1.0
C      1  0.5261450000000  0.5289750000000  0.5229970000000 1.0
C      1  0.5261450000000  0.4710250000000  0.4770030000000 1.0
C      1  0.4738550000000  0.4710250000000  0.5229970000000 1.0
C      1  0.4738550000000  0.5289750000000  0.4770030000000 1.0
C      1  0.4810320000000  0.4659490000000  0.4249440000000 1.0
C      1  0.4810320000000  0.5340510000000  0.5750560000000 1.0
C      1  0.5189680000000  0.5340510000000  0.4249440000000 1.0
C      1  0.5189680000000  0.4659490000000  0.5750560000000 1.0
C      1  0.5003870000000  0.5147300000000  0.4774610000000 1.0
C      1  0.5003870000000  0.4852700000000  0.5225390000000 1.0
C      1  0.4996130000000  0.4852700000000  0.4774610000000 1.0
C      1  0.4996130000000  0.5147300000000  0.5225390000000 1.0
C      1  0.4811390000000  0.4436010000000  0.5090810000000 1.0
C      1  0.4811390000000  0.5563990000000  0.4909190000000 1.0
C      1  0.5188610000000  0.5563990000000  0.5090810000000 1.0
C      1  0.5188610000000  0.4436010000000  0.4909190000000 1.0
END
