TITL C-3985256-5419-50 1.62011250705704e-07 125000 -321.502152707627 0 0 60 (T23) n - 1
REM
REM in /home/nfs/bkarasulu/CARBON/AIRSS/Generating-Clusters/TERSOFF/Higher-Symm/Only-C60
REM
REM
REM
REM
REM
REM ./C.cell (28575a23ae977d3b5fae324c64b13b57)
REM
REM compiler GCC version 9.2.1 20190827 (Red Hat 9.2.1-1)
REM options -cpp -mtune=generic -march=x86-64 -g -O0 -fpre-include=/usr/include/finclude/math-vector-fortran.h
REM seed 2069557407 -2004545937 469881029 -1208747855 -1468655943 -386793371 1597577982 467008064 -348163831 -699401989 -1516680451 -1349371014 1863115705 642374308 -2120119407 -1341993516 1033135201 -1518070198 1117295371 -2139228744 -1768798514 -230142580 -716119675 -79999603 -1392496435 840855139 -1966831648 1370655373 -1022353530 779383302 -1650289574 821074386 1149038426
REM
CELL 1.54180   50.00000   50.00000   50.00000   90.00000   90.00000   90.00000
LATT -1
SFAC C  
C      1  0.4438350000000  0.5297050000000  0.4887890000000 1.0
C      1  0.5297050000000  0.4887890000000  0.4438350000000 1.0
C      1  0.4887890000000  0.4438350000000  0.5297050000000 1.0
C      1  0.5561650000000  0.4702950000000  0.4887890000000 1.0
C      1  0.4438350000000  0.4702950000000  0.5112110000000 1.0
C      1  0.5561650000000  0.5297050000000  0.5112110000000 1.0
C      1  0.4702950000000  0.5112110000000  0.4438350000000 1.0
C      1  0.5297050000000  0.5112110000000  0.5561650000000 1.0
C      1  0.4702950000000  0.4887890000000  0.5561650000000 1.0
C      1  0.5112110000000  0.5561650000000  0.5297050000000 1.0
C      1  0.4887890000000  0.5561650000000  0.4702950000000 1.0
C      1  0.5112110000000  0.4438350000000  0.4702950000000 1.0
C      1  0.4664630000000  0.4371060000000  0.4795030000000 1.0
C      1  0.4371060000000  0.4795030000000  0.4664630000000 1.0
C      1  0.4795030000000  0.4664630000000  0.4371060000000 1.0
C      1  0.5335370000000  0.5628940000000  0.4795030000000 1.0
C      1  0.4664630000000  0.5628940000000  0.5204970000000 1.0
C      1  0.5335370000000  0.4371060000000  0.5204970000000 1.0
C      1  0.5628940000000  0.5204970000000  0.4664630000000 1.0
C      1  0.4371060000000  0.5204970000000  0.5335370000000 1.0
C      1  0.5628940000000  0.4795030000000  0.5335370000000 1.0
C      1  0.5204970000000  0.5335370000000  0.4371060000000 1.0
C      1  0.4795030000000  0.5335370000000  0.5628940000000 1.0
C      1  0.5204970000000  0.4664630000000  0.5628940000000 1.0
C      1  0.5157020000000  0.4425980000000  0.5451410000000 1.0
C      1  0.4425980000000  0.5451410000000  0.5157020000000 1.0
C      1  0.5451410000000  0.5157020000000  0.4425980000000 1.0
C      1  0.4842980000000  0.5574020000000  0.5451410000000 1.0
C      1  0.5157020000000  0.5574020000000  0.4548590000000 1.0
C      1  0.4842980000000  0.4425980000000  0.4548590000000 1.0
C      1  0.5574020000000  0.4548590000000  0.5157020000000 1.0
C      1  0.4425980000000  0.4548590000000  0.4842980000000 1.0
C      1  0.5574020000000  0.5451410000000  0.4842980000000 1.0
C      1  0.4548590000000  0.4842980000000  0.4425980000000 1.0
C      1  0.5451410000000  0.4842980000000  0.5574020000000 1.0
C      1  0.4548590000000  0.5157020000000  0.5574020000000 1.0
C      1  0.5153360000000  0.4272340000000  0.4961890000000 1.0
C      1  0.4272340000000  0.4961890000000  0.5153360000000 1.0
C      1  0.4961890000000  0.5153360000000  0.4272340000000 1.0
C      1  0.4846640000000  0.5727660000000  0.4961890000000 1.0
C      1  0.5153360000000  0.5727660000000  0.5038110000000 1.0
C      1  0.4846640000000  0.4272340000000  0.5038110000000 1.0
C      1  0.5727660000000  0.5038110000000  0.5153360000000 1.0
C      1  0.4272340000000  0.5038110000000  0.4846640000000 1.0
C      1  0.5727660000000  0.4961890000000  0.4846640000000 1.0
C      1  0.5038110000000  0.4846640000000  0.4272340000000 1.0
C      1  0.4961890000000  0.4846640000000  0.5727660000000 1.0
C      1  0.5038110000000  0.5153360000000  0.5727660000000 1.0
C      1  0.5008770000000  0.4726340000000  0.4790510000000 1.0
C      1  0.4726340000000  0.4790510000000  0.5008770000000 1.0
C      1  0.4790510000000  0.5008770000000  0.4726340000000 1.0
C      1  0.4991230000000  0.5273660000000  0.4790510000000 1.0
C      1  0.5008770000000  0.5273660000000  0.5209490000000 1.0
C      1  0.4991230000000  0.4726340000000  0.5209490000000 1.0
C      1  0.5273660000000  0.5209490000000  0.5008770000000 1.0
C      1  0.4726340000000  0.5209490000000  0.4991230000000 1.0
C      1  0.5273660000000  0.4790510000000  0.4991230000000 1.0
C      1  0.5209490000000  0.4991230000000  0.4726340000000 1.0
C      1  0.4790510000000  0.4991230000000  0.5273660000000 1.0
C      1  0.5209490000000  0.5008770000000  0.5273660000000 1.0
END
