TITL C-3985251-913-110 4.79356179053405e-07 125000 -330.018957127734 0 0 60 (C4h) n - 1
REM
REM in /home/nfs/bkarasulu/CARBON/AIRSS/Generating-Clusters/TERSOFF/Higher-Symm/Only-C60
REM
REM
REM
REM
REM
REM ./C.cell (28575a23ae977d3b5fae324c64b13b57)
REM
REM compiler GCC version 9.2.1 20190827 (Red Hat 9.2.1-1)
REM options -cpp -mtune=generic -march=x86-64 -g -O0 -fpre-include=/usr/include/finclude/math-vector-fortran.h
REM seed 1457648489 1380167443 1752331987 1476787347 -1660764358 -361092026 1155070455 -909467707 1172957518 615321917 -621897585 1521913547 -1801514797 -1880852572 -1058499986 708613024 -1916827132 1019547001 -1882149417 1232181529 -1328776098 -2109778040 1409234527 1125940519 1599925527 1787140345 -1467325786 -899723337 853511820 554055225 521659179 601104617 372545405
REM
CELL 1.54180   50.00000   50.00000   50.00000   90.00000   90.00000   90.00000
LATT -1
SFAC C  
C      1  0.5556860000000  0.4558770000000  0.4681930000000 1.0
C      1  0.4558770000000  0.4443140000000  0.4681930000000 1.0
C      1  0.4443140000000  0.5441230000000  0.4681930000000 1.0
C      1  0.5441230000000  0.5556860000000  0.4681930000000 1.0
C      1  0.5556860000000  0.4558770000000  0.5341560000000 1.0
C      1  0.4558770000000  0.4443140000000  0.5341540000000 1.0
C      1  0.4443140000000  0.5441230000000  0.5341550000000 1.0
C      1  0.5441230000000  0.5556860000000  0.5341550000000 1.0
C      1  0.5757590000000  0.4918220000000  0.4763880000000 1.0
C      1  0.4918210000000  0.4242410000000  0.4763880000000 1.0
C      1  0.4242410000000  0.5081790000000  0.4763880000000 1.0
C      1  0.5081790000000  0.5757590000000  0.4763880000000 1.0
C      1  0.5757590000000  0.4918220000000  0.5259610000000 1.0
C      1  0.4918220000000  0.4242400000000  0.5259610000000 1.0
C      1  0.4242400000000  0.5081780000000  0.5259610000000 1.0
C      1  0.5081780000000  0.5757600000000  0.5259610000000 1.0
C      1  0.5233100000000  0.5486480000000  0.5542440000000 1.0
C      1  0.5486470000000  0.4766910000000  0.5542440000000 1.0
C      1  0.4766900000000  0.4513520000000  0.5542440000000 1.0
C      1  0.4513530000000  0.5233090000000  0.5542440000000 1.0
C      1  0.5233090000000  0.5486470000000  0.4481040000000 1.0
C      1  0.5486470000000  0.4766910000000  0.4481040000000 1.0
C      1  0.4766910000000  0.4513530000000  0.4481040000000 1.0
C      1  0.4513530000000  0.5233090000000  0.4481040000000 1.0
C      1  0.4987590000000  0.5243400000000  0.5177660000000 1.0
C      1  0.5243400000000  0.5012410000000  0.5177650000000 1.0
C      1  0.5012410000000  0.4756600000000  0.5177660000000 1.0
C      1  0.4756600000000  0.4987590000000  0.5177660000000 1.0
C      1  0.4987590000000  0.5243400000000  0.4845840000000 1.0
C      1  0.5243400000000  0.5012410000000  0.4845840000000 1.0
C      1  0.5012410000000  0.4756600000000  0.4845840000000 1.0
C      1  0.4756600000000  0.4987590000000  0.4845840000000 1.0
C      1  0.4433860000000  0.4634060000000  0.4857720000000 1.0
C      1  0.4634070000000  0.5566140000000  0.4857720000000 1.0
C      1  0.5566140000000  0.5365940000000  0.4857720000000 1.0
C      1  0.5365940000000  0.4433870000000  0.4857720000000 1.0
C      1  0.4433860000000  0.4634060000000  0.5165760000000 1.0
C      1  0.4634060000000  0.5566140000000  0.5165760000000 1.0
C      1  0.5566140000000  0.5365940000000  0.5165760000000 1.0
C      1  0.5365940000000  0.4433860000000  0.5165760000000 1.0
C      1  0.4473290000000  0.4905600000000  0.4755150000000 1.0
C      1  0.4905600000000  0.5526710000000  0.4755150000000 1.0
C      1  0.5526710000000  0.5094400000000  0.4755150000000 1.0
C      1  0.5094400000000  0.4473300000000  0.4755150000000 1.0
C      1  0.4473290000000  0.4905600000000  0.5268330000000 1.0
C      1  0.4905600000000  0.5526710000000  0.5268330000000 1.0
C      1  0.5526710000000  0.5094400000000  0.5268330000000 1.0
C      1  0.5094400000000  0.4473290000000  0.5268340000000 1.0
C      1  0.4893500000000  0.4788910000000  0.5578600000000 1.0
C      1  0.4788920000000  0.5106490000000  0.5578600000000 1.0
C      1  0.5106500000000  0.5211090000000  0.5578600000000 1.0
C      1  0.5211080000000  0.4893500000000  0.5578600000000 1.0
C      1  0.4893510000000  0.4788920000000  0.4444900000000 1.0
C      1  0.4788920000000  0.5106490000000  0.4444890000000 1.0
C      1  0.5106490000000  0.5211080000000  0.4444890000000 1.0
C      1  0.5211080000000  0.4893510000000  0.4444890000000 1.0
C      1  0.5872140000000  0.4830850000000  0.5011740000000 1.0
C      1  0.4830850000000  0.4127860000000  0.5011750000000 1.0
C      1  0.4127860000000  0.5169160000000  0.5011750000000 1.0
C      1  0.5169160000000  0.5872140000000  0.5011750000000 1.0
END
