TITL C-3985248-2097-138 -0.00720729397282388 125000 -332.899687596952 0 0 60 (C5) n - 1
REM
REM in /home/nfs/bkarasulu/CARBON/AIRSS/Generating-Clusters/TERSOFF/Higher-Symm/Only-C60
REM
REM
REM
REM
REM
REM ./C.cell (28575a23ae977d3b5fae324c64b13b57)
REM
REM compiler GCC version 9.2.1 20190827 (Red Hat 9.2.1-1)
REM options -cpp -mtune=generic -march=x86-64 -g -O0 -fpre-include=/usr/include/finclude/math-vector-fortran.h
REM seed 128247585 2146672692 207239268 -1455365665 -51161410 236962767 -231873206 -1313790398 -416671140 -731757107 -1904742435 -420063043 -391382697 1538538293 -1836115860 -202429066 -1201717722 827037721 -2134948525 764328350 -1473732385 -440352080 -990226786 -1587280400 834651508 -539823718 -2035866426 -1122556801 -1232519358 480307267 -441045439 2064293450 1937154005
REM
CELL 1.54180   50.00000   50.00000   50.00000   90.00000   90.00000   90.00000
LATT -1
SFAC C  
C      1  0.4542700000000  0.4787850000000  0.4382710000000 1.0
C      1  0.4655740000000  0.5370840000000  0.4382770000000 1.0
C      1  0.5246260000000  0.5440320000000  0.4381580000000 1.0
C      1  0.5496330000000  0.4901290000000  0.4380640000000 1.0
C      1  0.5058740000000  0.4499060000000  0.4381500000000 1.0
C      1  0.5059500000000  0.4445830000000  0.5513930000000 1.0
C      1  0.4492870000000  0.4771990000000  0.5511740000000 1.0
C      1  0.4625770000000  0.5413050000000  0.5512460000000 1.0
C      1  0.5275190000000  0.5483280000000  0.5514610000000 1.0
C      1  0.5545660000000  0.4886080000000  0.5514870000000 1.0
C      1  0.5141380000000  0.5237580000000  0.5674340000000 1.0
C      1  0.5267870000000  0.4938160000000  0.5673360000000 1.0
C      1  0.5022650000000  0.4725680000000  0.5671990000000 1.0
C      1  0.4744910000000  0.4893710000000  0.5673150000000 1.0
C      1  0.4818210000000  0.5210190000000  0.5674730000000 1.0
C      1  0.4847080000000  0.5245280000000  0.4888940000000 1.0
C      1  0.5185010000000  0.5220020000000  0.4888190000000 1.0
C      1  0.5265020000000  0.4891370000000  0.4887090000000 1.0
C      1  0.4978640000000  0.4713670000000  0.4888460000000 1.0
C      1  0.4720570000000  0.4932000000000  0.4890170000000 1.0
C      1  0.4365920000000  0.5143240000000  0.4765930000000 1.0
C      1  0.4939580000000  0.5647120000000  0.4766440000000 1.0
C      1  0.5600060000000  0.5256200000000  0.4764620000000 1.0
C      1  0.5428340000000  0.4512080000000  0.4765970000000 1.0
C      1  0.4668610000000  0.4441770000000  0.4765600000000 1.0
C      1  0.5530160000000  0.5245260000000  0.4464860000000 1.0
C      1  0.5399340000000  0.4572490000000  0.4465270000000 1.0
C      1  0.4717540000000  0.4489730000000  0.4465680000000 1.0
C      1  0.4426850000000  0.5111250000000  0.4465890000000 1.0
C      1  0.4927790000000  0.5579860000000  0.4466120000000 1.0
C      1  0.4833900000000  0.4801790000000  0.5272240000000 1.0
C      1  0.4762980000000  0.5096710000000  0.5272880000000 1.0
C      1  0.5019440000000  0.5255530000000  0.5271810000000 1.0
C      1  0.5250670000000  0.5061660000000  0.5270320000000 1.0
C      1  0.5138020000000  0.4780040000000  0.5271900000000 1.0
C      1  0.5220180000000  0.5675800000000  0.4878070000000 1.0
C      1  0.5711790000000  0.4997490000000  0.4876950000000 1.0
C      1  0.5218290000000  0.4324320000000  0.4877730000000 1.0
C      1  0.4424670000000  0.4583330000000  0.4876740000000 1.0
C      1  0.4424520000000  0.5419040000000  0.4877830000000 1.0
C      1  0.5536270000000  0.4761720000000  0.4977180000000 1.0
C      1  0.4938930000000  0.4415330000000  0.4977770000000 1.0
C      1  0.4424280000000  0.4877640000000  0.4977360000000 1.0
C      1  0.4704460000000  0.5510960000000  0.4978170000000 1.0
C      1  0.5393790000000  0.5437520000000  0.4977730000000 1.0
C      1  0.5031660000000  0.4747710000000  0.4567550000000 1.0
C      1  0.4769100000000  0.4892400000000  0.4569280000000 1.0
C      1  0.4826620000000  0.5186380000000  0.4569330000000 1.0
C      1  0.5123730000000  0.5222870000000  0.4567020000000 1.0
C      1  0.5250070000000  0.4950830000000  0.4565990000000 1.0
C      1  0.4626330000000  0.4558730000000  0.5333180000000 1.0
C      1  0.4467900000000  0.5218310000000  0.5332920000000 1.0
C      1  0.5043560000000  0.5574000000000  0.5330180000000 1.0
C      1  0.5562150000000  0.5136210000000  0.5332450000000 1.0
C      1  0.5305630000000  0.4504420000000  0.5335250000000 1.0
C      1  0.4861080000000  0.4377160000000  0.5283550000000 1.0
C      1  0.4364470000000  0.4940210000000  0.5283070000000 1.0
C      1  0.4746440000000  0.5587800000000  0.5284520000000 1.0
C      1  0.5477610000000  0.5421340000000  0.5284770000000 1.0
C      1  0.5547200000000  0.4676500000000  0.5282660000000 1.0
END
