TITL C-3985254-1270-1474 -3.22468025839822e-07 125000 -289.567599685123 0 0 60 (C4h) n - 1
REM
REM in /home/nfs/bkarasulu/CARBON/AIRSS/Generating-Clusters/TERSOFF/Higher-Symm/Only-C60
REM
REM
REM
REM
REM
REM ./C.cell (28575a23ae977d3b5fae324c64b13b57)
REM
REM compiler GCC version 9.2.1 20190827 (Red Hat 9.2.1-1)
REM options -cpp -mtune=generic -march=x86-64 -g -O0 -fpre-include=/usr/include/finclude/math-vector-fortran.h
REM seed -502758676 -1016718497 791023105 716401028 647561515 -212351758 -1183446511 -238897133 189577709 -1856558192 -1532262852 -1598247228 -2122195211 -1747753597 687830245 -500497928 -318967177 -18602326 65872735 2036012712 -1391794811 -522409303 965022501 -1383385528 1979225186 -127021064 -735756557 -696141668 -2051991040 -2113301777 -2134979902 1804822571 -952308182
REM
CELL 1.54180   50.00000   50.00000   50.00000   90.00000   90.00000   90.00000
LATT -1
SFAC C  
C      1  0.5559060000000  0.5157340000000  0.5487660000000 1.0
C      1  0.4512340000000  0.5157340000000  0.5559060000000 1.0
C      1  0.4440940000000  0.5157340000000  0.4512340000000 1.0
C      1  0.5487660000000  0.5157340000000  0.4440940000000 1.0
C      1  0.5558790000000  0.4833540000000  0.5488290000000 1.0
C      1  0.4511710000000  0.4833540000000  0.5558790000000 1.0
C      1  0.4441210000000  0.4833540000000  0.4511710000000 1.0
C      1  0.5488290000000  0.4833540000000  0.4441210000000 1.0
C      1  0.5216560000000  0.4216330000000  0.5076280000000 1.0
C      1  0.4923720000000  0.4216330000000  0.5216560000000 1.0
C      1  0.4783440000000  0.4216330000000  0.4923720000000 1.0
C      1  0.5076280000000  0.4216330000000  0.4783440000000 1.0
C      1  0.5216600000000  0.5774690000000  0.5076170000000 1.0
C      1  0.4923830000000  0.5774690000000  0.5216600000000 1.0
C      1  0.4783400000000  0.5774690000000  0.4923830000000 1.0
C      1  0.5076170000000  0.5774690000000  0.4783400000000 1.0
C      1  0.4787020000000  0.4683050000000  0.5117830000000 1.0
C      1  0.4882170000000  0.4683050000000  0.4787020000000 1.0
C      1  0.5212980000000  0.4683050000000  0.4882170000000 1.0
C      1  0.5117830000000  0.4683050000000  0.5212980000000 1.0
C      1  0.4787030000000  0.5308060000000  0.5117820000000 1.0
C      1  0.4882180000000  0.5308060000000  0.4787030000000 1.0
C      1  0.5212970000000  0.5308060000000  0.4882180000000 1.0
C      1  0.5117820000000  0.5308060000000  0.5212970000000 1.0
C      1  0.5369760000000  0.5393520000000  0.5404870000000 1.0
C      1  0.4595130000000  0.5393520000000  0.5369760000000 1.0
C      1  0.4630240000000  0.5393520000000  0.4595130000000 1.0
C      1  0.5404870000000  0.5393520000000  0.4630240000000 1.0
C      1  0.5369560000000  0.4597470000000  0.5405080000000 1.0
C      1  0.4594920000000  0.4597470000000  0.5369560000000 1.0
C      1  0.4630440000000  0.4597470000000  0.4594920000000 1.0
C      1  0.5405080000000  0.4597470000000  0.4630440000000 1.0
C      1  0.5599950000000  0.4527730000000  0.4920950000000 1.0
C      1  0.5079050000000  0.4527730000000  0.5599950000000 1.0
C      1  0.4400050000000  0.4527730000000  0.5079050000000 1.0
C      1  0.4920950000000  0.4527730000000  0.4400050000000 1.0
C      1  0.5600000000000  0.5463310000000  0.4920600000000 1.0
C      1  0.5079400000000  0.5463310000000  0.5600000000000 1.0
C      1  0.4400000000000  0.5463310000000  0.5079400000000 1.0
C      1  0.4920600000000  0.5463310000000  0.4400000000000 1.0
C      1  0.5017460000000  0.5150320000000  0.5517980000000 1.0
C      1  0.4482020000000  0.5150320000000  0.5017460000000 1.0
C      1  0.4982540000000  0.5150320000000  0.4482020000000 1.0
C      1  0.5517980000000  0.5150320000000  0.4982540000000 1.0
C      1  0.5017470000000  0.4840820000000  0.5518000000000 1.0
C      1  0.4482000000000  0.4840820000000  0.5017470000000 1.0
C      1  0.4982530000000  0.4840820000000  0.4482000000000 1.0
C      1  0.5518000000000  0.4840820000000  0.4982530000000 1.0
C      1  0.5152890000000  0.4402450000000  0.4565280000000 1.0
C      1  0.5434720000000  0.4402450000000  0.5152890000000 1.0
C      1  0.4847110000000  0.4402450000000  0.5434720000000 1.0
C      1  0.4565280000000  0.4402450000000  0.4847110000000 1.0
C      1  0.5152660000000  0.5588570000000  0.4565210000000 1.0
C      1  0.5434790000000  0.5588570000000  0.5152660000000 1.0
C      1  0.4847340000000  0.5588570000000  0.5434790000000 1.0
C      1  0.4565210000000  0.5588570000000  0.4847340000000 1.0
C      1  0.4830120000000  0.4995550000000  0.4841360000000 1.0
C      1  0.5158640000000  0.4995550000000  0.4830120000000 1.0
C      1  0.4841360000000  0.4995550000000  0.5169880000000 1.0
C      1  0.5169880000000  0.4995550000000  0.5158640000000 1.0
END
