TITL C-3985244-725-556 5.73459734713665e-05 125000 -325.076465818211 0 0 60 (C1) n - 1
REM
REM in /home/nfs/bkarasulu/CARBON/AIRSS/Generating-Clusters/TERSOFF/Higher-Symm/Only-C60
REM
REM
REM
REM
REM
REM ./C.cell (28575a23ae977d3b5fae324c64b13b57)
REM
REM compiler GCC version 9.2.1 20190827 (Red Hat 9.2.1-1)
REM options -cpp -mtune=generic -march=x86-64 -g -O0 -fpre-include=/usr/include/finclude/math-vector-fortran.h
REM seed -221456988 -1418940447 -1678797821 -21138320 42332148 -715896375 1492014939 -1181110233 131010957 170698146 643567631 1970161685 1912055085 -760464397 -1509150162 437240741 1954991466 -189638131 -1664513884 -432497849 477237228 -453884748 1127627782 -2070915661 2052718874 1347140717 -318069793 893980817 -330747584 1210796621 -1755992036 -981255120 -676322988
REM
CELL 1.54180   50.00000   50.00000   50.00000   90.00000   90.00000   90.00000
LATT -1
SFAC C  
C      1  0.5374520000000  0.4649440000000  0.5422580000000 1.0
C      1  0.5023690000000  0.4263400000000  0.4688330000000 1.0
C      1  0.5035530000000  0.5519190000000  0.4422980000000 1.0
C      1  0.4867800000000  0.5129630000000  0.4707510000000 1.0
C      1  0.5004290000000  0.5579890000000  0.4917240000000 1.0
C      1  0.5459730000000  0.4580090000000  0.4694840000000 1.0
C      1  0.4982950000000  0.4807000000000  0.5502140000000 1.0
C      1  0.5378500000000  0.5184180000000  0.4682620000000 1.0
C      1  0.4494920000000  0.5196440000000  0.4407970000000 1.0
C      1  0.5158730000000  0.5398460000000  0.5136300000000 1.0
C      1  0.4998760000000  0.5213700000000  0.5773280000000 1.0
C      1  0.5554840000000  0.5539080000000  0.4928130000000 1.0
C      1  0.5274750000000  0.5131940000000  0.4986520000000 1.0
C      1  0.5109470000000  0.5033310000000  0.5386140000000 1.0
C      1  0.5083090000000  0.4863640000000  0.4982590000000 1.0
C      1  0.5279590000000  0.5216470000000  0.4264540000000 1.0
C      1  0.4337250000000  0.4955980000000  0.4798820000000 1.0
C      1  0.4473040000000  0.4932390000000  0.4530170000000 1.0
C      1  0.5314080000000  0.5273200000000  0.5661700000000 1.0
C      1  0.4761830000000  0.4371510000000  0.4997990000000 1.0
C      1  0.4617280000000  0.4575470000000  0.4780580000000 1.0
C      1  0.4589440000000  0.4826940000000  0.5646820000000 1.0
C      1  0.5534110000000  0.4567850000000  0.5181470000000 1.0
C      1  0.4660660000000  0.4596650000000  0.5197210000000 1.0
C      1  0.4715470000000  0.5253060000000  0.5159650000000 1.0
C      1  0.4825170000000  0.5378920000000  0.5587340000000 1.0
C      1  0.5562570000000  0.5061800000000  0.5157690000000 1.0
C      1  0.4346660000000  0.4990450000000  0.5217160000000 1.0
C      1  0.4713260000000  0.5059900000000  0.4954340000000 1.0
C      1  0.5309150000000  0.5589440000000  0.4767130000000 1.0
C      1  0.5382990000000  0.4434330000000  0.4954440000000 1.0
C      1  0.5237110000000  0.4919170000000  0.4348780000000 1.0
C      1  0.4460420000000  0.5393850000000  0.5243100000000 1.0
C      1  0.4574510000000  0.5431570000000  0.4565020000000 1.0
C      1  0.5679330000000  0.4796180000000  0.5069210000000 1.0
C      1  0.5675040000000  0.4782930000000  0.4776390000000 1.0
C      1  0.4866740000000  0.4919560000000  0.5767970000000 1.0
C      1  0.4516340000000  0.4802050000000  0.5003980000000 1.0
C      1  0.5317050000000  0.5444240000000  0.4476920000000 1.0
C      1  0.5690090000000  0.5273790000000  0.4948190000000 1.0
C      1  0.5554010000000  0.4928710000000  0.4399300000000 1.0
C      1  0.4622550000000  0.4562920000000  0.5501290000000 1.0
C      1  0.5090730000000  0.4300730000000  0.5003210000000 1.0
C      1  0.5114280000000  0.4445930000000  0.5333560000000 1.0
C      1  0.5003040000000  0.4491250000000  0.4506910000000 1.0
C      1  0.4460230000000  0.5488930000000  0.4834200000000 1.0
C      1  0.4686690000000  0.5632440000000  0.4981890000000 1.0
C      1  0.5316250000000  0.5470490000000  0.5406880000000 1.0
C      1  0.4438650000000  0.5038530000000  0.5501840000000 1.0
C      1  0.4881580000000  0.4401110000000  0.5538220000000 1.0
C      1  0.5675830000000  0.5063520000000  0.4654050000000 1.0
C      1  0.5412340000000  0.5009470000000  0.5436600000000 1.0
C      1  0.4520820000000  0.5328710000000  0.5546190000000 1.0
C      1  0.4734510000000  0.4683150000000  0.4508460000000 1.0
C      1  0.5255170000000  0.4635500000000  0.4484720000000 1.0
C      1  0.4281240000000  0.5258030000000  0.4986990000000 1.0
C      1  0.4939700000000  0.4925310000000  0.4512520000000 1.0
C      1  0.4951180000000  0.5280730000000  0.5322780000000 1.0
C      1  0.4952050000000  0.4688180000000  0.5208210000000 1.0
C      1  0.4868430000000  0.5429250000000  0.4636400000000 1.0
END
