TITL C-3985247-764-378 -1.9316862654808e-07 125000 -288.657050696252 0 0 60 (C3i) n - 1
REM
REM in /home/nfs/bkarasulu/CARBON/AIRSS/Generating-Clusters/TERSOFF/Higher-Symm/Only-C60
REM
REM
REM
REM
REM
REM ./C.cell (28575a23ae977d3b5fae324c64b13b57)
REM
REM compiler GCC version 9.2.1 20190827 (Red Hat 9.2.1-1)
REM options -cpp -mtune=generic -march=x86-64 -g -O0 -fpre-include=/usr/include/finclude/math-vector-fortran.h
REM seed 1548253832 339884230 869290660 95215685 -1655333016 1982185377 -434513462 -1850499871 247660855 -1121849521 -434710902 227449025 -547715668 223072346 1924947352 1542567940 -449505565 837860669 -1920693017 -2056394041 621148888 1351769905 -444669410 440691247 -546909323 -1040393419 -1708016080 2129941587 717751767 581408427 -1001190574 713363726 -652485375
REM
CELL 1.54180   50.00000   50.00000   50.00000   90.00000   90.00000   90.00000
LATT -1
SFAC C  
C      1  0.4504790000000  0.5438150000000  0.5305250000000 1.0
C      1  0.5016680000000  0.4561820000000  0.5581470000000 1.0
C      1  0.5511980000000  0.5438090000000  0.5276310000000 1.0
C      1  0.5495210000000  0.4561850000000  0.4694750000000 1.0
C      1  0.4983320000000  0.5438180000000  0.4418530000000 1.0
C      1  0.4488020000000  0.4561910000000  0.4723690000000 1.0
C      1  0.4670210000000  0.4642670000000  0.5518510000000 1.0
C      1  0.5284200000000  0.5357260000000  0.5544880000000 1.0
C      1  0.5613930000000  0.4642650000000  0.5026290000000 1.0
C      1  0.5329790000000  0.5357330000000  0.4481490000000 1.0
C      1  0.4715800000000  0.4642740000000  0.4455120000000 1.0
C      1  0.4386070000000  0.5357350000000  0.4973710000000 1.0
C      1  0.5344680000000  0.4917820000000  0.5373400000000 1.0
C      1  0.5495730000000  0.5082110000000  0.4888210000000 1.0
C      1  0.5151040000000  0.4917890000000  0.4514790000000 1.0
C      1  0.4655320000000  0.5082180000000  0.4626600000000 1.0
C      1  0.4504270000000  0.4917890000000  0.5111790000000 1.0
C      1  0.4848960000000  0.5082110000000  0.5485210000000 1.0
C      1  0.5047610000000  0.4860150000000  0.5415680000000 1.0
C      1  0.5383810000000  0.5139780000000  0.5166610000000 1.0
C      1  0.5336180000000  0.4860180000000  0.4750910000000 1.0
C      1  0.4952390000000  0.5139850000000  0.4584320000000 1.0
C      1  0.4616190000000  0.4860220000000  0.4833390000000 1.0
C      1  0.4663820000000  0.5139820000000  0.5249090000000 1.0
C      1  0.4862340000000  0.4686160000000  0.4867280000000 1.0
C      1  0.4816280000000  0.5313860000000  0.5052870000000 1.0
C      1  0.4953880000000  0.4686140000000  0.5185530000000 1.0
C      1  0.5137660000000  0.5313840000000  0.5132720000000 1.0
C      1  0.5183720000000  0.4686140000000  0.4947130000000 1.0
C      1  0.5046120000000  0.5313860000000  0.4814470000000 1.0
C      1  0.5764730000000  0.4918580000000  0.4903110000000 1.0
C      1  0.5298460000000  0.5081410000000  0.4289290000000 1.0
C      1  0.4533720000000  0.4918690000000  0.4386160000000 1.0
C      1  0.4235270000000  0.5081420000000  0.5096890000000 1.0
C      1  0.4701540000000  0.4918590000000  0.5710710000000 1.0
C      1  0.5466280000000  0.5081310000000  0.5613840000000 1.0
C      1  0.5266130000000  0.4375140000000  0.4990310000000 1.0
C      1  0.5124770000000  0.5624850000000  0.4764710000000 1.0
C      1  0.4858530000000  0.4375180000000  0.4774270000000 1.0
C      1  0.4733870000000  0.5624860000000  0.5009690000000 1.0
C      1  0.4875230000000  0.4375150000000  0.5235290000000 1.0
C      1  0.5141470000000  0.5624820000000  0.5225730000000 1.0
C      1  0.4234950000000  0.5263270000000  0.5354040000000 1.0
C      1  0.4924050000000  0.4736700000000  0.5839560000000 1.0
C      1  0.5689140000000  0.5263170000000  0.5485570000000 1.0
C      1  0.5765050000000  0.4736730000000  0.4645960000000 1.0
C      1  0.5075950000000  0.5263300000000  0.4160440000000 1.0
C      1  0.4310860000000  0.4736830000000  0.4514430000000 1.0
C      1  0.4557030000000  0.5353670000000  0.4725150000000 1.0
C      1  0.4540440000000  0.4646390000000  0.5246180000000 1.0
C      1  0.4983470000000  0.5353590000000  0.5521100000000 1.0
C      1  0.5442970000000  0.4646330000000  0.5274850000000 1.0
C      1  0.5459560000000  0.5353610000000  0.4753820000000 1.0
C      1  0.5016530000000  0.4646410000000  0.4478900000000 1.0
C      1  0.4777570000000  0.5600900000000  0.4667660000000 1.0
C      1  0.4600880000000  0.4399160000000  0.5026430000000 1.0
C      1  0.4823420000000  0.5600850000000  0.5358900000000 1.0
C      1  0.5222430000000  0.4399100000000  0.5332340000000 1.0
C      1  0.5399120000000  0.5600840000000  0.4973570000000 1.0
C      1  0.5176580000000  0.4399150000000  0.4641100000000 1.0
END
