TITL C-3985254-1270-1223 1.4479296558622e-06 125000 -337.413297336794 0 0 60 (C2) n - 1
REM
REM in /home/nfs/bkarasulu/CARBON/AIRSS/Generating-Clusters/TERSOFF/Higher-Symm/Only-C60
REM
REM
REM
REM
REM
REM ./C.cell (28575a23ae977d3b5fae324c64b13b57)
REM
REM compiler GCC version 9.2.1 20190827 (Red Hat 9.2.1-1)
REM options -cpp -mtune=generic -march=x86-64 -g -O0 -fpre-include=/usr/include/finclude/math-vector-fortran.h
REM seed -99274180 1444051678 398544530 726911191 -783445770 -1758156650 1450845135 223951100 268989539 -981445930 -559156701 1425033791 -632413415 -698172299 -336791042 -1206709267 433407759 1480038375 1734522975 -1735063751 163152856 361489419 -1671210941 -764373062 -2083003880 1553749185 188689574 -1462284988 2006233535 -282894901 -1986832981 -1813088628 1308969092
REM
CELL 1.54180   50.00000   50.00000   50.00000   90.00000   90.00000   90.00000
LATT -1
SFAC C  
C      1  0.4433660000000  0.5130190000000  0.5450810000000 1.0
C      1  0.4811990000000  0.5541930000000  0.5448240000000 1.0
C      1  0.5472120000000  0.5425490000000  0.5439290000000 1.0
C      1  0.5566330000000  0.4869830000000  0.5450820000000 1.0
C      1  0.5188010000000  0.4458090000000  0.5448260000000 1.0
C      1  0.4527880000000  0.4574530000000  0.5439300000000 1.0
C      1  0.5644520000000  0.5180230000000  0.5424190000000 1.0
C      1  0.5159260000000  0.5447510000000  0.5407240000000 1.0
C      1  0.4529570000000  0.5434430000000  0.5413000000000 1.0
C      1  0.4355470000000  0.4819780000000  0.5424200000000 1.0
C      1  0.4840740000000  0.4552500000000  0.5407260000000 1.0
C      1  0.5470430000000  0.4565590000000  0.5413010000000 1.0
C      1  0.5468040000000  0.5450470000000  0.4553260000000 1.0
C      1  0.5490110000000  0.4880850000000  0.4604390000000 1.0
C      1  0.5177260000000  0.4384080000000  0.4529950000000 1.0
C      1  0.4531970000000  0.4549510000000  0.4553280000000 1.0
C      1  0.4509890000000  0.5119130000000  0.4604380000000 1.0
C      1  0.4822740000000  0.5615900000000  0.4529920000000 1.0
C      1  0.4569290000000  0.5461790000000  0.4536750000000 1.0
C      1  0.4396860000000  0.4845760000000  0.4533300000000 1.0
C      1  0.4832300000000  0.4475870000000  0.4548640000000 1.0
C      1  0.5430720000000  0.4538190000000  0.4536770000000 1.0
C      1  0.5603140000000  0.5154220000000  0.4533290000000 1.0
C      1  0.5167710000000  0.5524110000000  0.4548610000000 1.0
C      1  0.5668930000000  0.5580130000000  0.4770400000000 1.0
C      1  0.5709880000000  0.4734660000000  0.4780950000000 1.0
C      1  0.5154610000000  0.4150550000000  0.4747530000000 1.0
C      1  0.4331070000000  0.4419850000000  0.4770420000000 1.0
C      1  0.4290130000000  0.5265330000000  0.4780940000000 1.0
C      1  0.4845390000000  0.5849440000000  0.4747500000000 1.0
C      1  0.4347580000000  0.5564740000000  0.4760250000000 1.0
C      1  0.4197170000000  0.4707750000000  0.4751270000000 1.0
C      1  0.4857980000000  0.4224410000000  0.4750680000000 1.0
C      1  0.5652430000000  0.4435250000000  0.4760280000000 1.0
C      1  0.5802830000000  0.5292240000000  0.4751270000000 1.0
C      1  0.5142020000000  0.5775590000000  0.4750640000000 1.0
C      1  0.5806910000000  0.4774060000000  0.5272590000000 1.0
C      1  0.5157370000000  0.4190810000000  0.5252830000000 1.0
C      1  0.4367940000000  0.4375590000000  0.5282100000000 1.0
C      1  0.4193100000000  0.5225950000000  0.5272570000000 1.0
C      1  0.4842630000000  0.5809210000000  0.5252790000000 1.0
C      1  0.5632060000000  0.5624420000000  0.5282080000000 1.0
C      1  0.4122710000000  0.4752910000000  0.5252890000000 1.0
C      1  0.4872000000000  0.4277000000000  0.5239580000000 1.0
C      1  0.5646350000000  0.4386430000000  0.5258330000000 1.0
C      1  0.5877280000000  0.5247100000000  0.5252880000000 1.0
C      1  0.5127990000000  0.5723010000000  0.5239540000000 1.0
C      1  0.4353650000000  0.5613580000000  0.5258310000000 1.0
C      1  0.4441190000000  0.4294640000000  0.5012330000000 1.0
C      1  0.4148490000000  0.5139460000000  0.4998510000000 1.0
C      1  0.4691720000000  0.5839930000000  0.4999020000000 1.0
C      1  0.5558810000000  0.5705360000000  0.5012300000000 1.0
C      1  0.5851510000000  0.4860540000000  0.4998530000000 1.0
C      1  0.5308280000000  0.4160070000000  0.4999060000000 1.0
C      1  0.5572480000000  0.4282970000000  0.4997400000000 1.0
C      1  0.5904810000000  0.5144450000000  0.4982170000000 1.0
C      1  0.5281880000000  0.5774850000000  0.5002160000000 1.0
C      1  0.4427520000000  0.5717030000000  0.4997370000000 1.0
C      1  0.4095190000000  0.4855550000000  0.4982160000000 1.0
C      1  0.4718120000000  0.4225150000000  0.5002190000000 1.0
END
