TITL C-3985259-1859-772 -4.73171189265909e-06 125000 -313.702332482235 0 0 60 (C1) n - 1
REM
REM in /home/nfs/bkarasulu/CARBON/AIRSS/Generating-Clusters/TERSOFF/Higher-Symm/Only-C60
REM
REM
REM
REM
REM
REM ./C.cell (28575a23ae977d3b5fae324c64b13b57)
REM
REM compiler GCC version 9.2.1 20190827 (Red Hat 9.2.1-1)
REM options -cpp -mtune=generic -march=x86-64 -g -O0 -fpre-include=/usr/include/finclude/math-vector-fortran.h
REM seed -653903600 580257321 -1367618128 -852186014 89698249 -1198798731 -1425726974 -1740958675 -964798746 825603586 -1641343065 -219863390 -731286377 627820295 613063071 1941837066 1772206432 216934883 774045977 1418708 -819301118 -2139642079 2143705671 -634159737 -1347558032 1832107868 -446495336 309235581 1756669005 -628688090 -323831772 -2121616472 -1886911256
REM
CELL 1.54180   50.00000   50.00000   50.00000   90.00000   90.00000   90.00000
LATT -1
SFAC C  
C      1  0.4703260000000  0.4443620000000  0.4618370000000 1.0
C      1  0.4680300000000  0.5608350000000  0.4696590000000 1.0
C      1  0.4700350000000  0.4959730000000  0.5673830000000 1.0
C      1  0.5316840000000  0.5472230000000  0.5191240000000 1.0
C      1  0.5308060000000  0.4523990000000  0.5372840000000 1.0
C      1  0.5357920000000  0.4918880000000  0.4395920000000 1.0
C      1  0.4981310000000  0.4866900000000  0.4746460000000 1.0
C      1  0.5001210000000  0.5270860000000  0.5003340000000 1.0
C      1  0.4963930000000  0.4854560000000  0.5248450000000 1.0
C      1  0.4828850000000  0.5293840000000  0.5722070000000 1.0
C      1  0.4823670000000  0.4228180000000  0.4881050000000 1.0
C      1  0.4793700000000  0.5479870000000  0.4377580000000 1.0
C      1  0.4393750000000  0.5040680000000  0.4718110000000 1.0
C      1  0.4390070000000  0.5225490000000  0.5179930000000 1.0
C      1  0.4386790000000  0.4730040000000  0.5109500000000 1.0
C      1  0.4773100000000  0.4466930000000  0.5389020000000 1.0
C      1  0.4772990000000  0.4922270000000  0.4347390000000 1.0
C      1  0.4784410000000  0.5600530000000  0.5257910000000 1.0
C      1  0.4423970000000  0.4544180000000  0.4640720000000 1.0
C      1  0.4408280000000  0.5536300000000  0.4785920000000 1.0
C      1  0.4421210000000  0.4925440000000  0.5577620000000 1.0
C      1  0.4891140000000  0.5146460000000  0.5251490000000 1.0
C      1  0.4884670000000  0.4716990000000  0.4994630000000 1.0
C      1  0.4895110000000  0.5162870000000  0.4742530000000 1.0
C      1  0.4336660000000  0.4957000000000  0.5294710000000 1.0
C      1  0.4339330000000  0.4768390000000  0.4816680000000 1.0
C      1  0.4334950000000  0.5272120000000  0.4894520000000 1.0
C      1  0.5433640000000  0.4695540000000  0.5010780000000 1.0
C      1  0.5451370000000  0.5215630000000  0.4676550000000 1.0
C      1  0.5528960000000  0.5131420000000  0.5310730000000 1.0
C      1  0.5276290000000  0.5617490000000  0.4799320000000 1.0
C      1  0.5265410000000  0.4845610000000  0.5637980000000 1.0
C      1  0.5279070000000  0.4549590000000  0.4577550000000 1.0
C      1  0.4919590000000  0.5176730000000  0.4221300000000 1.0
C      1  0.4946310000000  0.5580650000000  0.5533870000000 1.0
C      1  0.4929480000000  0.4230070000000  0.5226810000000 1.0
C      1  0.4941440000000  0.4657960000000  0.4504970000000 1.0
C      1  0.4944960000000  0.5595180000000  0.4940600000000 1.0
C      1  0.4927060000000  0.4748080000000  0.5554150000000 1.0
C      1  0.5553290000000  0.4693060000000  0.5484470000000 1.0
C      1  0.5582400000000  0.4743780000000  0.4594870000000 1.0
C      1  0.5530960000000  0.5541010000000  0.4981980000000 1.0
C      1  0.5305080000000  0.5148000000000  0.5064080000000 1.0
C      1  0.5257060000000  0.4826090000000  0.5218830000000 1.0
C      1  0.5270770000000  0.4976250000000  0.4746050000000 1.0
C      1  0.5233440000000  0.5183120000000  0.4280030000000 1.0
C      1  0.5254560000000  0.5521560000000  0.5487380000000 1.0
C      1  0.5239940000000  0.4288140000000  0.5199670000000 1.0
C      1  0.5324270000000  0.4435030000000  0.4887250000000 1.0
C      1  0.5312210000000  0.5437220000000  0.4520400000000 1.0
C      1  0.5343410000000  0.5180150000000  0.5563800000000 1.0
C      1  0.5680610000000  0.4888710000000  0.4910750000000 1.0
C      1  0.5677770000000  0.5250050000000  0.4871950000000 1.0
C      1  0.5698600000000  0.4884600000000  0.5275420000000 1.0
C      1  0.4649080000000  0.5079980000000  0.4583150000000 1.0
C      1  0.4647130000000  0.5321590000000  0.5281060000000 1.0
C      1  0.4644950000000  0.4596820000000  0.5137880000000 1.0
C      1  0.5016440000000  0.4471430000000  0.4895540000000 1.0
C      1  0.5010860000000  0.5382720000000  0.4574310000000 1.0
C      1  0.5027780000000  0.5170030000000  0.5518050000000 1.0
END
