TITL C-3985245-9316-461 0.00122938948694671 125000 -312.484523705575 0 0 60 (C1) n - 1
REM
REM in /home/nfs/bkarasulu/CARBON/AIRSS/Generating-Clusters/TERSOFF/Higher-Symm/Only-C60
REM
REM
REM
REM
REM
REM ./C.cell (28575a23ae977d3b5fae324c64b13b57)
REM
REM compiler GCC version 9.2.1 20190827 (Red Hat 9.2.1-1)
REM options -cpp -mtune=generic -march=x86-64 -g -O0 -fpre-include=/usr/include/finclude/math-vector-fortran.h
REM seed -783565175 -764751487 -879830559 -94894680 -2086134817 -1004652799 1529869794 -190117811 1052269624 274201929 378183574 -1765389301 -1243819205 1360414431 1837219632 551989332 -1259604315 1825720861 -1546286333 413571108 -1065596449 -576164126 -1355435666 -1466854914 -4124364 -2043523666 1010783894 1243637828 -27639205 700720100 1000957581 648588408 -1627078353
REM
CELL 1.54180   50.00000   50.00000   50.00000   90.00000   90.00000   90.00000
LATT -1
SFAC C  
C      1  0.5405310000000  0.4768580000000  0.4356220000000 1.0
C      1  0.5693440000000  0.4795210000000  0.5249500000000 1.0
C      1  0.4934090000000  0.4723620000000  0.5688480000000 1.0
C      1  0.4256640000000  0.4769870000000  0.5187320000000 1.0
C      1  0.4633450000000  0.4798650000000  0.4422040000000 1.0
C      1  0.5400780000000  0.4765760000000  0.5639480000000 1.0
C      1  0.5691530000000  0.4794600000000  0.4748920000000 1.0
C      1  0.4934300000000  0.4723120000000  0.4297430000000 1.0
C      1  0.4299050000000  0.4735320000000  0.4825470000000 1.0
C      1  0.4630540000000  0.4792050000000  0.5586110000000 1.0
C      1  0.4462670000000  0.5026720000000  0.4846770000000 1.0
C      1  0.5016790000000  0.5011690000000  0.4450400000000 1.0
C      1  0.5578000000000  0.5054470000000  0.4680740000000 1.0
C      1  0.5378650000000  0.5061790000000  0.5540650000000 1.0
C      1  0.4697350000000  0.5062600000000  0.5421770000000 1.0
C      1  0.4444100000000  0.5042700000000  0.5166650000000 1.0
C      1  0.5017380000000  0.5013680000000  0.5543990000000 1.0
C      1  0.5579920000000  0.5054830000000  0.5318900000000 1.0
C      1  0.5377370000000  0.5062970000000  0.4458070000000 1.0
C      1  0.4703830000000  0.5069050000000  0.4582370000000 1.0
C      1  0.5021720000000  0.4491880000000  0.4559710000000 1.0
C      1  0.5488080000000  0.4584820000000  0.4834950000000 1.0
C      1  0.5312120000000  0.4578920000000  0.5415230000000 1.0
C      1  0.4709760000000  0.4592010000000  0.5359430000000 1.0
C      1  0.4542030000000  0.4509540000000  0.4850290000000 1.0
C      1  0.5014310000000  0.4494390000000  0.5422180000000 1.0
C      1  0.5490250000000  0.4586860000000  0.5163010000000 1.0
C      1  0.5315820000000  0.4578370000000  0.4576820000000 1.0
C      1  0.4735200000000  0.4602000000000  0.4645920000000 1.0
C      1  0.4503560000000  0.4565840000000  0.5150250000000 1.0
C      1  0.5036460000000  0.5299640000000  0.4313720000000 1.0
C      1  0.5631290000000  0.5288540000000  0.4844940000000 1.0
C      1  0.5353370000000  0.5361310000000  0.5664060000000 1.0
C      1  0.4585090000000  0.5352350000000  0.5489930000000 1.0
C      1  0.4361890000000  0.5311690000000  0.4722590000000 1.0
C      1  0.5036140000000  0.5299000000000  0.5686090000000 1.0
C      1  0.5630780000000  0.5289090000000  0.5154070000000 1.0
C      1  0.5353820000000  0.5363510000000  0.4336040000000 1.0
C      1  0.4589790000000  0.5353520000000  0.4500760000000 1.0
C      1  0.4346480000000  0.5330680000000  0.5278820000000 1.0
C      1  0.5316600000000  0.5604850000000  0.5427070000000 1.0
C      1  0.4748520000000  0.5611660000000  0.5359060000000 1.0
C      1  0.4498650000000  0.5563500000000  0.4852370000000 1.0
C      1  0.5013370000000  0.5536760000000  0.4510300000000 1.0
C      1  0.5468160000000  0.5560250000000  0.4828550000000 1.0
C      1  0.5316210000000  0.5605750000000  0.4574770000000 1.0
C      1  0.4746210000000  0.5617240000000  0.4637320000000 1.0
C      1  0.4496070000000  0.5572610000000  0.5144050000000 1.0
C      1  0.5013250000000  0.5538490000000  0.5493010000000 1.0
C      1  0.5466820000000  0.5560560000000  0.5171850000000 1.0
C      1  0.4354280000000  0.4748000000000  0.5679110000000 1.0
C      1  0.4166140000000  0.4719180000000  0.4557020000000 1.0
C      1  0.5053060000000  0.4681380000000  0.4029540000000 1.0
C      1  0.5961060000000  0.4778030000000  0.4855800000000 1.0
C      1  0.5332400000000  0.4700450000000  0.5916930000000 1.0
C      1  0.4354690000000  0.4750290000000  0.4337330000000 1.0
C      1  0.4154390000000  0.4730490000000  0.5469550000000 1.0
C      1  0.5045770000000  0.4674140000000  0.5957330000000 1.0
C      1  0.5962360000000  0.4778890000000  0.5141420000000 1.0
C      1  0.5338830000000  0.4706290000000  0.4077530000000 1.0
END
