TITL C-3985257-5396-117 0.00757305518625021 125000 -325.034939967708 0 0 60 (C2h) n - 1
REM
REM in /home/nfs/bkarasulu/CARBON/AIRSS/Generating-Clusters/TERSOFF/Higher-Symm/Only-C60
REM
REM
REM
REM
REM
REM ./C.cell (28575a23ae977d3b5fae324c64b13b57)
REM
REM compiler GCC version 9.2.1 20190827 (Red Hat 9.2.1-1)
REM options -cpp -mtune=generic -march=x86-64 -g -O0 -fpre-include=/usr/include/finclude/math-vector-fortran.h
REM seed -361668986 -73524172 136742413 -2083519878 1822116695 654202984 -1337491966 1356119926 -221530292 -2059500336 97730576 -408185420 -1084745933 993668967 1442490412 504186869 2143755403 -1394728127 -2092939450 -1136806200 -2126284896 -503414872 -1280700613 630366692 513040685 1446427362 525790485 -1642223583 689539190 -1470551867 -474076986 872024374 659792743
REM
CELL 1.54180   50.00000   50.00000   50.00000   90.00000   90.00000   90.00000
LATT -1
SFAC C  
C      1  0.4697750000000  0.5597030000000  0.4838680000000 1.0
C      1  0.5302550000000  0.4402820000000  0.4838920000000 1.0
C      1  0.4697500000000  0.5597160000000  0.5161140000000 1.0
C      1  0.5302180000000  0.4403020000000  0.5161390000000 1.0
C      1  0.4963300000000  0.4460390000000  0.5587340000000 1.0
C      1  0.5036870000000  0.5539440000000  0.5587320000000 1.0
C      1  0.4963170000000  0.4460570000000  0.4412720000000 1.0
C      1  0.5036710000000  0.5539680000000  0.4412710000000 1.0
C      1  0.4773240000000  0.4479050000000  0.4844870000000 1.0
C      1  0.5226600000000  0.5520610000000  0.4845050000000 1.0
C      1  0.4773450000000  0.4479440000000  0.5154910000000 1.0
C      1  0.5226720000000  0.5520920000000  0.5155100000000 1.0
C      1  0.5442820000000  0.5409800000000  0.4690740000000 1.0
C      1  0.4556820000000  0.4589780000000  0.4690720000000 1.0
C      1  0.5443120000000  0.5410270000000  0.5309270000000 1.0
C      1  0.4557250000000  0.4590200000000  0.5309240000000 1.0
C      1  0.4842770000000  0.4166520000000  0.4829290000000 1.0
C      1  0.5157070000000  0.5832950000000  0.4829350000000 1.0
C      1  0.4842960000000  0.4167180000000  0.5170630000000 1.0
C      1  0.5157180000000  0.5833380000000  0.5170690000000 1.0
C      1  0.4857000000000  0.5053300000000  0.4423260000000 1.0
C      1  0.5143840000000  0.4946490000000  0.4424020000000 1.0
C      1  0.4856220000000  0.5053510000000  0.5576020000000 1.0
C      1  0.5142800000000  0.4946840000000  0.5576970000000 1.0
C      1  0.5594160000000  0.5191120000000  0.5167880000000 1.0
C      1  0.4406090000000  0.4809360000000  0.5167820000000 1.0
C      1  0.5593880000000  0.5190570000000  0.4832180000000 1.0
C      1  0.4405920000000  0.4809020000000  0.4832140000000 1.0
C      1  0.5322620000000  0.5136240000000  0.4302130000000 1.0
C      1  0.4677140000000  0.4864170000000  0.4302560000000 1.0
C      1  0.5322890000000  0.5135750000000  0.5697280000000 1.0
C      1  0.4677390000000  0.4863760000000  0.5697760000000 1.0
C      1  0.4819970000000  0.5106340000000  0.5264800000000 1.0
C      1  0.5180590000000  0.4893240000000  0.5264210000000 1.0
C      1  0.4819390000000  0.5106690000000  0.4735660000000 1.0
C      1  0.5180110000000  0.4893690000000  0.4735020000000 1.0
C      1  0.5317910000000  0.5397820000000  0.5583810000000 1.0
C      1  0.4681840000000  0.4601580000000  0.5584520000000 1.0
C      1  0.5318020000000  0.5398400000000  0.4415580000000 1.0
C      1  0.4682170000000  0.4602140000000  0.4416230000000 1.0
C      1  0.4789240000000  0.5362810000000  0.4404390000000 1.0
C      1  0.5211270000000  0.4637760000000  0.4403890000000 1.0
C      1  0.4788890000000  0.5362160000000  0.5596040000000 1.0
C      1  0.5210570000000  0.4637230000000  0.5595280000000 1.0
C      1  0.5445030000000  0.4586400000000  0.5371780000000 1.0
C      1  0.4555460000000  0.5413340000000  0.5371190000000 1.0
C      1  0.5444660000000  0.4586560000000  0.4628920000000 1.0
C      1  0.4555020000000  0.5413550000000  0.4628420000000 1.0
C      1  0.4514180000000  0.5115680000000  0.5171630000000 1.0
C      1  0.5485470000000  0.4883870000000  0.5171490000000 1.0
C      1  0.4514390000000  0.5116070000000  0.4828490000000 1.0
C      1  0.5485860000000  0.4884340000000  0.4828280000000 1.0
C      1  0.4983010000000  0.4207680000000  0.5438380000000 1.0
C      1  0.5016720000000  0.5792330000000  0.5437760000000 1.0
C      1  0.4983330000000  0.4207630000000  0.4562340000000 1.0
C      1  0.5016920000000  0.5792360000000  0.4561790000000 1.0
C      1  0.5060880000000  0.4626740000000  0.4841210000000 1.0
C      1  0.4939190000000  0.5373700000000  0.4841370000000 1.0
C      1  0.5060790000000  0.4626220000000  0.5158660000000 1.0
C      1  0.4939140000000  0.5373350000000  0.5158730000000 1.0
END
