TITL C-3985245-9316-315 -0.000664946334701721 125000 -309.749712239591 0 0 60 (C1) n - 1
REM
REM in /home/nfs/bkarasulu/CARBON/AIRSS/Generating-Clusters/TERSOFF/Higher-Symm/Only-C60
REM
REM
REM
REM
REM
REM ./C.cell (28575a23ae977d3b5fae324c64b13b57)
REM
REM compiler GCC version 9.2.1 20190827 (Red Hat 9.2.1-1)
REM options -cpp -mtune=generic -march=x86-64 -g -O0 -fpre-include=/usr/include/finclude/math-vector-fortran.h
REM seed 309913053 -1448690338 16500292 1785360693 1373414338 423767657 -428547570 -2028491840 494254485 -1348538512 -1067021587 -815910986 -204831611 2105693719 1645241825 765451277 -1268737959 1800747242 -1818159934 -255324907 422599476 -387524653 -249089863 189815620 1494073610 1132159657 -690709127 1394282991 -265157254 -174433551 1885959948 1865673723 283642757
REM
CELL 1.54180   50.00000   50.00000   50.00000   90.00000   90.00000   90.00000
LATT -1
SFAC C  
C      1  0.5418650000000  0.5463920000000  0.4639380000000 1.0
C      1  0.5277210000000  0.5218650000000  0.4792350000000 1.0
C      1  0.5230630000000  0.5143970000000  0.5648760000000 1.0
C      1  0.4331630000000  0.5319360000000  0.4916240000000 1.0
C      1  0.4888600000000  0.4424870000000  0.4487170000000 1.0
C      1  0.4459230000000  0.5220800000000  0.5185670000000 1.0
C      1  0.4522530000000  0.5496000000000  0.4762770000000 1.0
C      1  0.5147080000000  0.4481730000000  0.4899820000000 1.0
C      1  0.5585920000000  0.4939300000000  0.5375810000000 1.0
C      1  0.4709720000000  0.5662190000000  0.4916310000000 1.0
C      1  0.5754440000000  0.5171610000000  0.4915480000000 1.0
C      1  0.4930990000000  0.4942960000000  0.5399880000000 1.0
C      1  0.5035180000000  0.5132180000000  0.5144210000000 1.0
C      1  0.4678410000000  0.5685550000000  0.5212330000000 1.0
C      1  0.4818270000000  0.4773250000000  0.5162840000000 1.0
C      1  0.5471900000000  0.5209880000000  0.5465350000000 1.0
C      1  0.5281840000000  0.4919730000000  0.5086890000000 1.0
C      1  0.5411350000000  0.4485900000000  0.4761760000000 1.0
C      1  0.4689600000000  0.5054970000000  0.5567850000000 1.0
C      1  0.5614920000000  0.4881050000000  0.5068210000000 1.0
C      1  0.5091830000000  0.4703520000000  0.5063480000000 1.0
C      1  0.4611800000000  0.5324650000000  0.5416640000000 1.0
C      1  0.5612150000000  0.5442740000000  0.4945880000000 1.0
C      1  0.4490600000000  0.4786310000000  0.5424790000000 1.0
C      1  0.4283710000000  0.4946920000000  0.4919850000000 1.0
C      1  0.4930270000000  0.4370690000000  0.5461970000000 1.0
C      1  0.4677460000000  0.5099100000000  0.4666780000000 1.0
C      1  0.5411550000000  0.4710460000000  0.5475230000000 1.0
C      1  0.5443630000000  0.5436600000000  0.5266430000000 1.0
C      1  0.5033950000000  0.5062510000000  0.4331000000000 1.0
C      1  0.4683860000000  0.4640580000000  0.4783700000000 1.0
C      1  0.5319090000000  0.4746140000000  0.4603990000000 1.0
C      1  0.5179100000000  0.5682200000000  0.5027270000000 1.0
C      1  0.5109450000000  0.5543020000000  0.4581550000000 1.0
C      1  0.4989410000000  0.4791320000000  0.4665970000000 1.0
C      1  0.5513180000000  0.4992010000000  0.4742430000000 1.0
C      1  0.5529550000000  0.5204800000000  0.4457610000000 1.0
C      1  0.4715430000000  0.4517600000000  0.5327260000000 1.0
C      1  0.4881770000000  0.5552790000000  0.5433440000000 1.0
C      1  0.4643490000000  0.5362150000000  0.4530330000000 1.0
C      1  0.4423990000000  0.4759950000000  0.4689320000000 1.0
C      1  0.5216620000000  0.5363490000000  0.5056560000000 1.0
C      1  0.5398610000000  0.4470200000000  0.5290990000000 1.0
C      1  0.4960650000000  0.5282420000000  0.5644840000000 1.0
C      1  0.5170320000000  0.5661940000000  0.5346910000000 1.0
C      1  0.4653730000000  0.4422500000000  0.5001890000000 1.0
C      1  0.5070790000000  0.4104150000000  0.5065110000000 1.0
C      1  0.4916790000000  0.4293170000000  0.4821070000000 1.0
C      1  0.5160630000000  0.4273760000000  0.5305410000000 1.0
C      1  0.4979170000000  0.5070730000000  0.4792130000000 1.0
C      1  0.4983930000000  0.5704300000000  0.4810110000000 1.0
C      1  0.4254890000000  0.5001860000000  0.5281740000000 1.0
C      1  0.4624690000000  0.4994250000000  0.5003110000000 1.0
C      1  0.5168290000000  0.4847940000000  0.5581670000000 1.0
C      1  0.5318470000000  0.4983320000000  0.4371120000000 1.0
C      1  0.4575940000000  0.4892800000000  0.4465780000000 1.0
C      1  0.4841310000000  0.4765910000000  0.4379510000000 1.0
C      1  0.4932190000000  0.5350200000000  0.4431920000000 1.0
C      1  0.4395540000000  0.4654970000000  0.5096330000000 1.0
C      1  0.5544050000000  0.4558180000000  0.5029840000000 1.0
END
