TITL C-3985254-1270-958 0.000620205226141983 125000 -310.072823050213 0 0 60 (C1) n - 1
REM
REM in /home/nfs/bkarasulu/CARBON/AIRSS/Generating-Clusters/TERSOFF/Higher-Symm/Only-C60
REM
REM
REM
REM
REM
REM ./C.cell (28575a23ae977d3b5fae324c64b13b57)
REM
REM compiler GCC version 9.2.1 20190827 (Red Hat 9.2.1-1)
REM options -cpp -mtune=generic -march=x86-64 -g -O0 -fpre-include=/usr/include/finclude/math-vector-fortran.h
REM seed 76043818 962707676 1902977514 -1150603085 -1091785189 1764573893 466891883 -1790832951 665516820 -1122186574 486655006 -1498366952 -663469225 -1966539007 -975504117 993954875 -838218727 -2091625114 534657925 -566619230 1288493323 -1401694028 -1544836708 -2021666489 1688726155 -1691227414 392033796 -1042747369 466997808 -936168843 1159375399 -462763783 1820658671
REM
CELL 1.54180   50.00000   50.00000   50.00000   90.00000   90.00000   90.00000
LATT -1
SFAC C  
C      1  0.4610650000000  0.4727350000000  0.5249690000000 1.0
C      1  0.4603980000000  0.5357480000000  0.5133280000000 1.0
C      1  0.4606200000000  0.4924120000000  0.4606530000000 1.0
C      1  0.4709400000000  0.5635390000000  0.5152220000000 1.0
C      1  0.4717260000000  0.4805560000000  0.4353350000000 1.0
C      1  0.4728260000000  0.4558750000000  0.5470390000000 1.0
C      1  0.5344220000000  0.4501240000000  0.5051760000000 1.0
C      1  0.5319000000000  0.5289510000000  0.5406960000000 1.0
C      1  0.5321770000000  0.5186390000000  0.4563080000000 1.0
C      1  0.4957620000000  0.4904270000000  0.5406330000000 1.0
C      1  0.4946650000000  0.5373190000000  0.4891920000000 1.0
C      1  0.4942660000000  0.4697130000000  0.4714530000000 1.0
C      1  0.5009420000000  0.4919590000000  0.4276620000000 1.0
C      1  0.5022550000000  0.4447500000000  0.5402010000000 1.0
C      1  0.4990110000000  0.5657000000000  0.5296730000000 1.0
C      1  0.4904720000000  0.4268100000000  0.4912320000000 1.0
C      1  0.4922320000000  0.5303060000000  0.5711080000000 1.0
C      1  0.4926870000000  0.5454850000000  0.4385640000000 1.0
C      1  0.5292690000000  0.4576520000000  0.5500460000000 1.0
C      1  0.5255360000000  0.5665730000000  0.5137790000000 1.0
C      1  0.5272160000000  0.4772180000000  0.4362300000000 1.0
C      1  0.4745010000000  0.5489660000000  0.4648010000000 1.0
C      1  0.4726510000000  0.4443750000000  0.4735280000000 1.0
C      1  0.4737760000000  0.5054950000000  0.5618910000000 1.0
C      1  0.4918890000000  0.5159390000000  0.4455700000000 1.0
C      1  0.4929990000000  0.4495610000000  0.5107750000000 1.0
C      1  0.4911110000000  0.5380440000000  0.5418190000000 1.0
C      1  0.5205440000000  0.5224150000000  0.5094260000000 1.0
C      1  0.5211700000000  0.4935380000000  0.4765000000000 1.0
C      1  0.5209940000000  0.4813260000000  0.5163790000000 1.0
C      1  0.4332900000000  0.4947280000000  0.4707690000000 1.0
C      1  0.4328740000000  0.4770960000000  0.5186030000000 1.0
C      1  0.4330020000000  0.5270780000000  0.5099930000000 1.0
C      1  0.5623190000000  0.5002410000000  0.5444320000000 1.0
C      1  0.5622520000000  0.5374830000000  0.4787440000000 1.0
C      1  0.5627560000000  0.4553240000000  0.4746470000000 1.0
C      1  0.4295690000000  0.5045540000000  0.5298110000000 1.0
C      1  0.4300570000000  0.5229810000000  0.4806590000000 1.0
C      1  0.4295820000000  0.4716620000000  0.4890610000000 1.0
C      1  0.4819140000000  0.4828680000000  0.5018110000000 1.0
C      1  0.4812610000000  0.5138020000000  0.5210310000000 1.0
C      1  0.4822350000000  0.5091790000000  0.4767610000000 1.0
C      1  0.5369730000000  0.4390880000000  0.4741960000000 1.0
C      1  0.5390550000000  0.5078830000000  0.5633260000000 1.0
C      1  0.5383740000000  0.5491140000000  0.4631610000000 1.0
C      1  0.4435770000000  0.5079310000000  0.5568780000000 1.0
C      1  0.4444840000000  0.5443600000000  0.4645920000000 1.0
C      1  0.4430650000000  0.4470960000000  0.4782630000000 1.0
C      1  0.5493510000000  0.5510460000000  0.5269540000000 1.0
C      1  0.5507790000000  0.4954050000000  0.4468560000000 1.0
C      1  0.5538470000000  0.4588560000000  0.5293220000000 1.0
C      1  0.5550000000000  0.5268240000000  0.5049690000000 1.0
C      1  0.5560710000000  0.4839040000000  0.4792420000000 1.0
C      1  0.5555190000000  0.4921450000000  0.5143210000000 1.0
C      1  0.5186750000000  0.5571150000000  0.4858570000000 1.0
C      1  0.5184940000000  0.4567130000000  0.4565100000000 1.0
C      1  0.5202260000000  0.4845120000000  0.5587700000000 1.0
C      1  0.5193580000000  0.5246140000000  0.5811360000000 1.0
C      1  0.5198560000000  0.5569010000000  0.4392800000000 1.0
C      1  0.5161600000000  0.4173460000000  0.4808550000000 1.0
END
