TITL C-3985254-1270-1332 0.000237889589738377 125000 -326.494272049913 0 0 60 (C4) n - 1
REM
REM in /home/nfs/bkarasulu/CARBON/AIRSS/Generating-Clusters/TERSOFF/Higher-Symm/Only-C60
REM
REM
REM
REM
REM
REM ./C.cell (28575a23ae977d3b5fae324c64b13b57)
REM
REM compiler GCC version 9.2.1 20190827 (Red Hat 9.2.1-1)
REM options -cpp -mtune=generic -march=x86-64 -g -O0 -fpre-include=/usr/include/finclude/math-vector-fortran.h
REM seed 364359995 -1436852473 1004291869 -1271832434 -352478126 1379953645 -1434723760 -280462789 1860968710 -844411023 737234005 -1121756630 548213490 567380409 834168279 -61046948 1892255838 907780325 -2052107939 1852412435 2003941880 544273509 -310468387 165044307 -540629909 1032163542 -1557858847 -723628524 314175659 1188141265 329385371 -1915486365 -1329464287
REM
CELL 1.54180   50.00000   50.00000   50.00000   90.00000   90.00000   90.00000
LATT -1
SFAC C  
C      1  0.5155680000000  0.5501530000000  0.5471530000000 1.0
C      1  0.5155680000000  0.4528670000000  0.5501630000000 1.0
C      1  0.5155930000000  0.4498130000000  0.4528420000000 1.0
C      1  0.5155730000000  0.5471510000000  0.4498500000000 1.0
C      1  0.5269770000000  0.5649230000000  0.5212840000000 1.0
C      1  0.5269550000000  0.4787320000000  0.5649210000000 1.0
C      1  0.5269750000000  0.4350760000000  0.4787120000000 1.0
C      1  0.5269850000000  0.5212940000000  0.4350780000000 1.0
C      1  0.4628280000000  0.5442620000000  0.4999200000000 1.0
C      1  0.4628440000000  0.5000900000000  0.5442590000000 1.0
C      1  0.4628310000000  0.4557490000000  0.5000910000000 1.0
C      1  0.4628200000000  0.4999140000000  0.4557550000000 1.0
C      1  0.4242850000000  0.4750690000000  0.4750120000000 1.0
C      1  0.4242910000000  0.5249950000000  0.4750760000000 1.0
C      1  0.4243010000000  0.5249360000000  0.5250020000000 1.0
C      1  0.4243050000000  0.4750040000000  0.5249400000000 1.0
C      1  0.4344520000000  0.5000460000000  0.4636460000000 1.0
C      1  0.4344620000000  0.5363600000000  0.5000550000000 1.0
C      1  0.4344770000000  0.4999550000000  0.5363610000000 1.0
C      1  0.4344640000000  0.4636410000000  0.4999600000000 1.0
C      1  0.5555630000000  0.5233060000000  0.5226420000000 1.0
C      1  0.5555430000000  0.4773550000000  0.5233060000000 1.0
C      1  0.5555480000000  0.4766900000000  0.4773560000000 1.0
C      1  0.5555670000000  0.5226380000000  0.4766890000000 1.0
C      1  0.5118000000000  0.5123440000000  0.4730250000000 1.0
C      1  0.5118110000000  0.5269660000000  0.5123290000000 1.0
C      1  0.5118240000000  0.4876540000000  0.5269450000000 1.0
C      1  0.5118040000000  0.4730370000000  0.4876420000000 1.0
C      1  0.5840370000000  0.5156660000000  0.4839200000000 1.0
C      1  0.5840360000000  0.5160540000000  0.5156820000000 1.0
C      1  0.5840250000000  0.4842960000000  0.5160710000000 1.0
C      1  0.5840250000000  0.4839060000000  0.4843130000000 1.0
C      1  0.4827040000000  0.4984200000000  0.5221840000000 1.0
C      1  0.4826960000000  0.4778110000000  0.4984180000000 1.0
C      1  0.4826940000000  0.5015900000000  0.4778140000000 1.0
C      1  0.4826990000000  0.5221960000000  0.5015810000000 1.0
C      1  0.5007870000000  0.4259400000000  0.5018850000000 1.0
C      1  0.5007990000000  0.4981140000000  0.4259420000000 1.0
C      1  0.5007830000000  0.5740620000000  0.4981230000000 1.0
C      1  0.5007650000000  0.5018860000000  0.5740670000000 1.0
C      1  0.4761520000000  0.4784790000000  0.5621050000000 1.0
C      1  0.4761600000000  0.4379040000000  0.4784750000000 1.0
C      1  0.4761650000000  0.5215210000000  0.4379070000000 1.0
C      1  0.4761490000000  0.5621090000000  0.5215250000000 1.0
C      1  0.4862380000000  0.4499940000000  0.4529970000000 1.0
C      1  0.4862200000000  0.5469920000000  0.4500010000000 1.0
C      1  0.4861970000000  0.5500110000000  0.5469970000000 1.0
C      1  0.4862160000000  0.4530000000000  0.5500080000000 1.0
C      1  0.5233400000000  0.4779590000000  0.4425360000000 1.0
C      1  0.5233390000000  0.5574370000000  0.4779720000000 1.0
C      1  0.5233190000000  0.5220230000000  0.5574250000000 1.0
C      1  0.5233230000000  0.4425680000000  0.5220310000000 1.0
C      1  0.5390660000000  0.5392700000000  0.4991490000000 1.0
C      1  0.5390520000000  0.5008480000000  0.5392660000000 1.0
C      1  0.5390320000000  0.4607430000000  0.5008440000000 1.0
C      1  0.5390470000000  0.4991540000000  0.4607350000000 1.0
C      1  0.4762320000000  0.4398910000000  0.5243280000000 1.0
C      1  0.4762400000000  0.4756870000000  0.4398950000000 1.0
C      1  0.4762330000000  0.5601090000000  0.4756720000000 1.0
C      1  0.4762180000000  0.5243440000000  0.5601160000000 1.0
END
