TITL C-3985259-1859-1389 5.15353466204539e-09 125000 -319.807977024207 0 0 60 (D5) n - 1
REM
REM in /home/nfs/bkarasulu/CARBON/AIRSS/Generating-Clusters/TERSOFF/Higher-Symm/Only-C60
REM
REM
REM
REM
REM
REM ./C.cell (28575a23ae977d3b5fae324c64b13b57)
REM
REM compiler GCC version 9.2.1 20190827 (Red Hat 9.2.1-1)
REM options -cpp -mtune=generic -march=x86-64 -g -O0 -fpre-include=/usr/include/finclude/math-vector-fortran.h
REM seed 1355408690 1227538729 1528867441 -1222119180 -1717109352 996104330 -784649727 370489796 1430981964 -1795636133 1320495987 990409860 88025587 308966956 -816452914 1253822914 1509264680 -1785528941 -338179974 -256182129 -1000902574 -1573112702 -295083848 -954188795 -2070342484 1804221770 1204188669 1467717087 1153835577 55096445 1824145046 -2068172741 -1300873833
REM
CELL 1.54180   50.00000   50.00000   50.00000   90.00000   90.00000   90.00000
LATT -1
SFAC C  
C      1  0.4636370000000  0.4958980000000  0.4545420000000 1.0
C      1  0.4455310000000  0.4958980000000  0.5205360000000 1.0
C      1  0.5026980000000  0.4958990000000  0.5581490000000 1.0
C      1  0.5561370000000  0.4958990000000  0.5154030000000 1.0
C      1  0.5319960000000  0.4958980000000  0.4513700000000 1.0
C      1  0.4636370000000  0.5041020000000  0.5454580000000 1.0
C      1  0.4455310000000  0.5041020000000  0.4794640000000 1.0
C      1  0.5026980000000  0.5041010000000  0.4418510000000 1.0
C      1  0.5561370000000  0.5041010000000  0.4845970000000 1.0
C      1  0.5319960000000  0.5041020000000  0.5486300000000 1.0
C      1  0.5008780000000  0.4766180000000  0.5275870000000 1.0
C      1  0.5265080000000  0.4766180000000  0.5076900000000 1.0
C      1  0.5155050000000  0.4766180000000  0.4771650000000 1.0
C      1  0.4830740000000  0.4766180000000  0.4781980000000 1.0
C      1  0.4740350000000  0.4766180000000  0.5093600000000 1.0
C      1  0.5008780000000  0.5233820000000  0.4724130000000 1.0
C      1  0.5265080000000  0.5233820000000  0.4923100000000 1.0
C      1  0.5155050000000  0.5233820000000  0.5228350000000 1.0
C      1  0.4830740000000  0.5233820000000  0.5218020000000 1.0
C      1  0.4740350000000  0.5233820000000  0.4906400000000 1.0
C      1  0.4741910000000  0.5212470000000  0.4338080000000 1.0
C      1  0.4290720000000  0.5212470000000  0.5040910000000 1.0
C      1  0.4819730000000  0.5212480000000  0.5687210000000 1.0
C      1  0.5597870000000  0.5212470000000  0.5383810000000 1.0
C      1  0.5549770000000  0.5212470000000  0.4550000000000 1.0
C      1  0.4741910000000  0.4787530000000  0.5661920000000 1.0
C      1  0.4290720000000  0.4787530000000  0.4959090000000 1.0
C      1  0.4819730000000  0.4787520000000  0.4312790000000 1.0
C      1  0.5597870000000  0.4787530000000  0.4616190000000 1.0
C      1  0.5549770000000  0.4787530000000  0.5450000000000 1.0
C      1  0.4536140000000  0.5594260000000  0.4594070000000 1.0
C      1  0.4470600000000  0.5594260000000  0.5315720000000 1.0
C      1  0.5136670000000  0.5594260000000  0.5601050000000 1.0
C      1  0.5613870000000  0.5594260000000  0.5055750000000 1.0
C      1  0.5242720000000  0.5594260000000  0.4433400000000 1.0
C      1  0.4536140000000  0.4405740000000  0.5405930000000 1.0
C      1  0.4470600000000  0.4405740000000  0.4684280000000 1.0
C      1  0.5136670000000  0.4405740000000  0.4398950000000 1.0
C      1  0.5613870000000  0.4405740000000  0.4944250000000 1.0
C      1  0.5242720000000  0.4405740000000  0.5566600000000 1.0
C      1  0.4557820000000  0.5484010000000  0.4859130000000 1.0
C      1  0.4729390000000  0.5484010000000  0.5377000000000 1.0
C      1  0.5274930000000  0.5484010000000  0.5373870000000 1.0
C      1  0.5440530000000  0.5484010000000  0.4854060000000 1.0
C      1  0.4997330000000  0.5484010000000  0.4535940000000 1.0
C      1  0.4557820000000  0.4515990000000  0.5140870000000 1.0
C      1  0.4729390000000  0.4515990000000  0.4623000000000 1.0
C      1  0.5274930000000  0.4515990000000  0.4626130000000 1.0
C      1  0.5440530000000  0.4515990000000  0.5145940000000 1.0
C      1  0.4997330000000  0.4515990000000  0.5464060000000 1.0
C      1  0.5568620000000  0.5508840000000  0.5328840000000 1.0
C      1  0.5488460000000  0.5508830000000  0.4560820000000 1.0
C      1  0.4733260000000  0.5508830000000  0.4399730000000 1.0
C      1  0.4346680000000  0.5508840000000  0.5068190000000 1.0
C      1  0.4862970000000  0.5508840000000  0.5642410000000 1.0
C      1  0.5568620000000  0.4491160000000  0.4671160000000 1.0
C      1  0.5488460000000  0.4491170000000  0.5439180000000 1.0
C      1  0.4733260000000  0.4491170000000  0.5600270000000 1.0
C      1  0.4346680000000  0.4491160000000  0.4931810000000 1.0
C      1  0.4862970000000  0.4491160000000  0.4357590000000 1.0
END
