TITL C-3985251-913-542 -0.000541126917925882 125000 -331.302507037783 0 0 60 (C1) n - 1
REM
REM in /home/nfs/bkarasulu/CARBON/AIRSS/Generating-Clusters/TERSOFF/Higher-Symm/Only-C60
REM
REM
REM
REM
REM
REM ./C.cell (28575a23ae977d3b5fae324c64b13b57)
REM
REM compiler GCC version 9.2.1 20190827 (Red Hat 9.2.1-1)
REM options -cpp -mtune=generic -march=x86-64 -g -O0 -fpre-include=/usr/include/finclude/math-vector-fortran.h
REM seed 1298315493 1337089865 1906536958 -629293611 -1678151660 1812872852 1404809606 -1786946399 -211955503 -266228793 877123016 -2034920113 1011716522 -715776221 1632476876 1210319022 -715134272 -1337192866 -1917028475 -339613536 -14134911 284402827 856612295 -1602473255 1718762777 -2049423506 106143240 -42644971 -1109950458 -850395874 -1107094624 -1607416425 832293760
REM
CELL 1.54180   50.00000   50.00000   50.00000   90.00000   90.00000   90.00000
LATT -1
SFAC C  
C      1  0.4635310000000  0.4683250000000  0.5442210000000 1.0
C      1  0.4799460000000  0.4688100000000  0.4456710000000 1.0
C      1  0.5534770000000  0.4670810000000  0.5090740000000 1.0
C      1  0.5368890000000  0.4426160000000  0.5187770000000 1.0
C      1  0.4643900000000  0.4443990000000  0.5229920000000 1.0
C      1  0.4968620000000  0.4438550000000  0.4504480000000 1.0
C      1  0.5791550000000  0.4802210000000  0.4874510000000 1.0
C      1  0.4708860000000  0.4815290000000  0.5768590000000 1.0
C      1  0.4489020000000  0.4806520000000  0.4371630000000 1.0
C      1  0.4287140000000  0.4740520000000  0.4578490000000 1.0
C      1  0.5730080000000  0.4746550000000  0.4589690000000 1.0
C      1  0.4986940000000  0.4758670000000  0.5854720000000 1.0
C      1  0.4607030000000  0.4983940000000  0.4829340000000 1.0
C      1  0.5345760000000  0.4988930000000  0.4742700000000 1.0
C      1  0.5046750000000  0.4987750000000  0.5430860000000 1.0
C      1  0.5728120000000  0.5168630000000  0.5193250000000 1.0
C      1  0.4467110000000  0.5177270000000  0.5537770000000 1.0
C      1  0.4800590000000  0.5176520000000  0.4269870000000 1.0
C      1  0.4484390000000  0.5183870000000  0.4644400000000 1.0
C      1  0.5567140000000  0.5186050000000  0.4734090000000 1.0
C      1  0.4946290000000  0.5190360000000  0.5622880000000 1.0
C      1  0.5189090000000  0.4775110000000  0.5625130000000 1.0
C      1  0.4388760000000  0.4756190000000  0.4868600000000 1.0
C      1  0.5432100000000  0.4770140000000  0.4529340000000 1.0
C      1  0.5262610000000  0.5005800000000  0.4332770000000 1.0
C      1  0.5445290000000  0.5004700000000  0.5561770000000 1.0
C      1  0.4294910000000  0.5000280000000  0.5108440000000 1.0
C      1  0.5364460000000  0.5353210000000  0.5511030000000 1.0
C      1  0.4377170000000  0.5348770000000  0.5059380000000 1.0
C      1  0.5263950000000  0.5354190000000  0.4427960000000 1.0
C      1  0.5792350000000  0.5106200000000  0.4914720000000 1.0
C      1  0.4678370000000  0.5116980000000  0.5732000000000 1.0
C      1  0.4526380000000  0.5110330000000  0.4357170000000 1.0
C      1  0.5144860000000  0.5364400000000  0.5133680000000 1.0
C      1  0.4814230000000  0.5361660000000  0.5059930000000 1.0
C      1  0.5043260000000  0.5364970000000  0.4811210000000 1.0
C      1  0.5346270000000  0.4914480000000  0.5023170000000 1.0
C      1  0.4802130000000  0.4913340000000  0.5296330000000 1.0
C      1  0.4846170000000  0.4922230000000  0.4674810000000 1.0
C      1  0.5362280000000  0.4570860000000  0.4782570000000 1.0
C      1  0.4980350000000  0.4575170000000  0.5468880000000 1.0
C      1  0.4655780000000  0.4561920000000  0.4772990000000 1.0
C      1  0.5551840000000  0.5409600000000  0.5242350000000 1.0
C      1  0.4513910000000  0.5412940000000  0.5355570000000 1.0
C      1  0.4934160000000  0.5412030000000  0.4402500000000 1.0
C      1  0.5474830000000  0.5464940000000  0.4692000000000 1.0
C      1  0.5031140000000  0.5466880000000  0.5560310000000 1.0
C      1  0.4497050000000  0.5462190000000  0.4746680000000 1.0
C      1  0.4971800000000  0.4931990000000  0.4274370000000 1.0
C      1  0.5629210000000  0.4921800000000  0.5332930000000 1.0
C      1  0.4391720000000  0.4930400000000  0.5388190000000 1.0
C      1  0.4704910000000  0.5089420000000  0.5084300000000 1.0
C      1  0.5076940000000  0.5096150000000  0.4699200000000 1.0
C      1  0.5220960000000  0.5090870000000  0.5217760000000 1.0
C      1  0.4753960000000  0.5578020000000  0.4594880000000 1.0
C      1  0.5476100000000  0.5577290000000  0.4991130000000 1.0
C      1  0.4770140000000  0.5580290000000  0.5414180000000 1.0
C      1  0.5100660000000  0.4414410000000  0.4763580000000 1.0
C      1  0.5080210000000  0.4434630000000  0.5235510000000 1.0
C      1  0.4871930000000  0.4411310000000  0.4998100000000 1.0
END
