TITL C-3985250-725-374 -2.03742350160938e-06 125000 -319.080020520468 0 0 60 (C1) n - 1
REM
REM in /home/nfs/bkarasulu/CARBON/AIRSS/Generating-Clusters/TERSOFF/Higher-Symm/Only-C60
REM
REM
REM
REM
REM
REM ./C.cell (28575a23ae977d3b5fae324c64b13b57)
REM
REM compiler GCC version 9.2.1 20190827 (Red Hat 9.2.1-1)
REM options -cpp -mtune=generic -march=x86-64 -g -O0 -fpre-include=/usr/include/finclude/math-vector-fortran.h
REM seed -714831167 -1007545948 1176003290 1747137915 239872053 2028739335 -1430457179 1085545397 700628977 743032777 1328585490 -417413968 -716305312 268339921 501986448 149791362 1698140773 2121166077 -1375016570 1625132484 -104849206 -723183608 -834397576 -2119040533 1165044635 -263567048 -418696193 -912272841 1476773060 -18877701 2091299374 305713727 -123641544
REM
CELL 1.54180   50.00000   50.00000   50.00000   90.00000   90.00000   90.00000
LATT -1
SFAC C  
C      1  0.5423530000000  0.5265910000000  0.4735420000000 1.0
C      1  0.5252750000000  0.5334930000000  0.4970750000000 1.0
C      1  0.4731720000000  0.4582930000000  0.4417260000000 1.0
C      1  0.5606240000000  0.4851720000000  0.4714660000000 1.0
C      1  0.4877170000000  0.5405920000000  0.5441970000000 1.0
C      1  0.4417380000000  0.5216620000000  0.5196380000000 1.0
C      1  0.5233680000000  0.4619960000000  0.4433620000000 1.0
C      1  0.5368620000000  0.4888140000000  0.4479710000000 1.0
C      1  0.4727440000000  0.5760210000000  0.4682320000000 1.0
C      1  0.5152780000000  0.5028840000000  0.4700460000000 1.0
C      1  0.4455040000000  0.5482300000000  0.5039330000000 1.0
C      1  0.4579560000000  0.5287210000000  0.4633140000000 1.0
C      1  0.4747560000000  0.5300160000000  0.4393680000000 1.0
C      1  0.4490500000000  0.5581440000000  0.4735180000000 1.0
C      1  0.4603910000000  0.5211310000000  0.5436820000000 1.0
C      1  0.4882840000000  0.4955470000000  0.5781500000000 1.0
C      1  0.4861100000000  0.4097990000000  0.4949690000000 1.0
C      1  0.5686610000000  0.5134130000000  0.5157350000000 1.0
C      1  0.5294490000000  0.5728110000000  0.4829780000000 1.0
C      1  0.4994590000000  0.5596920000000  0.5223200000000 1.0
C      1  0.5006810000000  0.4435450000000  0.5599280000000 1.0
C      1  0.4602660000000  0.4842380000000  0.4413770000000 1.0
C      1  0.5481040000000  0.4690980000000  0.4961550000000 1.0
C      1  0.5002340000000  0.5418200000000  0.5708430000000 1.0
C      1  0.4732490000000  0.5051770000000  0.4235180000000 1.0
C      1  0.4384050000000  0.4709170000000  0.5186050000000 1.0
C      1  0.4979570000000  0.4538700000000  0.4561650000000 1.0
C      1  0.5355360000000  0.5089250000000  0.5603010000000 1.0
C      1  0.5007940000000  0.4313210000000  0.5144500000000 1.0
C      1  0.5284010000000  0.4480980000000  0.5503250000000 1.0
C      1  0.5269290000000  0.5151500000000  0.5196890000000 1.0
C      1  0.5462250000000  0.5551010000000  0.4655140000000 1.0
C      1  0.4652270000000  0.4955760000000  0.5585400000000 1.0
C      1  0.5010250000000  0.5639180000000  0.4678260000000 1.0
C      1  0.5354470000000  0.4788520000000  0.5469620000000 1.0
C      1  0.5329400000000  0.5603480000000  0.5167680000000 1.0
C      1  0.5111320000000  0.5154960000000  0.5771100000000 1.0
C      1  0.5298270000000  0.4322000000000  0.5242940000000 1.0
C      1  0.5497430000000  0.4411860000000  0.5048840000000 1.0
C      1  0.5669170000000  0.5125140000000  0.4839530000000 1.0
C      1  0.4684210000000  0.4358120000000  0.4881410000000 1.0
C      1  0.5230900000000  0.5143560000000  0.4304610000000 1.0
C      1  0.5476330000000  0.5336610000000  0.5368170000000 1.0
C      1  0.4789420000000  0.5035880000000  0.5103410000000 1.0
C      1  0.5481390000000  0.4882040000000  0.5193640000000 1.0
C      1  0.4831300000000  0.4908260000000  0.4819270000000 1.0
C      1  0.4951620000000  0.4569870000000  0.4886670000000 1.0
C      1  0.4553300000000  0.4703530000000  0.5462940000000 1.0
C      1  0.4733110000000  0.5302880000000  0.4934080000000 1.0
C      1  0.4875060000000  0.4707210000000  0.5193680000000 1.0
C      1  0.4384990000000  0.4960410000000  0.5022650000000 1.0
C      1  0.4546360000000  0.4441420000000  0.5135010000000 1.0
C      1  0.4997210000000  0.5133920000000  0.5312260000000 1.0
C      1  0.4971990000000  0.5469640000000  0.4933470000000 1.0
C      1  0.5029060000000  0.5410800000000  0.4435520000000 1.0
C      1  0.4533990000000  0.4971580000000  0.4707060000000 1.0
C      1  0.5053960000000  0.4854660000000  0.5411590000000 1.0
C      1  0.5216700000000  0.4746040000000  0.4844020000000 1.0
C      1  0.4772070000000  0.4443770000000  0.5389350000000 1.0
C      1  0.5009160000000  0.5016040000000  0.4136900000000 1.0
END
