TITL C-3985248-2097-75 0.00313872056043971 125000 -323.514197706006 0 0 60 (C1) n - 1
REM
REM in /home/nfs/bkarasulu/CARBON/AIRSS/Generating-Clusters/TERSOFF/Higher-Symm/Only-C60
REM
REM
REM
REM
REM
REM ./C.cell (28575a23ae977d3b5fae324c64b13b57)
REM
REM compiler GCC version 9.2.1 20190827 (Red Hat 9.2.1-1)
REM options -cpp -mtune=generic -march=x86-64 -g -O0 -fpre-include=/usr/include/finclude/math-vector-fortran.h
REM seed 2118010635 -1348641330 -1812598813 -1895194260 1354101860 1665946337 1252065604 925791416 661034419 639297639 1275389158 -52655362 820701630 1268323628 358485954 -1145904770 -1331605313 -1764688806 -56422214 -1205684475 -1200806968 -1293038390 749869857 -2059655928 1312190700 1800141834 -1275486260 1546025531 -1697690975 360953759 -1614079622 -94550746 -2133252701
REM
CELL 1.54180   50.00000   50.00000   50.00000   90.00000   90.00000   90.00000
LATT -1
SFAC C  
C      1  0.5051520000000  0.5417320000000  0.4448950000000 1.0
C      1  0.4323710000000  0.5220230000000  0.5493160000000 1.0
C      1  0.5463600000000  0.5407150000000  0.5170490000000 1.0
C      1  0.5272530000000  0.4985320000000  0.4673990000000 1.0
C      1  0.5700550000000  0.5029190000000  0.4656990000000 1.0
C      1  0.4748320000000  0.5158880000000  0.5245800000000 1.0
C      1  0.5857920000000  0.5091160000000  0.5050380000000 1.0
C      1  0.5454470000000  0.4536520000000  0.4687000000000 1.0
C      1  0.4938620000000  0.4603730000000  0.4789770000000 1.0
C      1  0.4973230000000  0.5612250000000  0.5197370000000 1.0
C      1  0.4919930000000  0.4618320000000  0.5500720000000 1.0
C      1  0.5255700000000  0.5616120000000  0.5093980000000 1.0
C      1  0.5153180000000  0.5298060000000  0.5578510000000 1.0
C      1  0.5395000000000  0.5216490000000  0.5404980000000 1.0
C      1  0.5386300000000  0.4967720000000  0.4957600000000 1.0
C      1  0.4772990000000  0.4448430000000  0.4567170000000 1.0
C      1  0.5486930000000  0.4805320000000  0.4545810000000 1.0
C      1  0.5171750000000  0.4721920000000  0.5286100000000 1.0
C      1  0.5189850000000  0.4215710000000  0.4997380000000 1.0
C      1  0.4929580000000  0.5470830000000  0.5459200000000 1.0
C      1  0.4470690000000  0.5389890000000  0.4986220000000 1.0
C      1  0.4471800000000  0.4735680000000  0.5360710000000 1.0
C      1  0.5000100000000  0.4854040000000  0.4620770000000 1.0
C      1  0.5031070000000  0.5078260000000  0.5741520000000 1.0
C      1  0.5240530000000  0.5029190000000  0.5213090000000 1.0
C      1  0.4421670000000  0.5238360000000  0.4713600000000 1.0
C      1  0.5653580000000  0.5285390000000  0.4906980000000 1.0
C      1  0.4526180000000  0.5521450000000  0.5283670000000 1.0
C      1  0.5622900000000  0.5109180000000  0.5554460000000 1.0
C      1  0.4944830000000  0.4755520000000  0.5083930000000 1.0
C      1  0.5199800000000  0.4439290000000  0.4812040000000 1.0
C      1  0.5022600000000  0.5286740000000  0.4855980000000 1.0
C      1  0.5026230000000  0.4824280000000  0.4309840000000 1.0
C      1  0.5111900000000  0.4794980000000  0.5695160000000 1.0
C      1  0.4913720000000  0.5635640000000  0.4650650000000 1.0
C      1  0.4852710000000  0.5116680000000  0.4664250000000 1.0
C      1  0.5293180000000  0.5258380000000  0.4535600000000 1.0
C      1  0.4780130000000  0.4405000000000  0.5245880000000 1.0
C      1  0.4602430000000  0.4575660000000  0.4372540000000 1.0
C      1  0.4618760000000  0.4530400000000  0.4949060000000 1.0
C      1  0.4705270000000  0.5185860000000  0.4408110000000 1.0
C      1  0.4736350000000  0.5067130000000  0.5690370000000 1.0
C      1  0.4970220000000  0.4184620000000  0.5184130000000 1.0
C      1  0.4834040000000  0.5023690000000  0.4193410000000 1.0
C      1  0.5217040000000  0.5573920000000  0.4801470000000 1.0
C      1  0.4667540000000  0.4786260000000  0.5596890000000 1.0
C      1  0.4700800000000  0.4882430000000  0.5189810000000 1.0
C      1  0.4760500000000  0.5601070000000  0.4945370000000 1.0
C      1  0.4282460000000  0.4872600000000  0.5155340000000 1.0
C      1  0.5395840000000  0.4539880000000  0.5242230000000 1.0
C      1  0.5325790000000  0.4815960000000  0.4277290000000 1.0
C      1  0.5011150000000  0.5200030000000  0.5127620000000 1.0
C      1  0.5478620000000  0.5437550000000  0.4687220000000 1.0
C      1  0.4284110000000  0.5168280000000  0.5201440000000 1.0
C      1  0.4424310000000  0.4942150000000  0.4678340000000 1.0
C      1  0.4463160000000  0.4823810000000  0.4417060000000 1.0
C      1  0.4632120000000  0.5321350000000  0.5519440000000 1.0
C      1  0.5784450000000  0.4881120000000  0.5240820000000 1.0
C      1  0.5666320000000  0.4624130000000  0.5170770000000 1.0
C      1  0.4409410000000  0.4763470000000  0.4911550000000 1.0
END
