TITL C-3985245-9316-1059 -0.00233975009988682 125000 -282.610175701077 0 0 60 (D2d) n - 1
REM
REM in /home/nfs/bkarasulu/CARBON/AIRSS/Generating-Clusters/TERSOFF/Higher-Symm/Only-C60
REM
REM
REM
REM
REM
REM ./C.cell (28575a23ae977d3b5fae324c64b13b57)
REM
REM compiler GCC version 9.2.1 20190827 (Red Hat 9.2.1-1)
REM options -cpp -mtune=generic -march=x86-64 -g -O0 -fpre-include=/usr/include/finclude/math-vector-fortran.h
REM seed -1936406175 -1944089902 -14514301 -282034097 -319231218 1391489841 -48876448 -1395926935 -389386906 -1576711344 -2083821541 -794919721 1257323399 639127675 -89062270 1975851048 -2063997774 806398963 1950959127 63433634 919606338 2047923165 6358616 256651893 -1998766012 1291431339 -1731802572 -1463690371 13341701 291814938 -1887157750 -1711098297 2087708106
REM
CELL 1.54180   50.00000   50.00000   50.00000   90.00000   90.00000   90.00000
LATT -1
SFAC C  
C      1  0.5548980000000  0.5175950000000  0.5580140000000 1.0
C      1  0.5537370000000  0.4540690000000  0.5471350000000 1.0
C      1  0.5541920000000  0.4434500000000  0.4844230000000 1.0
C      1  0.5548980000000  0.4824050000000  0.4419860000000 1.0
C      1  0.5537370000000  0.5459310000000  0.4528650000000 1.0
C      1  0.5541920000000  0.5565500000000  0.5155770000000 1.0
C      1  0.5548980000000  0.5175950000000  0.4419860000000 1.0
C      1  0.5537360000000  0.4540690000000  0.4528650000000 1.0
C      1  0.5541920000000  0.4434500000000  0.5155770000000 1.0
C      1  0.5548980000000  0.4824050000000  0.5580140000000 1.0
C      1  0.5537360000000  0.5459310000000  0.5471350000000 1.0
C      1  0.5541920000000  0.5565500000000  0.4844230000000 1.0
C      1  0.4714270000000  0.5573380000000  0.5635260000000 1.0
C      1  0.4720950000000  0.4737260000000  0.5715620000000 1.0
C      1  0.4715410000000  0.4240080000000  0.5154150000000 1.0
C      1  0.4714270000000  0.4426630000000  0.4364740000000 1.0
C      1  0.4720950000000  0.5262740000000  0.4284380000000 1.0
C      1  0.4715410000000  0.5759920000000  0.4845850000000 1.0
C      1  0.4714280000000  0.5573390000000  0.4364740000000 1.0
C      1  0.4721080000000  0.4737360000000  0.4284240000000 1.0
C      1  0.4715410000000  0.4240080000000  0.4845850000000 1.0
C      1  0.4714280000000  0.4426610000000  0.5635260000000 1.0
C      1  0.4720960000000  0.5262730000000  0.5715640000000 1.0
C      1  0.4715410000000  0.5759920000000  0.5154150000000 1.0
C      1  0.4451230000000  0.5580710000000  0.4824290000000 1.0
C      1  0.4462540000000  0.5471530000000  0.5459100000000 1.0
C      1  0.4458040000000  0.4844080000000  0.5564770000000 1.0
C      1  0.4451230000000  0.4419290000000  0.5175710000000 1.0
C      1  0.4462420000000  0.4528380000000  0.4541010000000 1.0
C      1  0.4458040000000  0.5155920000000  0.4435230000000 1.0
C      1  0.4451230000000  0.5580720000000  0.5175690000000 1.0
C      1  0.4462560000000  0.5471520000000  0.4540900000000 1.0
C      1  0.4458060000000  0.4844070000000  0.4435220000000 1.0
C      1  0.4451230000000  0.4419280000000  0.4824320000000 1.0
C      1  0.4462560000000  0.4528480000000  0.5459100000000 1.0
C      1  0.4458050000000  0.5155920000000  0.5564780000000 1.0
C      1  0.4995730000000  0.4394810000000  0.4824910000000 1.0
C      1  0.5004350000000  0.4824920000000  0.4395600000000 1.0
C      1  0.4999970000000  0.5495580000000  0.4504600000000 1.0
C      1  0.4995730000000  0.5605190000000  0.5175090000000 1.0
C      1  0.5004350000000  0.5175080000000  0.5604400000000 1.0
C      1  0.4999970000000  0.4504420000000  0.5495400000000 1.0
C      1  0.4995730000000  0.4394810000000  0.5175090000000 1.0
C      1  0.5004340000000  0.4824920000000  0.5604410000000 1.0
C      1  0.4999970000000  0.5495580000000  0.5495400000000 1.0
C      1  0.4995730000000  0.5605190000000  0.4824910000000 1.0
C      1  0.5004340000000  0.5175080000000  0.4395600000000 1.0
C      1  0.4999970000000  0.4504420000000  0.4504600000000 1.0
C      1  0.5284550000000  0.5154190000000  0.5759180000000 1.0
C      1  0.5285570000000  0.4364680000000  0.5573360000000 1.0
C      1  0.5279110000000  0.4283720000000  0.4737120000000 1.0
C      1  0.5284550000000  0.4845810000000  0.4240820000000 1.0
C      1  0.5285570000000  0.5635320000000  0.4426640000000 1.0
C      1  0.5279110000000  0.5716280000000  0.5262880000000 1.0
C      1  0.5284550000000  0.5154190000000  0.4240820000000 1.0
C      1  0.5285570000000  0.4364680000000  0.4426640000000 1.0
C      1  0.5279110000000  0.4283720000000  0.5262880000000 1.0
C      1  0.5284550000000  0.4845810000000  0.5759180000000 1.0
C      1  0.5285570000000  0.5635320000000  0.5573360000000 1.0
C      1  0.5279110000000  0.5716280000000  0.4737120000000 1.0
END
