TITL C-3985259-1859-988 0.00117856232276771 125000 -323.366740485426 0 0 60 (C1) n - 1
REM
REM in /home/nfs/bkarasulu/CARBON/AIRSS/Generating-Clusters/TERSOFF/Higher-Symm/Only-C60
REM
REM
REM
REM
REM
REM ./C.cell (28575a23ae977d3b5fae324c64b13b57)
REM
REM compiler GCC version 9.2.1 20190827 (Red Hat 9.2.1-1)
REM options -cpp -mtune=generic -march=x86-64 -g -O0 -fpre-include=/usr/include/finclude/math-vector-fortran.h
REM seed 986777741 -128266093 -575810051 718273520 1760450437 609156598 674947277 -762748574 -1019927865 -1102741265 1901488489 -1411283459 -1042174187 -2008686247 933891259 -1706937359 -941374372 893293719 -991276377 -1491670739 -1997969782 625016285 -113016555 91898062 1021316145 -597209764 1979192166 1663328342 1643226579 1429169836 -1683289924 -1233062711 1260054824
REM
CELL 1.54180   50.00000   50.00000   50.00000   90.00000   90.00000   90.00000
LATT -1
SFAC C  
C      1  0.4496950000000  0.5188210000000  0.4625680000000 1.0
C      1  0.5099930000000  0.4468340000000  0.4638480000000 1.0
C      1  0.5417360000000  0.5355910000000  0.4641760000000 1.0
C      1  0.5508680000000  0.5186940000000  0.5408200000000 1.0
C      1  0.4909200000000  0.4473160000000  0.5411930000000 1.0
C      1  0.4593040000000  0.5362470000000  0.5448210000000 1.0
C      1  0.4353590000000  0.4764230000000  0.4803450000000 1.0
C      1  0.5538200000000  0.4572060000000  0.4806400000000 1.0
C      1  0.5104030000000  0.5692310000000  0.4794020000000 1.0
C      1  0.5654320000000  0.4760230000000  0.5251580000000 1.0
C      1  0.4464390000000  0.4567910000000  0.5251970000000 1.0
C      1  0.4917750000000  0.5705430000000  0.5297800000000 1.0
C      1  0.5138670000000  0.5297980000000  0.4492630000000 1.0
C      1  0.4680550000000  0.4960290000000  0.4492130000000 1.0
C      1  0.5200850000000  0.4743410000000  0.4498740000000 1.0
C      1  0.4884760000000  0.5303260000000  0.5569120000000 1.0
C      1  0.5323530000000  0.4965340000000  0.5547200000000 1.0
C      1  0.4810200000000  0.4746860000000  0.5553160000000 1.0
C      1  0.4574700000000  0.5482950000000  0.4639030000000 1.0
C      1  0.4808320000000  0.4389120000000  0.4681230000000 1.0
C      1  0.5633880000000  0.5146510000000  0.4687270000000 1.0
C      1  0.5424890000000  0.5469760000000  0.5365250000000 1.0
C      1  0.5198590000000  0.4397410000000  0.5366820000000 1.0
C      1  0.4382210000000  0.5149450000000  0.5382050000000 1.0
C      1  0.5283560000000  0.4995240000000  0.4857080000000 1.0
C      1  0.4870650000000  0.5263030000000  0.4834890000000 1.0
C      1  0.4839720000000  0.4768530000000  0.4853360000000 1.0
C      1  0.4711890000000  0.4970240000000  0.5198200000000 1.0
C      1  0.5083370000000  0.5298350000000  0.5194030000000 1.0
C      1  0.5174680000000  0.4779610000000  0.5199070000000 1.0
C      1  0.5703380000000  0.5056260000000  0.5221100000000 1.0
C      1  0.4614830000000  0.5610180000000  0.5279330000000 1.0
C      1  0.4696630000000  0.4378280000000  0.5220350000000 1.0
C      1  0.4307760000000  0.5060920000000  0.4829730000000 1.0
C      1  0.5383760000000  0.5590850000000  0.4831800000000 1.0
C      1  0.5312140000000  0.4378200000000  0.4832850000000 1.0
C      1  0.5789070000000  0.5172100000000  0.4951610000000 1.0
C      1  0.4578240000000  0.5602900000000  0.4945400000000 1.0
C      1  0.4752270000000  0.4244320000000  0.4949120000000 1.0
C      1  0.4232820000000  0.5184060000000  0.5106900000000 1.0
C      1  0.5520980000000  0.5606780000000  0.5106080000000 1.0
C      1  0.5254930000000  0.4247810000000  0.5103370000000 1.0
C      1  0.5393790000000  0.4663240000000  0.5440310000000 1.0
C      1  0.5110660000000  0.5508770000000  0.5452260000000 1.0
C      1  0.4512590000000  0.4840840000000  0.5445800000000 1.0
C      1  0.4612410000000  0.4660310000000  0.4610470000000 1.0
C      1  0.4913340000000  0.5513310000000  0.4579680000000 1.0
C      1  0.5495570000000  0.4842820000000  0.4614050000000 1.0
C      1  0.4653630000000  0.5197560000000  0.5025010000000 1.0
C      1  0.5319420000000  0.5227230000000  0.5031180000000 1.0
C      1  0.5010620000000  0.4607010000000  0.5027000000000 1.0
C      1  0.5450070000000  0.4764080000000  0.5023860000000 1.0
C      1  0.4561580000000  0.4744430000000  0.5022360000000 1.0
C      1  0.4925630000000  0.5558330000000  0.5002170000000 1.0
C      1  0.5000990000000  0.5004590000000  0.4759580000000 1.0
C      1  0.4997000000000  0.5012930000000  0.5287550000000 1.0
C      1  0.5006690000000  0.5003910000000  0.5934390000000 1.0
C      1  0.5003580000000  0.5005550000000  0.4116040000000 1.0
C      1  0.5006930000000  0.4997990000000  0.4426070000000 1.0
C      1  0.5005670000000  0.5005550000000  0.5624000000000 1.0
END
