TITL C-3985254-1270-171 -1.35894845477911e-07 125000 -334.997803471488 0 0 60 (Td) n - 1
REM
REM in /home/nfs/bkarasulu/CARBON/AIRSS/Generating-Clusters/TERSOFF/Higher-Symm/Only-C60
REM
REM
REM
REM
REM
REM ./C.cell (28575a23ae977d3b5fae324c64b13b57)
REM
REM compiler GCC version 9.2.1 20190827 (Red Hat 9.2.1-1)
REM options -cpp -mtune=generic -march=x86-64 -g -O0 -fpre-include=/usr/include/finclude/math-vector-fortran.h
REM seed 339954863 1033404751 1925582084 -1385933968 1775918709 -1034025141 -1728549496 -1338677043 -2107261613 53311947 -464959498 -459625907 1865513507 -1788203331 -760106345 -511918705 1231622394 436820001 -904587072 1348616144 -465511090 -1675422497 -1547886113 -1417307578 -439225668 672928956 1899445389 823167233 1886303182 -601717730 405321201 685020143 -334228147
REM
CELL 1.54180   50.00000   50.00000   50.00000   90.00000   90.00000   90.00000
LATT -1
SFAC C  
C      1  0.5114920000000  0.4273490000000  0.4474010000000 1.0
C      1  0.4273490000000  0.4474010000000  0.5114920000000 1.0
C      1  0.4474010000000  0.5114920000000  0.4273490000000 1.0
C      1  0.5114920000000  0.5726510000000  0.5525990000000 1.0
C      1  0.4885080000000  0.4273490000000  0.5525990000000 1.0
C      1  0.4885080000000  0.5726510000000  0.4474010000000 1.0
C      1  0.4273490000000  0.5525990000000  0.4885080000000 1.0
C      1  0.5726510000000  0.4474010000000  0.4885080000000 1.0
C      1  0.5726510000000  0.5525990000000  0.5114920000000 1.0
C      1  0.4474010000000  0.4885080000000  0.5726510000000 1.0
C      1  0.5525990000000  0.5114920000000  0.5726510000000 1.0
C      1  0.5525990000000  0.4885080000000  0.4273490000000 1.0
C      1  0.5114920000000  0.4474010000000  0.4273490000000 1.0
C      1  0.4273490000000  0.5114920000000  0.4474010000000 1.0
C      1  0.4474010000000  0.4273490000000  0.5114920000000 1.0
C      1  0.5114920000000  0.5525990000000  0.5726510000000 1.0
C      1  0.4885080000000  0.5525990000000  0.4273490000000 1.0
C      1  0.4885080000000  0.4474010000000  0.5726510000000 1.0
C      1  0.4273490000000  0.4885080000000  0.5525990000000 1.0
C      1  0.5726510000000  0.4885080000000  0.4474010000000 1.0
C      1  0.5726510000000  0.5114920000000  0.5525990000000 1.0
C      1  0.4474010000000  0.5726510000000  0.4885080000000 1.0
C      1  0.5525990000000  0.5726510000000  0.5114920000000 1.0
C      1  0.5525990000000  0.4273490000000  0.4885080000000 1.0
C      1  0.5049940000000  0.4353820000000  0.4743170000000 1.0
C      1  0.4353820000000  0.4743170000000  0.5049940000000 1.0
C      1  0.4743170000000  0.5049940000000  0.4353820000000 1.0
C      1  0.5049940000000  0.5646180000000  0.5256830000000 1.0
C      1  0.4950060000000  0.4353820000000  0.5256830000000 1.0
C      1  0.4950060000000  0.5646180000000  0.4743170000000 1.0
C      1  0.4353820000000  0.5256830000000  0.4950060000000 1.0
C      1  0.5646180000000  0.4743170000000  0.4950060000000 1.0
C      1  0.5646180000000  0.5256830000000  0.5049940000000 1.0
C      1  0.4743170000000  0.4950060000000  0.5646180000000 1.0
C      1  0.5256830000000  0.5049940000000  0.5646180000000 1.0
C      1  0.5256830000000  0.4950060000000  0.4353820000000 1.0
C      1  0.5049940000000  0.4743170000000  0.4353820000000 1.0
C      1  0.4353820000000  0.5049940000000  0.4743170000000 1.0
C      1  0.4743170000000  0.4353820000000  0.5049940000000 1.0
C      1  0.5049940000000  0.5256830000000  0.5646180000000 1.0
C      1  0.4950060000000  0.5256830000000  0.4353820000000 1.0
C      1  0.4950060000000  0.4743170000000  0.5646180000000 1.0
C      1  0.4353820000000  0.4950060000000  0.5256830000000 1.0
C      1  0.5646180000000  0.4950060000000  0.4743170000000 1.0
C      1  0.5646180000000  0.5049940000000  0.5256830000000 1.0
C      1  0.4743170000000  0.5646180000000  0.4950060000000 1.0
C      1  0.5256830000000  0.5646180000000  0.5049940000000 1.0
C      1  0.5256830000000  0.4353820000000  0.4950060000000 1.0
C      1  0.5211560000000  0.4788440000000  0.5473990000000 1.0
C      1  0.5211560000000  0.5211560000000  0.4526010000000 1.0
C      1  0.4788440000000  0.5211560000000  0.5473990000000 1.0
C      1  0.4788440000000  0.5473990000000  0.5211560000000 1.0
C      1  0.5473990000000  0.5211560000000  0.4788440000000 1.0
C      1  0.4788440000000  0.4526010000000  0.4788440000000 1.0
C      1  0.5211560000000  0.5473990000000  0.4788440000000 1.0
C      1  0.5211560000000  0.4526010000000  0.5211560000000 1.0
C      1  0.5473990000000  0.4788440000000  0.5211560000000 1.0
C      1  0.4526010000000  0.5211560000000  0.5211560000000 1.0
C      1  0.4526010000000  0.4788440000000  0.4788440000000 1.0
C      1  0.4788440000000  0.4788440000000  0.4526010000000 1.0
END
