TITL C-3985259-1859-614 2.7414851494908e-07 125000 -366.304537949734 0 0 60 (S10) n - 1
REM
REM in /home/nfs/bkarasulu/CARBON/AIRSS/Generating-Clusters/TERSOFF/Higher-Symm/Only-C60
REM
REM
REM
REM
REM
REM ./C.cell (28575a23ae977d3b5fae324c64b13b57)
REM
REM compiler GCC version 9.2.1 20190827 (Red Hat 9.2.1-1)
REM options -cpp -mtune=generic -march=x86-64 -g -O0 -fpre-include=/usr/include/finclude/math-vector-fortran.h
REM seed 1889621135 56642584 -873694985 1663400841 -58550763 57467073 -158778788 1268050370 -1083075341 -1807020642 646807639 -268733548 1881752938 -1989381215 -708962500 -2009134507 353014793 -28697637 -91667536 -937224416 598928435 219547344 -1874349435 194810530 -1468207595 1311977349 -538581029 1755575395 -702273995 1883612907 1711409306 -555923033 942156551
REM
CELL 1.54180   50.00000   50.00000   50.00000   90.00000   90.00000   90.00000
LATT -1
SFAC C  
C      1  0.4371210000000  0.5009520000000  0.5485440000000 1.0
C      1  0.4485710000000  0.4638110000000  0.4514560000000 1.0
C      1  0.4796640000000  0.4404930000000  0.5485440000000 1.0
C      1  0.5185260000000  0.4399050000000  0.4514560000000 1.0
C      1  0.5503100000000  0.4622710000000  0.5485440000000 1.0
C      1  0.5628790000000  0.4990480000000  0.4514560000000 1.0
C      1  0.5514290000000  0.5361890000000  0.5485440000000 1.0
C      1  0.5203360000000  0.5595070000000  0.4514560000000 1.0
C      1  0.4814740000000  0.5600950000000  0.5485440000000 1.0
C      1  0.4496900000000  0.5377290000000  0.4514560000000 1.0
C      1  0.4922980000000  0.5792550000000  0.4868900000000 1.0
C      1  0.4471840000000  0.5595910000000  0.5131100000000 1.0
C      1  0.4222440000000  0.5171660000000  0.4868900000000 1.0
C      1  0.4270050000000  0.4681840000000  0.5131100000000 1.0
C      1  0.4596470000000  0.4313540000000  0.4868900000000 1.0
C      1  0.5077020000000  0.4207450000000  0.5131100000000 1.0
C      1  0.5528160000000  0.4404090000000  0.4868900000000 1.0
C      1  0.5777560000000  0.4828340000000  0.5131100000000 1.0
C      1  0.5729950000000  0.5318160000000  0.4868900000000 1.0
C      1  0.5403530000000  0.5686460000000  0.5131100000000 1.0
C      1  0.5671840000000  0.5590730000000  0.5005820000000 1.0
C      1  0.5196310000000  0.5872810000000  0.4994180000000 1.0
C      1  0.4645790000000  0.5821510000000  0.5005820000000 1.0
C      1  0.4230570000000  0.5456420000000  0.4994180000000 1.0
C      1  0.4109240000000  0.4916990000000  0.5005820000000 1.0
C      1  0.4328160000000  0.4409270000000  0.4994180000000 1.0
C      1  0.4803690000000  0.4127190000000  0.5005820000000 1.0
C      1  0.5354210000000  0.4178490000000  0.4994180000000 1.0
C      1  0.5769430000000  0.4543580000000  0.5005820000000 1.0
C      1  0.5890760000000  0.5083010000000  0.4994180000000 1.0
C      1  0.5331070000000  0.5576570000000  0.5393640000000 1.0
C      1  0.4928940000000  0.5661060000000  0.4606360000000 1.0
C      1  0.4553950000000  0.5493040000000  0.5393640000000 1.0
C      1  0.4349340000000  0.5136690000000  0.4606360000000 1.0
C      1  0.4393260000000  0.4728140000000  0.5393640000000 1.0
C      1  0.4668930000000  0.4423430000000  0.4606360000000 1.0
C      1  0.5071060000000  0.4338940000000  0.5393640000000 1.0
C      1  0.5446050000000  0.4506960000000  0.4606360000000 1.0
C      1  0.5650660000000  0.4863310000000  0.5393640000000 1.0
C      1  0.5606740000000  0.5271860000000  0.4606360000000 1.0
C      1  0.4526670000000  0.4904100000000  0.4625880000000 1.0
C      1  0.4673430000000  0.4644200000000  0.5374120000000 1.0
C      1  0.4944940000000  0.4520200000000  0.4625880000000 1.0
C      1  0.5237470000000  0.4579470000000  0.5374120000000 1.0
C      1  0.5439300000000  0.4799360000000  0.4625880000000 1.0
C      1  0.5473330000000  0.5095900000000  0.5374120000000 1.0
C      1  0.5326570000000  0.5355800000000  0.4625880000000 1.0
C      1  0.5055060000000  0.5479800000000  0.5374120000000 1.0
C      1  0.4762530000000  0.5420530000000  0.4625880000000 1.0
C      1  0.4560700000000  0.5200640000000  0.5374120000000 1.0
C      1  0.5165450000000  0.5184040000000  0.4788170000000 1.0
C      1  0.5025670000000  0.5246140000000  0.5211830000000 1.0
C      1  0.4876090000000  0.5214220000000  0.4788170000000 1.0
C      1  0.4773840000000  0.5100480000000  0.5211830000000 1.0
C      1  0.4757970000000  0.4948360000000  0.4788170000000 1.0
C      1  0.4834550000000  0.4815960000000  0.5211830000000 1.0
C      1  0.4974330000000  0.4753860000000  0.4788170000000 1.0
C      1  0.5123910000000  0.4785780000000  0.5211830000000 1.0
C      1  0.5226160000000  0.4899520000000  0.4788170000000 1.0
C      1  0.5242030000000  0.5051640000000  0.5211830000000 1.0
END
