TITL C-3985246-2097-160 0.000297916387824143 125000 -327.406739640484 0 0 60 (C2v) n - 1
REM
REM in /home/nfs/bkarasulu/CARBON/AIRSS/Generating-Clusters/TERSOFF/Higher-Symm/Only-C60
REM
REM
REM
REM
REM
REM ./C.cell (28575a23ae977d3b5fae324c64b13b57)
REM
REM compiler GCC version 9.2.1 20190827 (Red Hat 9.2.1-1)
REM options -cpp -mtune=generic -march=x86-64 -g -O0 -fpre-include=/usr/include/finclude/math-vector-fortran.h
REM seed -161889098 302841484 1747524751 -503488968 1450661324 1175764959 712649836 1605150026 1141319345 14772216 1805697941 -2089698110 1286356587 960657588 -434507350 1320099259 -592163508 -541804077 649386151 -319995856 -962805926 -596714415 -1600612380 -1250320377 -1307475875 -1197457491 -1351803788 -1361990148 1612845489 -1424410458 -905286140 -656423575 -1838015040
REM
CELL 1.54180   50.00000   50.00000   50.00000   90.00000   90.00000   90.00000
LATT -1
SFAC C  
C      1  0.4837080000000  0.5140650000000  0.5156040000000 1.0
C      1  0.5162920000000  0.5140650000000  0.4843960000000 1.0
C      1  0.4837080000000  0.5140650000000  0.4843960000000 1.0
C      1  0.5162920000000  0.5140650000000  0.5156040000000 1.0
C      1  0.5331720000000  0.5203820000000  0.4405140000000 1.0
C      1  0.4668270000000  0.5203880000000  0.5594910000000 1.0
C      1  0.5331730000000  0.5203900000000  0.5594930000000 1.0
C      1  0.4668280000000  0.5203810000000  0.4405160000000 1.0
C      1  0.5570540000000  0.5206300000000  0.4611500000000 1.0
C      1  0.4429520000000  0.5206240000000  0.5388480000000 1.0
C      1  0.5570460000000  0.5206220000000  0.5388470000000 1.0
C      1  0.4429440000000  0.5206320000000  0.4611500000000 1.0
C      1  0.5264020000000  0.4679130000000  0.4268450000000 1.0
C      1  0.4735980000000  0.4679130000000  0.5731550000000 1.0
C      1  0.5264020000000  0.4679130000000  0.5731550000000 1.0
C      1  0.4735980000000  0.4679130000000  0.4268450000000 1.0
C      1  0.4634900000000  0.5626970000000  0.4848400000000 1.0
C      1  0.5365100000000  0.5626970000000  0.5151600000000 1.0
C      1  0.4634900000000  0.5626970000000  0.5151600000000 1.0
C      1  0.5365100000000  0.5626970000000  0.4848400000000 1.0
C      1  0.5159930000000  0.5448570000000  0.4402450000000 1.0
C      1  0.4840070000000  0.5448570000000  0.5597550000000 1.0
C      1  0.5159930000000  0.5448570000000  0.5597550000000 1.0
C      1  0.4840070000000  0.5448570000000  0.4402450000000 1.0
C      1  0.5289500000000  0.4906830000000  0.5301110000000 1.0
C      1  0.4710590000000  0.4906820000000  0.4698830000000 1.0
C      1  0.5289430000000  0.4906830000000  0.4698840000000 1.0
C      1  0.4710520000000  0.4906830000000  0.5301130000000 1.0
C      1  0.4363140000000  0.4916670000000  0.4689240000000 1.0
C      1  0.5636860000000  0.4916670000000  0.5310760000000 1.0
C      1  0.4363140000000  0.4916670000000  0.5310760000000 1.0
C      1  0.5636860000000  0.4916670000000  0.4689240000000 1.0
C      1  0.5604940000000  0.4646320000000  0.5154210000000 1.0
C      1  0.4395060000000  0.4646320000000  0.4845790000000 1.0
C      1  0.5604940000000  0.4646320000000  0.4845790000000 1.0
C      1  0.4395060000000  0.4646320000000  0.5154210000000 1.0
C      1  0.4387250000000  0.5430940000000  0.5181110000000 1.0
C      1  0.5612750000000  0.5430940000000  0.4818890000000 1.0
C      1  0.4387250000000  0.5430940000000  0.4818890000000 1.0
C      1  0.5612750000000  0.5430940000000  0.5181110000000 1.0
C      1  0.5282110000000  0.4604460000000  0.5166590000000 1.0
C      1  0.4717890000000  0.4604460000000  0.4833410000000 1.0
C      1  0.5282110000000  0.4604460000000  0.4833410000000 1.0
C      1  0.4717890000000  0.4604460000000  0.5166590000000 1.0
C      1  0.4844680000000  0.4390800000000  0.4676620000000 1.0
C      1  0.5155320000000  0.4390800000000  0.5323380000000 1.0
C      1  0.4844680000000  0.4390800000000  0.5323380000000 1.0
C      1  0.5155320000000  0.4390800000000  0.4676620000000 1.0
C      1  0.5165400000000  0.4926520000000  0.5595900000000 1.0
C      1  0.4834600000000  0.4926520000000  0.4404100000000 1.0
C      1  0.5165400000000  0.4926520000000  0.4404100000000 1.0
C      1  0.4834600000000  0.4926520000000  0.5595900000000 1.0
C      1  0.4839050000000  0.4417910000000  0.5642840000000 1.0
C      1  0.5160950000000  0.4417910000000  0.4357160000000 1.0
C      1  0.4839050000000  0.4417910000000  0.4357160000000 1.0
C      1  0.5160950000000  0.4417910000000  0.5642840000000 1.0
C      1  0.5162550000000  0.5454110000000  0.4720340000000 1.0
C      1  0.4837450000000  0.5454110000000  0.5279660000000 1.0
C      1  0.5162550000000  0.5454110000000  0.5279660000000 1.0
C      1  0.4837450000000  0.5454110000000  0.4720340000000 1.0
END
