TITL C-3985253-1688-196 -0.000407651608876499 125000 -297.438104677983 0 0 60 (C2v) n - 1
REM
REM in /home/nfs/bkarasulu/CARBON/AIRSS/Generating-Clusters/TERSOFF/Higher-Symm/Only-C60
REM
REM
REM
REM
REM
REM ./C.cell (28575a23ae977d3b5fae324c64b13b57)
REM
REM compiler GCC version 9.2.1 20190827 (Red Hat 9.2.1-1)
REM options -cpp -mtune=generic -march=x86-64 -g -O0 -fpre-include=/usr/include/finclude/math-vector-fortran.h
REM seed 62578867 346684223 1770700964 -1778046482 -983442742 -1311320792 -468971027 -346525618 -246264545 -2008677813 415087392 1408171471 1970293831 -278346725 -1781492173 -1716595254 -1183910615 2013199826 2022875145 -1899866280 -1698074601 -81584189 -114041533 1431580620 -1607070552 -1484315617 353497328 -279731283 -387482407 1866812323 1081829120 -1629000678 -921997788
REM
CELL 1.54180   50.00000   50.00000   50.00000   90.00000   90.00000   90.00000
LATT -1
SFAC C  
C      1  0.4921000000000  0.4393560000000  0.5254890000000 1.0
C      1  0.4921000000000  0.5606440000000  0.4745110000000 1.0
C      1  0.4921000000000  0.5606440000000  0.5254890000000 1.0
C      1  0.4921000000000  0.4393560000000  0.4745110000000 1.0
C      1  0.4387770000000  0.5157660000000  0.5506630000000 1.0
C      1  0.4387770000000  0.4842340000000  0.4493370000000 1.0
C      1  0.4387770000000  0.4842340000000  0.5506630000000 1.0
C      1  0.4387770000000  0.5157660000000  0.4493370000000 1.0
C      1  0.4909660000000  0.5318500000000  0.4386400000000 1.0
C      1  0.4909660000000  0.4681500000000  0.5613600000000 1.0
C      1  0.4909660000000  0.4681500000000  0.4386400000000 1.0
C      1  0.4909660000000  0.5318500000000  0.5613590000000 1.0
C      1  0.5391900000000  0.5635300000000  0.4666090000000 1.0
C      1  0.5391900000000  0.4364700000000  0.5333910000000 1.0
C      1  0.5391900000000  0.4364700000000  0.4666090000000 1.0
C      1  0.5391900000000  0.5635300000000  0.5333910000000 1.0
C      1  0.4958550000000  0.5871420000000  0.4860070000000 1.0
C      1  0.4958550000000  0.4128580000000  0.5139930000000 1.0
C      1  0.4958550000000  0.4128580000000  0.4860070000000 1.0
C      1  0.4958550000000  0.5871420000000  0.5139930000000 1.0
C      1  0.5553630000000  0.5450760000000  0.4847820000000 1.0
C      1  0.5553610000000  0.4549260000000  0.5152200000000 1.0
C      1  0.5553630000000  0.4549240000000  0.4847810000000 1.0
C      1  0.5553590000000  0.5450710000000  0.5152220000000 1.0
C      1  0.4896130000000  0.5143490000000  0.4674010000000 1.0
C      1  0.4896050000000  0.4856520000000  0.5325970000000 1.0
C      1  0.4896120000000  0.4856510000000  0.4674010000000 1.0
C      1  0.4896130000000  0.5143570000000  0.5326060000000 1.0
C      1  0.5115250000000  0.5561570000000  0.4509440000000 1.0
C      1  0.5115250000000  0.4438430000000  0.5490570000000 1.0
C      1  0.5115250000000  0.4438430000000  0.4509440000000 1.0
C      1  0.5115250000000  0.5561570000000  0.5490570000000 1.0
C      1  0.5093740000000  0.5317730000000  0.4852340000000 1.0
C      1  0.5093740000000  0.4682270000000  0.5147660000000 1.0
C      1  0.5093740000000  0.4682270000000  0.4852340000000 1.0
C      1  0.5093740000000  0.5317720000000  0.5147660000000 1.0
C      1  0.4418530000000  0.4819950000000  0.4830440000000 1.0
C      1  0.4418530000000  0.5180050000000  0.5169560000000 1.0
C      1  0.4418530000000  0.5180050000000  0.4830440000000 1.0
C      1  0.4418530000000  0.4819950000000  0.5169560000000 1.0
C      1  0.5628900000000  0.5176660000000  0.5283540000000 1.0
C      1  0.5628900000000  0.4823350000000  0.4716460000000 1.0
C      1  0.5628890000000  0.4823350000000  0.5283540000000 1.0
C      1  0.5628900000000  0.5176650000000  0.4716460000000 1.0
C      1  0.5182910000000  0.5154090000000  0.5634210000000 1.0
C      1  0.5182910000000  0.4845910000000  0.4365790000000 1.0
C      1  0.5182910000000  0.4845910000000  0.5634210000000 1.0
C      1  0.5182910000000  0.5154090000000  0.4365790000000 1.0
C      1  0.4603950000000  0.5382550000000  0.5507250000000 1.0
C      1  0.4603860000000  0.4617380000000  0.4492690000000 1.0
C      1  0.4603840000000  0.4617370000000  0.5507320000000 1.0
C      1  0.4603860000000  0.5382620000000  0.4492690000000 1.0
C      1  0.4623430000000  0.4523720000000  0.4818570000000 1.0
C      1  0.4623440000000  0.5476280000000  0.5181430000000 1.0
C      1  0.4623430000000  0.5476280000000  0.4818570000000 1.0
C      1  0.4623430000000  0.4523720000000  0.5181430000000 1.0
C      1  0.5314860000000  0.4837060000000  0.5342360000000 1.0
C      1  0.5314740000000  0.5162910000000  0.4657630000000 1.0
C      1  0.5314680000000  0.5162950000000  0.5342330000000 1.0
C      1  0.5314750000000  0.4837090000000  0.4657640000000 1.0
END
