TITL C-3985254-1270-1112 -0.000100266543357166 125000 -322.234325643853 0 0 60 (C1) n - 1
REM
REM in /home/nfs/bkarasulu/CARBON/AIRSS/Generating-Clusters/TERSOFF/Higher-Symm/Only-C60
REM
REM
REM
REM
REM
REM ./C.cell (28575a23ae977d3b5fae324c64b13b57)
REM
REM compiler GCC version 9.2.1 20190827 (Red Hat 9.2.1-1)
REM options -cpp -mtune=generic -march=x86-64 -g -O0 -fpre-include=/usr/include/finclude/math-vector-fortran.h
REM seed 1021832405 509090613 -430559281 -1242980946 -844088305 578955024 1335021834 -1039214601 816374788 -889604372 127114889 -1151779820 1297410623 1515685897 -132789454 -1306833838 694726662 -2121517507 -1327547974 -1250783006 580165351 2069905852 175512436 1047746996 1007575302 1616406137 2032605809 1398751336 -1029949253 2001172888 1511598823 1774523073 501226252
REM
CELL 1.54180   50.00000   50.00000   50.00000   90.00000   90.00000   90.00000
LATT -1
SFAC C  
C      1  0.5045100000000  0.5207230000000  0.5637590000000 1.0
C      1  0.4899480000000  0.4907640000000  0.5649430000000 1.0
C      1  0.5537530000000  0.5020330000000  0.5522490000000 1.0
C      1  0.4728330000000  0.5524870000000  0.4678090000000 1.0
C      1  0.5784080000000  0.5177420000000  0.5015750000000 1.0
C      1  0.4667370000000  0.4790080000000  0.4420760000000 1.0
C      1  0.5080430000000  0.4893550000000  0.5235470000000 1.0
C      1  0.4421210000000  0.5070130000000  0.5229750000000 1.0
C      1  0.5113380000000  0.4410710000000  0.5447170000000 1.0
C      1  0.5072480000000  0.4439430000000  0.4654570000000 1.0
C      1  0.4567680000000  0.5028200000000  0.5621000000000 1.0
C      1  0.5217750000000  0.4436020000000  0.4937380000000 1.0
C      1  0.5262490000000  0.4792800000000  0.4348510000000 1.0
C      1  0.5633870000000  0.5408250000000  0.4631930000000 1.0
C      1  0.5376880000000  0.5137210000000  0.4920770000000 1.0
C      1  0.5686420000000  0.4713910000000  0.4805540000000 1.0
C      1  0.5684290000000  0.4981460000000  0.5255580000000 1.0
C      1  0.4336940000000  0.4852380000000  0.5448200000000 1.0
C      1  0.5072370000000  0.4288310000000  0.5170900000000 1.0
C      1  0.4527520000000  0.5538110000000  0.4903580000000 1.0
C      1  0.5708520000000  0.5053170000000  0.4680250000000 1.0
C      1  0.5420780000000  0.5587520000000  0.5147270000000 1.0
C      1  0.4326860000000  0.4564160000000  0.5375880000000 1.0
C      1  0.5130590000000  0.4847360000000  0.4743470000000 1.0
C      1  0.4855860000000  0.5423290000000  0.5546640000000 1.0
C      1  0.4741140000000  0.5000570000000  0.5239890000000 1.0
C      1  0.5024160000000  0.4929150000000  0.4223710000000 1.0
C      1  0.4281110000000  0.4878130000000  0.4779740000000 1.0
C      1  0.5347300000000  0.5250240000000  0.5554070000000 1.0
C      1  0.5407870000000  0.4779960000000  0.5612980000000 1.0
C      1  0.4736620000000  0.4776450000000  0.4874470000000 1.0
C      1  0.5223720000000  0.4747280000000  0.5007460000000 1.0
C      1  0.4285350000000  0.5381890000000  0.4871440000000 1.0
C      1  0.4454650000000  0.4664230000000  0.4888890000000 1.0
C      1  0.5524140000000  0.4442490000000  0.4860280000000 1.0
C      1  0.4554650000000  0.5322220000000  0.5435080000000 1.0
C      1  0.4276890000000  0.5110750000000  0.4971490000000 1.0
C      1  0.4689560000000  0.5471490000000  0.5164760000000 1.0
C      1  0.4955620000000  0.5203560000000  0.4334770000000 1.0
C      1  0.4922870000000  0.5659320000000  0.5297620000000 1.0
C      1  0.4732150000000  0.4289040000000  0.5104740000000 1.0
C      1  0.4737040000000  0.5243280000000  0.4535250000000 1.0
C      1  0.5014490000000  0.5557200000000  0.4814600000000 1.0
C      1  0.5134340000000  0.5686840000000  0.5073650000000 1.0
C      1  0.4738390000000  0.4716600000000  0.5399400000000 1.0
C      1  0.5142800000000  0.5175150000000  0.5116190000000 1.0
C      1  0.5515090000000  0.4855690000000  0.5019350000000 1.0
C      1  0.4754930000000  0.5096620000000  0.4817780000000 1.0
C      1  0.5245390000000  0.4511440000000  0.4423550000000 1.0
C      1  0.4800800000000  0.4602950000000  0.5120760000000 1.0
C      1  0.5411450000000  0.5478320000000  0.4448310000000 1.0
C      1  0.4409950000000  0.4452580000000  0.5111380000000 1.0
C      1  0.4904360000000  0.5294140000000  0.4988650000000 1.0
C      1  0.5569910000000  0.5400120000000  0.4942770000000 1.0
C      1  0.4401970000000  0.4907500000000  0.4500990000000 1.0
C      1  0.5359120000000  0.5010420000000  0.4581430000000 1.0
C      1  0.4880180000000  0.4693960000000  0.4621610000000 1.0
C      1  0.5145160000000  0.4709740000000  0.5502700000000 1.0
C      1  0.5280250000000  0.5361140000000  0.5294930000000 1.0
C      1  0.5238360000000  0.5245960000000  0.4437340000000 1.0
END
