TITL C-3985253-1688-934 0.000239794457764028 125000 -316.248517498027 0 0 60 (Cs) n - 1
REM
REM in /home/nfs/bkarasulu/CARBON/AIRSS/Generating-Clusters/TERSOFF/Higher-Symm/Only-C60
REM
REM
REM
REM
REM
REM ./C.cell (28575a23ae977d3b5fae324c64b13b57)
REM
REM compiler GCC version 9.2.1 20190827 (Red Hat 9.2.1-1)
REM options -cpp -mtune=generic -march=x86-64 -g -O0 -fpre-include=/usr/include/finclude/math-vector-fortran.h
REM seed -1009603140 1661658424 -125675726 678486830 -1703412854 1597352308 -1407627595 1813122631 1416815226 565146890 -49098935 -1248261180 -1916915667 -592212376 -1680421215 971577289 406039179 1099579183 -517366628 -1283564350 -25786043 -1134308921 -1693009917 1882383687 -1254420823 -1533304483 -1352901025 -87143828 -261901106 -1979396993 1326007444 -43847558 -2114708032
REM
CELL 1.54180   50.00000   50.00000   50.00000   90.00000   90.00000   90.00000
LATT -1
SFAC C  
C      1  0.4927590000000  0.5405780000000  0.4262700000000 1.0
C      1  0.4927590000000  0.4594220000000  0.4262700000000 1.0
C      1  0.4684920000000  0.4590800000000  0.5499410000000 1.0
C      1  0.4684920000000  0.5409200000000  0.5499410000000 1.0
C      1  0.5521420000000  0.4386500000000  0.4876040000000 1.0
C      1  0.5521420000000  0.5613510000000  0.4876040000000 1.0
C      1  0.4287060000000  0.4828730000000  0.5267180000000 1.0
C      1  0.4287060000000  0.5171270000000  0.5267180000000 1.0
C      1  0.5247830000000  0.5749340000000  0.4781950000000 1.0
C      1  0.5247830000000  0.4250660000000  0.4781950000000 1.0
C      1  0.5221830000000  0.5270850000000  0.4995500000000 1.0
C      1  0.5221830000000  0.4729150000000  0.4995500000000 1.0
C      1  0.5537250000000  0.5404890000000  0.4604050000000 1.0
C      1  0.5537240000000  0.4595110000000  0.4604040000000 1.0
C      1  0.5031840000000  0.5567390000000  0.4723040000000 1.0
C      1  0.5031840000000  0.4432610000000  0.4723040000000 1.0
C      1  0.5099270000000  0.4715360000000  0.4720890000000 1.0
C      1  0.5099270000000  0.5284640000000  0.4720890000000 1.0
C      1  0.5050830000000  0.5725600000000  0.5243560000000 1.0
C      1  0.5050830000000  0.4274400000000  0.5243560000000 1.0
C      1  0.4870800000000  0.5144080000000  0.4592690000000 1.0
C      1  0.4870800000000  0.4855920000000  0.4592690000000 1.0
C      1  0.5042160000000  0.5144330000000  0.5847540000000 1.0
C      1  0.5042160000000  0.4855670000000  0.5847540000000 1.0
C      1  0.4464140000000  0.4818710000000  0.5524330000000 1.0
C      1  0.4464140000000  0.5181290000000  0.5524330000000 1.0
C      1  0.4700060000000  0.4497230000000  0.4454350000000 1.0
C      1  0.4700060000000  0.5502770000000  0.4454350000000 1.0
C      1  0.4837790000000  0.5145100000000  0.5106730000000 1.0
C      1  0.4837790000000  0.4854900000000  0.5106730000000 1.0
C      1  0.5283320000000  0.5538720000000  0.5143420000000 1.0
C      1  0.5283320000000  0.4461280000000  0.5143420000000 1.0
C      1  0.5699260000000  0.5338880000000  0.4986010000000 1.0
C      1  0.5699270000000  0.4661130000000  0.4986020000000 1.0
C      1  0.4638580000000  0.4707330000000  0.4910890000000 1.0
C      1  0.4638580000000  0.5292670000000  0.4910890000000 1.0
C      1  0.5480500000000  0.4859230000000  0.5009900000000 1.0
C      1  0.5480500000000  0.5140770000000  0.5009900000000 1.0
C      1  0.4371710000000  0.5369620000000  0.5053920000000 1.0
C      1  0.4371710000000  0.4630380000000  0.5053920000000 1.0
C      1  0.5124550000000  0.5223330000000  0.5576910000000 1.0
C      1  0.5124550000000  0.4776670000000  0.5576910000000 1.0
C      1  0.5146660000000  0.5177660000000  0.4278810000000 1.0
C      1  0.5146660000000  0.4822340000000  0.4278810000000 1.0
C      1  0.5398630000000  0.4839870000000  0.5492470000000 1.0
C      1  0.5398630000000  0.5160130000000  0.5492470000000 1.0
C      1  0.4555220000000  0.5670210000000  0.5070220000000 1.0
C      1  0.4555220000000  0.4329790000000  0.5070220000000 1.0
C      1  0.5334400000000  0.4818710000000  0.4544310000000 1.0
C      1  0.5334410000000  0.5181290000000  0.4544310000000 1.0
C      1  0.4567330000000  0.4843000000000  0.4654130000000 1.0
C      1  0.4567330000000  0.5157000000000  0.4654130000000 1.0
C      1  0.5479600000000  0.4599280000000  0.5339550000000 1.0
C      1  0.5479600000000  0.5400720000000  0.5339550000000 1.0
C      1  0.4734240000000  0.4397500000000  0.4764820000000 1.0
C      1  0.4734240000000  0.5602500000000  0.4764820000000 1.0
C      1  0.4747130000000  0.4348100000000  0.5298020000000 1.0
C      1  0.4747130000000  0.5651900000000  0.5298020000000 1.0
C      1  0.4914080000000  0.4725090000000  0.5376630000000 1.0
C      1  0.4914080000000  0.5274910000000  0.5376630000000 1.0
END
