TITL C-3985250-725-389 -3.80425590616231e-07 125000 -314.228780701408 0 0 60 (C6) n - 1
REM
REM in /home/nfs/bkarasulu/CARBON/AIRSS/Generating-Clusters/TERSOFF/Higher-Symm/Only-C60
REM
REM
REM
REM
REM
REM ./C.cell (28575a23ae977d3b5fae324c64b13b57)
REM
REM compiler GCC version 9.2.1 20190827 (Red Hat 9.2.1-1)
REM options -cpp -mtune=generic -march=x86-64 -g -O0 -fpre-include=/usr/include/finclude/math-vector-fortran.h
REM seed 2110464134 1380377886 -396428045 -1941133900 -737165223 944975584 -219140211 -1864223348 -1237104548 565279555 1898381088 209117629 -1917328302 1244919904 612438189 924851464 -663316275 -1910303569 1209612698 761798793 1943821612 588844755 1914786222 852133148 963845586 1993786213 -2143517206 -563183788 1340556373 777894211 -1711796003 266096857 626099328
REM
CELL 1.54180   50.00000   50.00000   50.00000   90.00000   90.00000   90.00000
LATT -1
SFAC C  
C      1  0.5004310000000  0.5549240000000  0.4581100000000 1.0
C      1  0.4526500000000  0.5278350000000  0.4581100000000 1.0
C      1  0.4522190000000  0.4729110000000  0.4581100000000 1.0
C      1  0.4995690000000  0.4450760000000  0.4581100000000 1.0
C      1  0.5473500000000  0.4721650000000  0.4581100000000 1.0
C      1  0.5477810000000  0.5270890000000  0.4581100000000 1.0
C      1  0.5071440000000  0.4708390000000  0.5279760000000 1.0
C      1  0.5288270000000  0.4916070000000  0.5279760000000 1.0
C      1  0.5216820000000  0.5207680000000  0.5279760000000 1.0
C      1  0.4928560000000  0.5291610000000  0.5279760000000 1.0
C      1  0.4711730000000  0.5083930000000  0.5279760000000 1.0
C      1  0.4783180000000  0.4792320000000  0.5279760000000 1.0
C      1  0.4562980000000  0.4751490000000  0.4288100000000 1.0
C      1  0.4996700000000  0.4497280000000  0.4288100000000 1.0
C      1  0.5433720000000  0.4745780000000  0.4288100000000 1.0
C      1  0.5437020000000  0.5248510000000  0.4288100000000 1.0
C      1  0.5003300000000  0.5502720000000  0.4288100000000 1.0
C      1  0.4566280000000  0.5254220000000  0.4288100000000 1.0
C      1  0.4815420000000  0.4688710000000  0.5610540000000 1.0
C      1  0.5177290000000  0.4684510000000  0.5610540000000 1.0
C      1  0.5361870000000  0.4995790000000  0.5610540000000 1.0
C      1  0.5184580000000  0.5311290000000  0.5610540000000 1.0
C      1  0.4822710000000  0.5315490000000  0.5610540000000 1.0
C      1  0.4638130000000  0.5004210000000  0.5610540000000 1.0
C      1  0.5492150000000  0.4513740000000  0.5184710000000 1.0
C      1  0.5667190000000  0.5183080000000  0.5184710000000 1.0
C      1  0.5175040000000  0.5669350000000  0.5184710000000 1.0
C      1  0.4507850000000  0.5486260000000  0.5184710000000 1.0
C      1  0.4332810000000  0.4816920000000  0.5184710000000 1.0
C      1  0.4824960000000  0.4330650000000  0.5184710000000 1.0
C      1  0.4585600000000  0.4689890000000  0.5075670000000 1.0
C      1  0.5061360000000  0.4486060000000  0.5075670000000 1.0
C      1  0.5475760000000  0.4796170000000  0.5075670000000 1.0
C      1  0.5414400000000  0.5310110000000  0.5075670000000 1.0
C      1  0.4938640000000  0.5513940000000  0.5075670000000 1.0
C      1  0.4524240000000  0.5203830000000  0.5075670000000 1.0
C      1  0.4762240000000  0.4397600000000  0.5474210000000 1.0
C      1  0.5402810000000  0.4492890000000  0.5474210000000 1.0
C      1  0.5640580000000  0.5095290000000  0.5474210000000 1.0
C      1  0.5237760000000  0.5602400000000  0.5474210000000 1.0
C      1  0.4597190000000  0.5507110000000  0.5474210000000 1.0
C      1  0.4359420000000  0.4904710000000  0.5474210000000 1.0
C      1  0.5327670000000  0.5550800000000  0.4694870000000 1.0
C      1  0.4686830000000  0.5559170000000  0.4694870000000 1.0
C      1  0.4359160000000  0.5008370000000  0.4694870000000 1.0
C      1  0.4672330000000  0.4449200000000  0.4694870000000 1.0
C      1  0.5313170000000  0.4440830000000  0.4694870000000 1.0
C      1  0.5640840000000  0.4991630000000  0.4694870000000 1.0
C      1  0.4727780000000  0.4845710000000  0.4820580000000 1.0
C      1  0.4997510000000  0.4687110000000  0.4820580000000 1.0
C      1  0.5269730000000  0.4841400000000  0.4820580000000 1.0
C      1  0.5272220000000  0.5154290000000  0.4820580000000 1.0
C      1  0.5002490000000  0.5312890000000  0.4820580000000 1.0
C      1  0.4730270000000  0.5158600000000  0.4820580000000 1.0
C      1  0.4282090000000  0.5039300000000  0.4990450000000 1.0
C      1  0.4607010000000  0.4397920000000  0.4990450000000 1.0
C      1  0.5324930000000  0.4358620000000  0.4990450000000 1.0
C      1  0.5717910000000  0.4960700000000  0.4990450000000 1.0
C      1  0.5392990000000  0.5602080000000  0.4990450000000 1.0
C      1  0.4675070000000  0.5641380000000  0.4990450000000 1.0
END
