TITL C-3985244-725-414 1.28741165712234e-06 125000 -334.360289267668 0 0 60 (S4) n - 1
REM
REM in /home/nfs/bkarasulu/CARBON/AIRSS/Generating-Clusters/TERSOFF/Higher-Symm/Only-C60
REM
REM
REM
REM
REM
REM ./C.cell (28575a23ae977d3b5fae324c64b13b57)
REM
REM compiler GCC version 9.2.1 20190827 (Red Hat 9.2.1-1)
REM options -cpp -mtune=generic -march=x86-64 -g -O0 -fpre-include=/usr/include/finclude/math-vector-fortran.h
REM seed -1935534849 -1050983385 -796650108 779356455 -154276314 1931956852 -307648683 -993254211 696326230 -77500361 -413549737 1812550807 1860281747 170995665 -3069109 -1400022651 1070363180 261519564 -1692092536 -942192624 1901500683 2029079401 -1575554174 -811138123 1574131465 -1613202935 -1379483880 -1429509893 -190783359 1333278734 -1746170545 -1519521307 1057977195
REM
CELL 1.54180   50.00000   50.00000   50.00000   90.00000   90.00000   90.00000
LATT -1
SFAC C  
C      1  0.5135500000000  0.4486940000000  0.4622010000000 1.0
C      1  0.4622010000000  0.5513060000000  0.4864500000000 1.0
C      1  0.4864500000000  0.4486940000000  0.5377990000000 1.0
C      1  0.5377990000000  0.5513060000000  0.5135500000000 1.0
C      1  0.5343570000000  0.4339900000000  0.5171500000000 1.0
C      1  0.5171500000000  0.5660100000000  0.4656430000000 1.0
C      1  0.4656430000000  0.4339900000000  0.4828510000000 1.0
C      1  0.4828510000000  0.5660100000000  0.5343570000000 1.0
C      1  0.5169210000000  0.4742760000000  0.5788360000000 1.0
C      1  0.5788360000000  0.5257240000000  0.4830790000000 1.0
C      1  0.4830790000000  0.4742760000000  0.4211640000000 1.0
C      1  0.4211640000000  0.5257240000000  0.5169210000000 1.0
C      1  0.5589710000000  0.4680820000000  0.4870560000000 1.0
C      1  0.4870560000000  0.5319180000000  0.4410290000000 1.0
C      1  0.4410290000000  0.4680820000000  0.5129440000000 1.0
C      1  0.5129440000000  0.5319180000000  0.5589710000000 1.0
C      1  0.4860840000000  0.4823030000000  0.4921420000000 1.0
C      1  0.4921420000000  0.5176970000000  0.5139160000000 1.0
C      1  0.5139160000000  0.4823030000000  0.5078580000000 1.0
C      1  0.5078580000000  0.5176970000000  0.4860840000000 1.0
C      1  0.5313710000000  0.4659890000000  0.5531080000000 1.0
C      1  0.5531070000000  0.5340110000000  0.4686290000000 1.0
C      1  0.4686280000000  0.4659890000000  0.4468920000000 1.0
C      1  0.4468920000000  0.5340110000000  0.5313710000000 1.0
C      1  0.5360870000000  0.5329930000000  0.5398940000000 1.0
C      1  0.5398940000000  0.4670070000000  0.4639130000000 1.0
C      1  0.4639130000000  0.5329930000000  0.4601060000000 1.0
C      1  0.4601060000000  0.4670070000000  0.5360870000000 1.0
C      1  0.4651030000000  0.5286310000000  0.5084440000000 1.0
C      1  0.5084440000000  0.4713690000000  0.5348970000000 1.0
C      1  0.5348970000000  0.5286310000000  0.4915560000000 1.0
C      1  0.4915560000000  0.4713690000000  0.4651040000000 1.0
C      1  0.4955050000000  0.4518150000000  0.5697270000000 1.0
C      1  0.5697270000000  0.5481850000000  0.5044950000000 1.0
C      1  0.5044950000000  0.4518150000000  0.4302730000000 1.0
C      1  0.4302730000000  0.5481850000000  0.4955050000000 1.0
C      1  0.5051100000000  0.4352730000000  0.5137150000000 1.0
C      1  0.5137150000000  0.5647270000000  0.4948900000000 1.0
C      1  0.4948900000000  0.4352730000000  0.4862850000000 1.0
C      1  0.4862850000000  0.5647270000000  0.5051100000000 1.0
C      1  0.5421460000000  0.5022300000000  0.5047570000000 1.0
C      1  0.5047570000000  0.4977700000000  0.4578540000000 1.0
C      1  0.4578540000000  0.5022300000000  0.4952430000000 1.0
C      1  0.4952430000000  0.4977700000000  0.5421460000000 1.0
C      1  0.4608070000000  0.5237980000000  0.5548540000000 1.0
C      1  0.5548540000000  0.4762020000000  0.5391930000000 1.0
C      1  0.5391930000000  0.5237980000000  0.4451460000000 1.0
C      1  0.4451460000000  0.4762020000000  0.4608070000000 1.0
C      1  0.4473890000000  0.4569780000000  0.4856850000000 1.0
C      1  0.4856850000000  0.5430220000000  0.5526110000000 1.0
C      1  0.5526110000000  0.4569780000000  0.5143150000000 1.0
C      1  0.5143150000000  0.5430220000000  0.4473890000000 1.0
C      1  0.4915630000000  0.5041480000000  0.4284060000000 1.0
C      1  0.4284060000000  0.4958520000000  0.5084370000000 1.0
C      1  0.5084370000000  0.5041480000000  0.5715940000000 1.0
C      1  0.5715940000000  0.4958520000000  0.4915630000000 1.0
C      1  0.4478580000000  0.5066810000000  0.4665880000000 1.0
C      1  0.4665880000000  0.4933190000000  0.5521420000000 1.0
C      1  0.5521420000000  0.5066810000000  0.5334120000000 1.0
C      1  0.5334120000000  0.4933190000000  0.4478580000000 1.0
END
