TITL C-3985254-1270-589 -6.97196586098436e-08 125000 -334.059494736946 0 0 60 (C2h) n - 1
REM
REM in /home/nfs/bkarasulu/CARBON/AIRSS/Generating-Clusters/TERSOFF/Higher-Symm/Only-C60
REM
REM
REM
REM
REM
REM ./C.cell (28575a23ae977d3b5fae324c64b13b57)
REM
REM compiler GCC version 9.2.1 20190827 (Red Hat 9.2.1-1)
REM options -cpp -mtune=generic -march=x86-64 -g -O0 -fpre-include=/usr/include/finclude/math-vector-fortran.h
REM seed -1605990934 -842471232 2078676038 -852840395 -2305541 -1838111628 -2122112575 -693993969 -1937107848 -1292117915 1339394732 -1569510685 157382790 1244730581 -1143267235 -214864730 1717445034 1310805840 1468662361 436635704 2018546989 632540361 -44636878 -1693223264 2002311001 -960165529 -1956045556 -1005762998 783915129 -812978966 -516558253 1957843575 2029972657
REM
CELL 1.54180   50.00000   50.00000   50.00000   90.00000   90.00000   90.00000
LATT -1
SFAC C  
C      1  0.4333780000000  0.4895130000000  0.5301110000000 1.0
C      1  0.5666220000000  0.5104870000000  0.5301110000000 1.0
C      1  0.4333780000000  0.4895130000000  0.4698890000000 1.0
C      1  0.5666220000000  0.5104870000000  0.4698890000000 1.0
C      1  0.5526470000000  0.4569780000000  0.4695590000000 1.0
C      1  0.4473530000000  0.5430220000000  0.4695590000000 1.0
C      1  0.5526470000000  0.4569780000000  0.5304410000000 1.0
C      1  0.4473530000000  0.5430220000000  0.5304410000000 1.0
C      1  0.5196110000000  0.5158370000000  0.5143340000000 1.0
C      1  0.4803890000000  0.4841630000000  0.5143340000000 1.0
C      1  0.5196110000000  0.5158370000000  0.4856660000000 1.0
C      1  0.4803890000000  0.4841630000000  0.4856660000000 1.0
C      1  0.5452300000000  0.5560120000000  0.4819260000000 1.0
C      1  0.4547700000000  0.4439880000000  0.4819260000000 1.0
C      1  0.5452300000000  0.5560120000000  0.5180740000000 1.0
C      1  0.4547700000000  0.4439880000000  0.5180740000000 1.0
C      1  0.4828700000000  0.4288740000000  0.5156920000000 1.0
C      1  0.5171300000000  0.5711260000000  0.5156920000000 1.0
C      1  0.4828700000000  0.4288740000000  0.4843080000000 1.0
C      1  0.5171300000000  0.5711260000000  0.4843080000000 1.0
C      1  0.5245580000000  0.5252840000000  0.4437210000000 1.0
C      1  0.4754420000000  0.4747160000000  0.4437210000000 1.0
C      1  0.5245580000000  0.5252840000000  0.5562790000000 1.0
C      1  0.4754420000000  0.4747160000000  0.5562790000000 1.0
C      1  0.5491220000000  0.5334350000000  0.4616990000000 1.0
C      1  0.4508780000000  0.4665650000000  0.4616990000000 1.0
C      1  0.5491220000000  0.5334350000000  0.5383010000000 1.0
C      1  0.4508780000000  0.4665650000000  0.5383010000000 1.0
C      1  0.5383330000000  0.4578600000000  0.5568260000000 1.0
C      1  0.4616670000000  0.5421400000000  0.5568260000000 1.0
C      1  0.5383330000000  0.4578600000000  0.4431740000000 1.0
C      1  0.4616670000000  0.5421400000000  0.4431740000000 1.0
C      1  0.5558680000000  0.4849710000000  0.5164280000000 1.0
C      1  0.4441320000000  0.5150290000000  0.5164280000000 1.0
C      1  0.5558680000000  0.4849710000000  0.4835720000000 1.0
C      1  0.4441320000000  0.5150290000000  0.4835720000000 1.0
C      1  0.4945120000000  0.5413700000000  0.5574410000000 1.0
C      1  0.5054880000000  0.4586300000000  0.5574410000000 1.0
C      1  0.4945120000000  0.5413700000000  0.4425590000000 1.0
C      1  0.5054880000000  0.4586300000000  0.4425590000000 1.0
C      1  0.4649480000000  0.5621890000000  0.4851500000000 1.0
C      1  0.5350520000000  0.4378110000000  0.4851500000000 1.0
C      1  0.4649480000000  0.5621890000000  0.5148500000000 1.0
C      1  0.5350520000000  0.4378110000000  0.5148500000000 1.0
C      1  0.5164240000000  0.4936620000000  0.4425340000000 1.0
C      1  0.4835760000000  0.5063380000000  0.4425340000000 1.0
C      1  0.5164240000000  0.4936620000000  0.5574660000000 1.0
C      1  0.4835760000000  0.5063380000000  0.5574660000000 1.0
C      1  0.4925430000000  0.5297260000000  0.5161050000000 1.0
C      1  0.5074570000000  0.4702740000000  0.5161050000000 1.0
C      1  0.4925430000000  0.5297260000000  0.4838950000000 1.0
C      1  0.5074570000000  0.4702740000000  0.4838950000000 1.0
C      1  0.5259960000000  0.4904840000000  0.5273370000000 1.0
C      1  0.4740040000000  0.5095160000000  0.5273370000000 1.0
C      1  0.5259960000000  0.4904840000000  0.4726630000000 1.0
C      1  0.4740040000000  0.5095160000000  0.4726630000000 1.0
C      1  0.5066730000000  0.4419390000000  0.5282150000000 1.0
C      1  0.4933270000000  0.5580610000000  0.5282150000000 1.0
C      1  0.5066730000000  0.4419390000000  0.4717850000000 1.0
C      1  0.4933270000000  0.5580610000000  0.4717850000000 1.0
END
