TITL C-3985259-1859-329 0.000539633779957748 125000 -343.436234917034 0 0 60 (C2) n - 1
REM
REM in /home/nfs/bkarasulu/CARBON/AIRSS/Generating-Clusters/TERSOFF/Higher-Symm/Only-C60
REM
REM
REM
REM
REM
REM ./C.cell (28575a23ae977d3b5fae324c64b13b57)
REM
REM compiler GCC version 9.2.1 20190827 (Red Hat 9.2.1-1)
REM options -cpp -mtune=generic -march=x86-64 -g -O0 -fpre-include=/usr/include/finclude/math-vector-fortran.h
REM seed 573515492 -1020716142 -1668494655 -1089798532 -1266276731 -1978796481 -173433253 -1179157511 -169582708 -399942249 365764372 867025103 1713456295 532290601 676399793 1876357492 -1763228030 23266896 1151854468 1654700907 1025870562 2061033840 -1908209070 613094371 21385371 643203362 630109102 -184192378 927165780 -1164328539 1397442875 555919544 1238413913
REM
CELL 1.54180   50.00000   50.00000   50.00000   90.00000   90.00000   90.00000
LATT -1
SFAC C  
C      1  0.5335000000000  0.5438320000000  0.5207070000000 1.0
C      1  0.5335000000000  0.4561680000000  0.4792930000000 1.0
C      1  0.5097320000000  0.4809600000000  0.4671060000000 1.0
C      1  0.5097310000000  0.5190380000000  0.5328920000000 1.0
C      1  0.4752010000000  0.4721620000000  0.5418830000000 1.0
C      1  0.4752010000000  0.5278370000000  0.4581150000000 1.0
C      1  0.5475990000000  0.4966750000000  0.5237760000000 1.0
C      1  0.5476000000000  0.5033250000000  0.4762240000000 1.0
C      1  0.4925340000000  0.5276900000000  0.4834320000000 1.0
C      1  0.4925350000000  0.4723120000000  0.5165700000000 1.0
C      1  0.5225410000000  0.4518170000000  0.5527770000000 1.0
C      1  0.5225410000000  0.5481840000000  0.4472230000000 1.0
C      1  0.4753070000000  0.4861530000000  0.4974630000000 1.0
C      1  0.4753000000000  0.5138520000000  0.5025340000000 1.0
C      1  0.4978710000000  0.5322900000000  0.4377410000000 1.0
C      1  0.4978720000000  0.4677110000000  0.5622610000000 1.0
C      1  0.4345430000000  0.4997890000000  0.5247890000000 1.0
C      1  0.4345440000000  0.5002110000000  0.4752100000000 1.0
C      1  0.4587150000000  0.4999660000000  0.5439300000000 1.0
C      1  0.4587140000000  0.5000340000000  0.4560710000000 1.0
C      1  0.4923730000000  0.5653300000000  0.5185480000000 1.0
C      1  0.4923740000000  0.4346690000000  0.4814520000000 1.0
C      1  0.4589720000000  0.4496780000000  0.5277380000000 1.0
C      1  0.4589740000000  0.5503190000000  0.4722640000000 1.0
C      1  0.5145780000000  0.4547970000000  0.4346430000000 1.0
C      1  0.5145770000000  0.5452040000000  0.5653580000000 1.0
C      1  0.4542820000000  0.4938410000000  0.4273950000000 1.0
C      1  0.4542820000000  0.5061600000000  0.5726060000000 1.0
C      1  0.5626990000000  0.5321230000000  0.4801710000000 1.0
C      1  0.5626990000000  0.4678770000000  0.5198290000000 1.0
C      1  0.4324290000000  0.4790120000000  0.4996450000000 1.0
C      1  0.4324270000000  0.5209890000000  0.5003560000000 1.0
C      1  0.4775330000000  0.5221090000000  0.5311260000000 1.0
C      1  0.4775330000000  0.4778930000000  0.4688740000000 1.0
C      1  0.4669880000000  0.5500490000000  0.5237060000000 1.0
C      1  0.4669890000000  0.4499490000000  0.4762950000000 1.0
C      1  0.5453180000000  0.5011360000000  0.4445180000000 1.0
C      1  0.5453180000000  0.4988640000000  0.5554820000000 1.0
C      1  0.5577550000000  0.4769870000000  0.4864700000000 1.0
C      1  0.5577530000000  0.5230160000000  0.5135280000000 1.0
C      1  0.5192200000000  0.4870730000000  0.4358280000000 1.0
C      1  0.5192200000000  0.5129270000000  0.5641720000000 1.0
C      1  0.5015200000000  0.5068300000000  0.4216140000000 1.0
C      1  0.5015210000000  0.4931700000000  0.5783860000000 1.0
C      1  0.5485810000000  0.4667130000000  0.5530640000000 1.0
C      1  0.5485810000000  0.5332880000000  0.4469370000000 1.0
C      1  0.4986580000000  0.4443300000000  0.5097740000000 1.0
C      1  0.4986590000000  0.5556680000000  0.4902240000000 1.0
C      1  0.4768700000000  0.4966050000000  0.4098010000000 1.0
C      1  0.4768700000000  0.5033960000000  0.5902000000000 1.0
C      1  0.4483000000000  0.5458910000000  0.4997620000000 1.0
C      1  0.4482940000000  0.4541040000000  0.5002350000000 1.0
C      1  0.5154180000000  0.5614360000000  0.5393230000000 1.0
C      1  0.5154190000000  0.4385630000000  0.4606770000000 1.0
C      1  0.5168180000000  0.5050950000000  0.4853670000000 1.0
C      1  0.5168180000000  0.4949040000000  0.5146330000000 1.0
C      1  0.5211930000000  0.5642820000000  0.4735650000000 1.0
C      1  0.5211930000000  0.4357180000000  0.5264350000000 1.0
C      1  0.5429580000000  0.5555910000000  0.4916280000000 1.0
C      1  0.5429560000000  0.4444070000000  0.5083750000000 1.0
END
