TITL C-3985254-1270-113 0.000640258152816332 125000 -331.166627420049 0 0 60 (C1) n - 1
REM
REM in /home/nfs/bkarasulu/CARBON/AIRSS/Generating-Clusters/TERSOFF/Higher-Symm/Only-C60
REM
REM
REM
REM
REM
REM ./C.cell (28575a23ae977d3b5fae324c64b13b57)
REM
REM compiler GCC version 9.2.1 20190827 (Red Hat 9.2.1-1)
REM options -cpp -mtune=generic -march=x86-64 -g -O0 -fpre-include=/usr/include/finclude/math-vector-fortran.h
REM seed 186977069 855380504 984070726 -1805642212 1911712721 1465772441 1355324420 1241800885 -203572621 -178553451 -2094238036 1051546387 -513204798 1251393523 765675557 2067996304 -2015584307 -787547771 1584383928 577397106 359999743 64331274 -754152799 -786796543 -1993788306 1528261000 50948138 2124971861 236008842 621894465 -1760367498 -264766222 1478611224
REM
CELL 1.54180   50.00000   50.00000   50.00000   90.00000   90.00000   90.00000
LATT -1
SFAC C  
C      1  0.4952040000000  0.5583490000000  0.4661390000000 1.0
C      1  0.4530110000000  0.5048810000000  0.5395690000000 1.0
C      1  0.4394640000000  0.5404620000000  0.4973370000000 1.0
C      1  0.4790750000000  0.5325660000000  0.4637920000000 1.0
C      1  0.4874430000000  0.5593440000000  0.5176690000000 1.0
C      1  0.4421290000000  0.5022730000000  0.4646050000000 1.0
C      1  0.5539980000000  0.5005470000000  0.4477840000000 1.0
C      1  0.4551900000000  0.5606260000000  0.5135570000000 1.0
C      1  0.5239480000000  0.4973810000000  0.4459610000000 1.0
C      1  0.4493180000000  0.5306370000000  0.4719520000000 1.0
C      1  0.5357900000000  0.5713490000000  0.4982760000000 1.0
C      1  0.5026730000000  0.4388590000000  0.5400840000000 1.0
C      1  0.5422360000000  0.4317260000000  0.5088250000000 1.0
C      1  0.5016250000000  0.5320430000000  0.5212900000000 1.0
C      1  0.4935550000000  0.4672150000000  0.5039590000000 1.0
C      1  0.4559530000000  0.4632680000000  0.5351720000000 1.0
C      1  0.5411750000000  0.5284380000000  0.4763780000000 1.0
C      1  0.5182890000000  0.5188910000000  0.4946070000000 1.0
C      1  0.4923480000000  0.4276260000000  0.4900070000000 1.0
C      1  0.4506490000000  0.4857860000000  0.4878940000000 1.0
C      1  0.4773100000000  0.5190710000000  0.4357430000000 1.0
C      1  0.4785380000000  0.4909180000000  0.4963910000000 1.0
C      1  0.4797940000000  0.4774390000000  0.4307910000000 1.0
C      1  0.4748300000000  0.5010420000000  0.5807160000000 1.0
C      1  0.5574540000000  0.5045510000000  0.5226240000000 1.0
C      1  0.5197390000000  0.4710460000000  0.5148840000000 1.0
C      1  0.5631040000000  0.4835670000000  0.4717650000000 1.0
C      1  0.5685210000000  0.4412790000000  0.4981080000000 1.0
C      1  0.5366890000000  0.5404250000000  0.4502200000000 1.0
C      1  0.5248820000000  0.5339730000000  0.5423750000000 1.0
C      1  0.4932020000000  0.4602550000000  0.4519690000000 1.0
C      1  0.4806680000000  0.5502730000000  0.5527810000000 1.0
C      1  0.4347380000000  0.5293650000000  0.5432520000000 1.0
C      1  0.5409670000000  0.4632860000000  0.4752910000000 1.0
C      1  0.5276960000000  0.4976230000000  0.5215510000000 1.0
C      1  0.4596180000000  0.4224860000000  0.4514120000000 1.0
C      1  0.4536860000000  0.4861800000000  0.5633860000000 1.0
C      1  0.5022900000000  0.5027680000000  0.4254930000000 1.0
C      1  0.5156270000000  0.5590920000000  0.4457630000000 1.0
C      1  0.4788120000000  0.4420650000000  0.5158980000000 1.0
C      1  0.4914450000000  0.5251790000000  0.5661740000000 1.0
C      1  0.5056710000000  0.5657960000000  0.4937000000000 1.0
C      1  0.4852820000000  0.4605380000000  0.5530070000000 1.0
C      1  0.5828020000000  0.4664440000000  0.5069780000000 1.0
C      1  0.4791760000000  0.5081330000000  0.5221250000000 1.0
C      1  0.5749960000000  0.4967850000000  0.4977010000000 1.0
C      1  0.4544170000000  0.4966080000000  0.4373600000000 1.0
C      1  0.4233370000000  0.5206220000000  0.5145350000000 1.0
C      1  0.4506930000000  0.5540790000000  0.5434620000000 1.0
C      1  0.5161600000000  0.5050630000000  0.5525120000000 1.0
C      1  0.5686090000000  0.5287520000000  0.4880880000000 1.0
C      1  0.4365730000000  0.4869530000000  0.5151840000000 1.0
C      1  0.5167960000000  0.4739890000000  0.4622780000000 1.0
C      1  0.5296780000000  0.4477440000000  0.5296100000000 1.0
C      1  0.4819360000000  0.4362440000000  0.4638900000000 1.0
C      1  0.5524030000000  0.5338320000000  0.5311070000000 1.0
C      1  0.4965970000000  0.4835310000000  0.5673150000000 1.0
C      1  0.4936710000000  0.5109570000000  0.4801060000000 1.0
C      1  0.5571780000000  0.5512650000000  0.5077710000000 1.0
C      1  0.5213440000000  0.4185180000000  0.4918270000000 1.0
END
