TITL C-3985254-1270-1095 0.000820028104179515 125000 -351.153314565019 0 0 60 (C1) n - 1
REM
REM in /home/nfs/bkarasulu/CARBON/AIRSS/Generating-Clusters/TERSOFF/Higher-Symm/Only-C60
REM
REM
REM
REM
REM
REM ./C.cell (28575a23ae977d3b5fae324c64b13b57)
REM
REM compiler GCC version 9.2.1 20190827 (Red Hat 9.2.1-1)
REM options -cpp -mtune=generic -march=x86-64 -g -O0 -fpre-include=/usr/include/finclude/math-vector-fortran.h
REM seed 168215918 1135452708 -377710807 -890451974 37582633 -188974980 -1033833984 1848202426 1615624745 1769350211 -1402521052 814991545 -1263855160 -628290691 -2109152787 829705178 939285716 1506929718 -1360593742 1276127004 -1636389537 620375764 1105451667 957827391 -602311258 -135770657 240581191 261347723 -1873133111 1307030325 -325987436 -1639670433 2093727620
REM
CELL 1.54180   50.00000   50.00000   50.00000   90.00000   90.00000   90.00000
LATT -1
SFAC C  
C      1  0.5610220000000  0.4808600000000  0.5230300000000 1.0
C      1  0.5654030000000  0.5110990000000  0.5317210000000 1.0
C      1  0.5673930000000  0.5326790000000  0.4847430000000 1.0
C      1  0.5611210000000  0.5052670000000  0.4690470000000 1.0
C      1  0.5611850000000  0.4761950000000  0.4887250000000 1.0
C      1  0.5035940000000  0.4783110000000  0.5605630000000 1.0
C      1  0.5059160000000  0.5493160000000  0.5378940000000 1.0
C      1  0.5049830000000  0.5508430000000  0.4628450000000 1.0
C      1  0.5029810000000  0.4804250000000  0.4387230000000 1.0
C      1  0.5041460000000  0.4363610000000  0.4988940000000 1.0
C      1  0.4390490000000  0.5027330000000  0.4741750000000 1.0
C      1  0.4387210000000  0.4761780000000  0.4896560000000 1.0
C      1  0.4389330000000  0.4827170000000  0.5196310000000 1.0
C      1  0.4397660000000  0.5132810000000  0.5225840000000 1.0
C      1  0.4400790000000  0.5256290000000  0.4945850000000 1.0
C      1  0.5025040000000  0.4571100000000  0.5199780000000 1.0
C      1  0.5033670000000  0.5045350000000  0.5466530000000 1.0
C      1  0.5052860000000  0.5434620000000  0.5086220000000 1.0
C      1  0.5027490000000  0.5216550000000  0.4582810000000 1.0
C      1  0.5023720000000  0.4677780000000  0.4656520000000 1.0
C      1  0.5935820000000  0.4790890000000  0.4902330000000 1.0
C      1  0.5962390000000  0.4848980000000  0.5207990000000 1.0
C      1  0.5948660000000  0.5179610000000  0.5236590000000 1.0
C      1  0.5960660000000  0.5299570000000  0.4960060000000 1.0
C      1  0.5970410000000  0.5051200000000  0.4735480000000 1.0
C      1  0.5188890000000  0.5057470000000  0.4399680000000 1.0
C      1  0.5201180000000  0.4469710000000  0.4757530000000 1.0
C      1  0.5192110000000  0.4590740000000  0.5437970000000 1.0
C      1  0.5207200000000  0.5274530000000  0.5520970000000 1.0
C      1  0.5210950000000  0.5558870000000  0.4873800000000 1.0
C      1  0.5479420000000  0.4618110000000  0.5408840000000 1.0
C      1  0.5498110000000  0.5253200000000  0.5519150000000 1.0
C      1  0.5502300000000  0.5563400000000  0.4873170000000 1.0
C      1  0.5476170000000  0.5054390000000  0.4432490000000 1.0
C      1  0.5488320000000  0.4516740000000  0.4777650000000 1.0
C      1  0.4516920000000  0.5302120000000  0.4324670000000 1.0
C      1  0.4504590000000  0.4446960000000  0.4506370000000 1.0
C      1  0.4510340000000  0.4354800000000  0.5366660000000 1.0
C      1  0.4519730000000  0.5153190000000  0.5724290000000 1.0
C      1  0.4536350000000  0.5735570000000  0.5078300000000 1.0
C      1  0.4592720000000  0.5246540000000  0.5454780000000 1.0
C      1  0.4600070000000  0.5507140000000  0.4904160000000 1.0
C      1  0.4581220000000  0.5064020000000  0.4485180000000 1.0
C      1  0.4578520000000  0.4528600000000  0.4779100000000 1.0
C      1  0.4580080000000  0.4640600000000  0.5377130000000 1.0
C      1  0.4741250000000  0.4304700000000  0.4935440000000 1.0
C      1  0.4735600000000  0.4719940000000  0.5640510000000 1.0
C      1  0.4759550000000  0.5516980000000  0.5455720000000 1.0
C      1  0.4754240000000  0.5592580000000  0.4642510000000 1.0
C      1  0.4731160000000  0.4840370000000  0.4320380000000 1.0
C      1  0.4618410000000  0.5744070000000  0.5350110000000 1.0
C      1  0.4603650000000  0.5562620000000  0.4399330000000 1.0
C      1  0.4580270000000  0.4599160000000  0.4278630000000 1.0
C      1  0.4595460000000  0.4186230000000  0.5153780000000 1.0
C      1  0.4590040000000  0.4893870000000  0.5817760000000 1.0
C      1  0.4803830000000  0.4771200000000  0.5160330000000 1.0
C      1  0.4811790000000  0.5075410000000  0.5263560000000 1.0
C      1  0.4816490000000  0.5266070000000  0.5003020000000 1.0
C      1  0.4807240000000  0.5081180000000  0.4738470000000 1.0
C      1  0.4802190000000  0.4774330000000  0.4836080000000 1.0
END
