TITL C-3985251-913-143 0.00157945617112828 125000 -293.464791485623 0 0 60 (C4) n - 1
REM
REM in /home/nfs/bkarasulu/CARBON/AIRSS/Generating-Clusters/TERSOFF/Higher-Symm/Only-C60
REM
REM
REM
REM
REM
REM ./C.cell (28575a23ae977d3b5fae324c64b13b57)
REM
REM compiler GCC version 9.2.1 20190827 (Red Hat 9.2.1-1)
REM options -cpp -mtune=generic -march=x86-64 -g -O0 -fpre-include=/usr/include/finclude/math-vector-fortran.h
REM seed -76113649 1401686417 1581908363 -734366400 726861773 -312708338 2037230721 -802315430 149982070 -1298516434 1870132219 1364580651 -248699848 50779560 11257128 1617668525 -978953547 1616903373 -2131899825 -1266229606 1906013773 139552091 1091039627 -931439600 -1584210007 356544205 1957246407 323848389 1444626743 -1676330110 -276112977 1989543993 -362503993
REM
CELL 1.54180   50.00000   50.00000   50.00000   90.00000   90.00000   90.00000
LATT -1
SFAC C  
C      1  0.4404740000000  0.5512970000000  0.5265100000000 1.0
C      1  0.4364220000000  0.5518800000000  0.4951710000000 1.0
C      1  0.4551620000000  0.5558170000000  0.4677060000000 1.0
C      1  0.4735030000000  0.5512920000000  0.4404550000000 1.0
C      1  0.5048600000000  0.5518950000000  0.4364600000000 1.0
C      1  0.5322820000000  0.5558120000000  0.4551740000000 1.0
C      1  0.5594880000000  0.5513520000000  0.4735330000000 1.0
C      1  0.5635070000000  0.5518970000000  0.5048630000000 1.0
C      1  0.5447840000000  0.5558190000000  0.5322550000000 1.0
C      1  0.5264890000000  0.5513510000000  0.5594710000000 1.0
C      1  0.4951780000000  0.5518750000000  0.5635520000000 1.0
C      1  0.4677350000000  0.5558370000000  0.5447930000000 1.0
C      1  0.4193790000000  0.5265790000000  0.4933920000000 1.0
C      1  0.4396840000000  0.5305820000000  0.4570250000000 1.0
C      1  0.4647380000000  0.5274240000000  0.4236420000000 1.0
C      1  0.5066040000000  0.5265800000000  0.4193140000000 1.0
C      1  0.5430160000000  0.5306050000000  0.4397270000000 1.0
C      1  0.5764620000000  0.5274380000000  0.4648310000000 1.0
C      1  0.5807480000000  0.5265250000000  0.5065390000000 1.0
C      1  0.5602480000000  0.5306340000000  0.5429680000000 1.0
C      1  0.5352110000000  0.5274420000000  0.5764380000000 1.0
C      1  0.4934620000000  0.5265150000000  0.5807130000000 1.0
C      1  0.4570880000000  0.5306190000000  0.5602680000000 1.0
C      1  0.4236020000000  0.5274230000000  0.5351960000000 1.0
C      1  0.4628990000000  0.5017640000000  0.5513930000000 1.0
C      1  0.4353170000000  0.4995540000000  0.5295750000000 1.0
C      1  0.4330400000000  0.4986850000000  0.4952890000000 1.0
C      1  0.4485730000000  0.5017750000000  0.4628680000000 1.0
C      1  0.4704450000000  0.4995550000000  0.4353210000000 1.0
C      1  0.5047150000000  0.4986930000000  0.4330640000000 1.0
C      1  0.5371380000000  0.5017480000000  0.4485940000000 1.0
C      1  0.5646230000000  0.4995690000000  0.4704720000000 1.0
C      1  0.5669110000000  0.4986460000000  0.5047010000000 1.0
C      1  0.5513860000000  0.5017510000000  0.5371070000000 1.0
C      1  0.5295510000000  0.4995640000000  0.5646290000000 1.0
C      1  0.4952930000000  0.4986450000000  0.5669460000000 1.0
C      1  0.5449170000000  0.4739670000000  0.4371680000000 1.0
C      1  0.5768320000000  0.4720080000000  0.4643140000000 1.0
C      1  0.5784480000000  0.4700830000000  0.5061850000000 1.0
C      1  0.5628230000000  0.4739800000000  0.5449180000000 1.0
C      1  0.5356840000000  0.4719970000000  0.5768390000000 1.0
C      1  0.4938140000000  0.4700780000000  0.5784670000000 1.0
C      1  0.4550940000000  0.4739960000000  0.5628110000000 1.0
C      1  0.4231480000000  0.4719730000000  0.5357040000000 1.0
C      1  0.4215540000000  0.4700940000000  0.4938300000000 1.0
C      1  0.4371720000000  0.4739920000000  0.4550910000000 1.0
C      1  0.4643000000000  0.4719720000000  0.4231620000000 1.0
C      1  0.5061750000000  0.4701070000000  0.4215530000000 1.0
C      1  0.4399630000000  0.4477970000000  0.5281450000000 1.0
C      1  0.4399060000000  0.4446950000000  0.4957020000000 1.0
C      1  0.4505380000000  0.4478460000000  0.4640590000000 1.0
C      1  0.4718560000000  0.4477850000000  0.4399660000000 1.0
C      1  0.5043010000000  0.4447090000000  0.4398930000000 1.0
C      1  0.5359410000000  0.4478140000000  0.4505460000000 1.0
C      1  0.5600440000000  0.4478110000000  0.4718570000000 1.0
C      1  0.5601110000000  0.4446820000000  0.5043000000000 1.0
C      1  0.5494590000000  0.4478260000000  0.5359400000000 1.0
C      1  0.5281400000000  0.4478110000000  0.5600370000000 1.0
C      1  0.4956980000000  0.4446830000000  0.5601050000000 1.0
C      1  0.4640650000000  0.4478570000000  0.5494500000000 1.0
END
