TITL C-3985258-5380-48 -0.000373687040424659 125000 -277.752844896281 0 0 60 (C2) n - 1
REM
REM in /home/nfs/bkarasulu/CARBON/AIRSS/Generating-Clusters/TERSOFF/Higher-Symm/Only-C60
REM
REM
REM
REM
REM
REM ./C.cell (28575a23ae977d3b5fae324c64b13b57)
REM
REM compiler GCC version 9.2.1 20190827 (Red Hat 9.2.1-1)
REM options -cpp -mtune=generic -march=x86-64 -g -O0 -fpre-include=/usr/include/finclude/math-vector-fortran.h
REM seed -1704715976 -1840361764 -349735143 -172614303 -93048114 170895708 -1094937960 1704201623 -423938548 -873630172 915161552 1977610263 1132671527 -1379577299 391582060 -1269001277 -453317063 388634378 -1269555029 -228152657 -1101585634 -1128671915 -1303757902 -1301387509 792828906 127371789 -234735265 -1091626084 -1949888047 1417076128 -1761416739 1929959001 -1836066253
REM
CELL 1.54180   50.00000   50.00000   50.00000   90.00000   90.00000   90.00000
LATT -1
SFAC C  
C      1  0.4551320000000  0.4687690000000  0.4559490000000 1.0
C      1  0.4559450000000  0.4685560000000  0.5446970000000 1.0
C      1  0.5448630000000  0.4687670000000  0.5440570000000 1.0
C      1  0.5440630000000  0.4685650000000  0.4552980000000 1.0
C      1  0.4551030000000  0.5329030000000  0.5440830000000 1.0
C      1  0.4559630000000  0.5331000000000  0.4554010000000 1.0
C      1  0.5448980000000  0.5329020000000  0.4559160000000 1.0
C      1  0.5440350000000  0.5331010000000  0.5445940000000 1.0
C      1  0.5224990000000  0.4630890000000  0.4909420000000 1.0
C      1  0.4915410000000  0.4623370000000  0.4786330000000 1.0
C      1  0.4774900000000  0.4630880000000  0.5090710000000 1.0
C      1  0.5084610000000  0.4623360000000  0.5213610000000 1.0
C      1  0.5223230000000  0.5385670000000  0.5090620000000 1.0
C      1  0.4913990000000  0.5392060000000  0.5215340000000 1.0
C      1  0.4776790000000  0.5385660000000  0.4909450000000 1.0
C      1  0.5085990000000  0.5392070000000  0.4784680000000 1.0
C      1  0.5632070000000  0.5050350000000  0.4831360000000 1.0
C      1  0.4828980000000  0.5043110000000  0.4368980000000 1.0
C      1  0.4367940000000  0.5050350000000  0.5168610000000 1.0
C      1  0.5171010000000  0.5043110000000  0.5631010000000 1.0
C      1  0.5631310000000  0.4965800000000  0.5167990000000 1.0
C      1  0.4828460000000  0.4973520000000  0.5631730000000 1.0
C      1  0.4368680000000  0.4965820000000  0.4832010000000 1.0
C      1  0.5171520000000  0.4973510000000  0.4368300000000 1.0
C      1  0.5134420000000  0.5081450000000  0.4685800000000 1.0
C      1  0.4685970000000  0.5077920000000  0.4864370000000 1.0
C      1  0.4865580000000  0.5081440000000  0.5314190000000 1.0
C      1  0.5314050000000  0.5077870000000  0.5135590000000 1.0
C      1  0.5133480000000  0.4934250000000  0.5313480000000 1.0
C      1  0.4684890000000  0.4938470000000  0.5135970000000 1.0
C      1  0.4866510000000  0.4934260000000  0.4686530000000 1.0
C      1  0.5315150000000  0.4938480000000  0.4864010000000 1.0
C      1  0.4385080000000  0.5371020000000  0.5141940000000 1.0
C      1  0.5141110000000  0.5364640000000  0.5611610000000 1.0
C      1  0.5614910000000  0.5371010000000  0.4858050000000 1.0
C      1  0.4858900000000  0.5364640000000  0.4388390000000 1.0
C      1  0.4384830000000  0.4645020000000  0.4858090000000 1.0
C      1  0.5140650000000  0.4652110000000  0.4388240000000 1.0
C      1  0.5615170000000  0.4645010000000  0.5141960000000 1.0
C      1  0.4859330000000  0.4652140000000  0.5611800000000 1.0
C      1  0.5188400000000  0.4298680000000  0.4907660000000 1.0
C      1  0.4890680000000  0.4262320000000  0.4777090000000 1.0
C      1  0.4811600000000  0.4298580000000  0.5092310000000 1.0
C      1  0.5109360000000  0.4262320000000  0.5222870000000 1.0
C      1  0.5187680000000  0.5718590000000  0.5093820000000 1.0
C      1  0.4888970000000  0.5752780000000  0.5222070000000 1.0
C      1  0.4812320000000  0.5718580000000  0.4906170000000 1.0
C      1  0.5111030000000  0.5752790000000  0.4777910000000 1.0
C      1  0.4843740000000  0.5458250000000  0.5516280000000 1.0
C      1  0.5519060000000  0.5467780000000  0.5154140000000 1.0
C      1  0.5156270000000  0.5458220000000  0.4483750000000 1.0
C      1  0.4480930000000  0.5467790000000  0.4845850000000 1.0
C      1  0.4843970000000  0.4559330000000  0.4485610000000 1.0
C      1  0.5520520000000  0.4547930000000  0.4844740000000 1.0
C      1  0.5155980000000  0.4559320000000  0.5514360000000 1.0
C      1  0.4479560000000  0.4547950000000  0.5155300000000 1.0
C      1  0.5506790000000  0.5006560000000  0.4496580000000 1.0
C      1  0.5506300000000  0.5010130000000  0.5502780000000 1.0
C      1  0.4493670000000  0.5010130000000  0.4497170000000 1.0
C      1  0.4493230000000  0.5006590000000  0.5503420000000 1.0
END
