TITL C-3985253-1688-584 0.000194933541043657 125000 -344.177921155107 0 0 60 (C1) n - 1
REM
REM in /home/nfs/bkarasulu/CARBON/AIRSS/Generating-Clusters/TERSOFF/Higher-Symm/Only-C60
REM
REM
REM
REM
REM
REM ./C.cell (28575a23ae977d3b5fae324c64b13b57)
REM
REM compiler GCC version 9.2.1 20190827 (Red Hat 9.2.1-1)
REM options -cpp -mtune=generic -march=x86-64 -g -O0 -fpre-include=/usr/include/finclude/math-vector-fortran.h
REM seed -604221675 320641164 1544834665 -2047248288 -1578777309 -1192843943 -362480359 -1306294230 -438935799 -1365643281 -2059115800 -46667017 -1483736314 -1253945017 277337824 -1163249708 -1602223493 1546893145 -1827970673 -829826422 393819284 1987895185 1953043652 467339067 -1818178411 1187136518 -1328734499 1077704092 -1289773504 -989815704 745169132 1982061215 -477054786
REM
CELL 1.54180   50.00000   50.00000   50.00000   90.00000   90.00000   90.00000
LATT -1
SFAC C  
C      1  0.5469640000000  0.4798160000000  0.5341970000000 1.0
C      1  0.5227030000000  0.4862420000000  0.5501390000000 1.0
C      1  0.4660470000000  0.4949660000000  0.5681830000000 1.0
C      1  0.4379180000000  0.4971980000000  0.5515730000000 1.0
C      1  0.4428300000000  0.4844130000000  0.4940240000000 1.0
C      1  0.4407090000000  0.4777700000000  0.4656570000000 1.0
C      1  0.4562050000000  0.4950730000000  0.4422400000000 1.0
C      1  0.4897300000000  0.4926070000000  0.4299990000000 1.0
C      1  0.5379360000000  0.4875240000000  0.4603540000000 1.0
C      1  0.5538150000000  0.4791110000000  0.4836090000000 1.0
C      1  0.5517910000000  0.4951270000000  0.5088790000000 1.0
C      1  0.5437630000000  0.4293290000000  0.4832200000000 1.0
C      1  0.5324810000000  0.4183940000000  0.5083110000000 1.0
C      1  0.5364290000000  0.4313280000000  0.5345090000000 1.0
C      1  0.5143840000000  0.4348500000000  0.5534800000000 1.0
C      1  0.4831290000000  0.4321940000000  0.5480590000000 1.0
C      1  0.4716960000000  0.4209690000000  0.5238910000000 1.0
C      1  0.4564750000000  0.4363920000000  0.5045430000000 1.0
C      1  0.4584260000000  0.4306590000000  0.4758410000000 1.0
C      1  0.4819900000000  0.4178000000000  0.4652710000000 1.0
C      1  0.5036450000000  0.4318500000000  0.4516520000000 1.0
C      1  0.5309530000000  0.4245560000000  0.4578000000000 1.0
C      1  0.5433810000000  0.5236080000000  0.5077350000000 1.0
C      1  0.5276330000000  0.5317940000000  0.5314980000000 1.0
C      1  0.5111270000000  0.5130130000000  0.5469270000000 1.0
C      1  0.4818230000000  0.5172810000000  0.5517970000000 1.0
C      1  0.4528640000000  0.5169580000000  0.5316650000000 1.0
C      1  0.4511630000000  0.5113860000000  0.5023190000000 1.0
C      1  0.4692030000000  0.5262440000000  0.4848560000000 1.0
C      1  0.4722260000000  0.5199100000000  0.4566320000000 1.0
C      1  0.5016700000000  0.5175760000000  0.4447760000000 1.0
C      1  0.5259950000000  0.5140830000000  0.4607320000000 1.0
C      1  0.5347460000000  0.5336870000000  0.4811210000000 1.0
C      1  0.5069150000000  0.4641210000000  0.5613290000000 1.0
C      1  0.4734130000000  0.4627120000000  0.5604890000000 1.0
C      1  0.4464960000000  0.4687090000000  0.5419260000000 1.0
C      1  0.4458010000000  0.4622750000000  0.5134350000000 1.0
C      1  0.4456300000000  0.4486840000000  0.4573670000000 1.0
C      1  0.4633420000000  0.4605030000000  0.4347940000000 1.0
C      1  0.4982500000000  0.4590950000000  0.4358560000000 1.0
C      1  0.5287770000000  0.4682500000000  0.4400280000000 1.0
C      1  0.5637170000000  0.4511020000000  0.4865350000000 1.0
C      1  0.5768720000000  0.4480540000000  0.5126970000000 1.0
C      1  0.5576680000000  0.4521010000000  0.5345370000000 1.0
C      1  0.5325500000000  0.5623190000000  0.4762510000000 1.0
C      1  0.5447760000000  0.5810190000000  0.4948790000000 1.0
C      1  0.5471800000000  0.5767150000000  0.5234730000000 1.0
C      1  0.5273750000000  0.5845580000000  0.5430750000000 1.0
C      1  0.5020150000000  0.5711840000000  0.5472010000000 1.0
C      1  0.4764730000000  0.5808190000000  0.5375330000000 1.0
C      1  0.4581910000000  0.5655090000000  0.5211070000000 1.0
C      1  0.4520470000000  0.5713600000000  0.4934090000000 1.0
C      1  0.4699260000000  0.5848020000000  0.4750070000000 1.0
C      1  0.4864690000000  0.5714920000000  0.4553090000000 1.0
C      1  0.5154480000000  0.5721800000000  0.4548990000000 1.0
C      1  0.5062660000000  0.5040580000000  0.5062010000000 1.0
C      1  0.4940430000000  0.5293560000000  0.4983660000000 1.0
C      1  0.5083000000000  0.4528170000000  0.5067560000000 1.0
C      1  0.4962880000000  0.4779180000000  0.4988280000000 1.0
C      1  0.5039310000000  0.5554970000000  0.5062180000000 1.0
END
