TITL C-3985254-1270-1313 -0.000617502915918391 125000 -301.517781875192 0 0 60 (C1) n - 1
REM
REM in /home/nfs/bkarasulu/CARBON/AIRSS/Generating-Clusters/TERSOFF/Higher-Symm/Only-C60
REM
REM
REM
REM
REM
REM ./C.cell (28575a23ae977d3b5fae324c64b13b57)
REM
REM compiler GCC version 9.2.1 20190827 (Red Hat 9.2.1-1)
REM options -cpp -mtune=generic -march=x86-64 -g -O0 -fpre-include=/usr/include/finclude/math-vector-fortran.h
REM seed 98092735 784368800 -1634338546 -1498907019 1904910894 -1909117642 -63820186 225362104 -797013444 -1148462457 -1598563097 -862857942 -937550905 -1887032027 -1056342470 -1794557433 -391845014 -1553304461 434604417 1698785514 1848707159 -1383215382 -959163901 128212164 -1978750135 690070027 -1207942929 -650387266 1333114921 487104782 208052413 391162303 -2107188814
REM
CELL 1.54180   50.00000   50.00000   50.00000   90.00000   90.00000   90.00000
LATT -1
SFAC C  
C      1  0.4736470000000  0.4586530000000  0.5173020000000 1.0
C      1  0.5290640000000  0.4586360000000  0.5173280000000 1.0
C      1  0.5541390000000  0.4809790000000  0.4757090000000 1.0
C      1  0.4485750000000  0.4810180000000  0.4757200000000 1.0
C      1  0.4783180000000  0.4309330000000  0.5028320000000 1.0
C      1  0.5243880000000  0.4309170000000  0.5028590000000 1.0
C      1  0.5275490000000  0.4837680000000  0.5414800000000 1.0
C      1  0.4751410000000  0.4837560000000  0.5414980000000 1.0
C      1  0.5161430000000  0.5325170000000  0.5386270000000 1.0
C      1  0.4865570000000  0.5325260000000  0.5386350000000 1.0
C      1  0.5556660000000  0.5218320000000  0.5478370000000 1.0
C      1  0.4470340000000  0.5218330000000  0.5478440000000 1.0
C      1  0.4759520000000  0.5595890000000  0.5264520000000 1.0
C      1  0.5267390000000  0.5595900000000  0.5264410000000 1.0
C      1  0.4761030000000  0.5311320000000  0.4283700000000 1.0
C      1  0.5265610000000  0.5311470000000  0.4283660000000 1.0
C      1  0.5663420000000  0.4996050000000  0.5012470000000 1.0
C      1  0.4363500000000  0.4996070000000  0.5012440000000 1.0
C      1  0.4476270000000  0.5448800000000  0.5270380000000 1.0
C      1  0.5550390000000  0.5448630000000  0.5270180000000 1.0
C      1  0.5420260000000  0.4537560000000  0.4625060000000 1.0
C      1  0.4606300000000  0.4537600000000  0.4625190000000 1.0
C      1  0.5264370000000  0.4992790000000  0.4357510000000 1.0
C      1  0.4762960000000  0.4992320000000  0.4357150000000 1.0
C      1  0.4504840000000  0.5438780000000  0.4742020000000 1.0
C      1  0.5521920000000  0.5438920000000  0.4741870000000 1.0
C      1  0.4834900000000  0.4374560000000  0.4739430000000 1.0
C      1  0.5192160000000  0.4374530000000  0.4739790000000 1.0
C      1  0.4416770000000  0.4924630000000  0.5321590000000 1.0
C      1  0.5609890000000  0.4924640000000  0.5321600000000 1.0
C      1  0.4430660000000  0.4600430000000  0.5287310000000 1.0
C      1  0.5596350000000  0.4600370000000  0.5287660000000 1.0
C      1  0.5165560000000  0.4937850000000  0.5681940000000 1.0
C      1  0.4861350000000  0.4937920000000  0.5681980000000 1.0
C      1  0.5585520000000  0.5301060000000  0.4996340000000 1.0
C      1  0.4441400000000  0.5301060000000  0.4996550000000 1.0
C      1  0.4804070000000  0.5459610000000  0.4761460000000 1.0
C      1  0.5222600000000  0.5459850000000  0.4761270000000 1.0
C      1  0.5291620000000  0.5146760000000  0.5136020000000 1.0
C      1  0.4735070000000  0.5146900000000  0.5136360000000 1.0
C      1  0.5534750000000  0.4971250000000  0.4502770000000 1.0
C      1  0.4492800000000  0.4971600000000  0.4502710000000 1.0
C      1  0.4738890000000  0.5228680000000  0.5677550000000 1.0
C      1  0.5288070000000  0.5228660000000  0.5677520000000 1.0
C      1  0.5159860000000  0.5145880000000  0.4740200000000 1.0
C      1  0.4868060000000  0.5146280000000  0.4740340000000 1.0
C      1  0.5275150000000  0.4852390000000  0.4926050000000 1.0
C      1  0.4751850000000  0.4852680000000  0.4925970000000 1.0
C      1  0.4477620000000  0.5288530000000  0.4484870000000 1.0
C      1  0.5548970000000  0.5288350000000  0.4484860000000 1.0
C      1  0.5013280000000  0.5481510000000  0.4478310000000 1.0
C      1  0.5013500000000  0.4522960000000  0.5324400000000 1.0
C      1  0.5013360000000  0.4866670000000  0.4462880000000 1.0
C      1  0.5013710000000  0.4753240000000  0.4753070000000 1.0
C      1  0.5013370000000  0.5608210000000  0.5015710000000 1.0
C      1  0.5013280000000  0.5318720000000  0.4091430000000 1.0
C      1  0.5013310000000  0.4415900000000  0.5594370000000 1.0
C      1  0.5013400000000  0.4149430000000  0.5131510000000 1.0
C      1  0.5013540000000  0.4961540000000  0.5233970000000 1.0
C      1  0.5013450000000  0.5350040000000  0.5787690000000 1.0
END
