TITL C-3985247-764-393 8.62395193488672e-08 125000 -355.883464511672 0 0 60 (D2) n - 1
REM
REM in /home/nfs/bkarasulu/CARBON/AIRSS/Generating-Clusters/TERSOFF/Higher-Symm/Only-C60
REM
REM
REM
REM
REM
REM ./C.cell (28575a23ae977d3b5fae324c64b13b57)
REM
REM compiler GCC version 9.2.1 20190827 (Red Hat 9.2.1-1)
REM options -cpp -mtune=generic -march=x86-64 -g -O0 -fpre-include=/usr/include/finclude/math-vector-fortran.h
REM seed 1962661309 1794127338 -361435693 109707530 1660734486 2088690237 1608645990 35110376 1753512403 -1715565272 645143490 -580785263 -382144992 -867460690 -1472812520 -671893412 629201101 1264728531 -1661944463 -1875372585 -1087250309 1784955118 -154288271 1019593175 451905377 -1490846941 -285477074 1021903109 -1540574059 -243662887 -77713632 -1090514137 -634107213
REM
CELL 1.54180   50.00000   50.00000   50.00000   90.00000   90.00000   90.00000
LATT -1
SFAC C  
C      1  0.5683360000000  0.5273320000000  0.5260350000000 1.0
C      1  0.4316640000000  0.4726680000000  0.5260350000000 1.0
C      1  0.5683360000000  0.4726680000000  0.4739650000000 1.0
C      1  0.4316640000000  0.5273320000000  0.4739650000000 1.0
C      1  0.4987830000000  0.5704050000000  0.5332600000000 1.0
C      1  0.5012170000000  0.4295950000000  0.5332600000000 1.0
C      1  0.4987830000000  0.4295950000000  0.4667400000000 1.0
C      1  0.5012170000000  0.5704050000000  0.4667400000000 1.0
C      1  0.4483030000000  0.5512350000000  0.5345090000000 1.0
C      1  0.5516970000000  0.4487650000000  0.5345090000000 1.0
C      1  0.4483030000000  0.4487650000000  0.4654910000000 1.0
C      1  0.5516970000000  0.5512350000000  0.4654910000000 1.0
C      1  0.5524220000000  0.4487140000000  0.4669240000000 1.0
C      1  0.4475780000000  0.5512860000000  0.4669240000000 1.0
C      1  0.5524220000000  0.5512860000000  0.5330760000000 1.0
C      1  0.4475780000000  0.4487140000000  0.5330760000000 1.0
C      1  0.4773690000000  0.5499300000000  0.4683330000000 1.0
C      1  0.5226310000000  0.4500700000000  0.4683330000000 1.0
C      1  0.4773690000000  0.4500700000000  0.5316670000000 1.0
C      1  0.5226310000000  0.5499300000000  0.5316670000000 1.0
C      1  0.5269420000000  0.5624130000000  0.4816490000000 1.0
C      1  0.4730580000000  0.4375870000000  0.4816490000000 1.0
C      1  0.5269420000000  0.4375870000000  0.5183510000000 1.0
C      1  0.4730580000000  0.5624130000000  0.5183510000000 1.0
C      1  0.4867310000000  0.5264210000000  0.4529390000000 1.0
C      1  0.5132690000000  0.4735790000000  0.4529390000000 1.0
C      1  0.4867310000000  0.4735790000000  0.5470610000000 1.0
C      1  0.5132690000000  0.5264210000000  0.5470610000000 1.0
C      1  0.5156440000000  0.5213110000000  0.4562780000000 1.0
C      1  0.4843560000000  0.4786890000000  0.4562780000000 1.0
C      1  0.5156440000000  0.4786890000000  0.5437220000000 1.0
C      1  0.4843560000000  0.5213110000000  0.5437220000000 1.0
C      1  0.4334700000000  0.5256490000000  0.5252900000000 1.0
C      1  0.5665300000000  0.4743510000000  0.5252900000000 1.0
C      1  0.4334700000000  0.4743510000000  0.4747100000000 1.0
C      1  0.5665300000000  0.5256490000000  0.4747100000000 1.0
C      1  0.5157540000000  0.5430310000000  0.5024190000000 1.0
C      1  0.4842460000000  0.4569690000000  0.5024190000000 1.0
C      1  0.5157540000000  0.4569690000000  0.4975810000000 1.0
C      1  0.4842460000000  0.5430310000000  0.4975810000000 1.0
C      1  0.4423680000000  0.5019410000000  0.4630970000000 1.0
C      1  0.5576320000000  0.4980590000000  0.4630970000000 1.0
C      1  0.4423680000000  0.4980590000000  0.5369030000000 1.0
C      1  0.5576320000000  0.5019410000000  0.5369030000000 1.0
C      1  0.4696550000000  0.4965720000000  0.5493460000000 1.0
C      1  0.5303450000000  0.5034280000000  0.5493460000000 1.0
C      1  0.4696550000000  0.5034280000000  0.4506540000000 1.0
C      1  0.5303450000000  0.4965720000000  0.4506540000000 1.0
C      1  0.5326030000000  0.5424790000000  0.4450470000000 1.0
C      1  0.4673970000000  0.4575210000000  0.4450470000000 1.0
C      1  0.5326030000000  0.4575210000000  0.5549530000000 1.0
C      1  0.4673970000000  0.5424790000000  0.5549530000000 1.0
C      1  0.4786560000000  0.4854970000000  0.4911940000000 1.0
C      1  0.5213440000000  0.5145030000000  0.4911940000000 1.0
C      1  0.4786560000000  0.5145030000000  0.5088060000000 1.0
C      1  0.5213440000000  0.4854970000000  0.5088060000000 1.0
C      1  0.5811110000000  0.4734790000000  0.5000790000000 1.0
C      1  0.4188890000000  0.5265210000000  0.5000790000000 1.0
C      1  0.5811110000000  0.5265210000000  0.4999210000000 1.0
C      1  0.4188890000000  0.4734790000000  0.4999210000000 1.0
END
