TITL C-3985245-9316-891 3.19364113412208e-07 125000 -336.906162139402 0 0 60 (C5) n - 1
REM
REM in /home/nfs/bkarasulu/CARBON/AIRSS/Generating-Clusters/TERSOFF/Higher-Symm/Only-C60
REM
REM
REM
REM
REM
REM ./C.cell (28575a23ae977d3b5fae324c64b13b57)
REM
REM compiler GCC version 9.2.1 20190827 (Red Hat 9.2.1-1)
REM options -cpp -mtune=generic -march=x86-64 -g -O0 -fpre-include=/usr/include/finclude/math-vector-fortran.h
REM seed -1082935039 -1450144841 -1257983583 -728232835 -1135172587 851473865 1611937775 -756022238 -266400945 -220441068 679871482 -1236768222 906189218 1801512229 760968675 -100761414 89355748 -869239579 541207380 105027495 -1426733190 -407838143 -1362820696 -834353802 15472724 -468461242 -1813749149 -388882804 -2066285020 1461167338 926920283 572216136 2119245785
REM
CELL 1.54180   50.00000   50.00000   50.00000   90.00000   90.00000   90.00000
LATT -1
SFAC C  
C      1  0.5754460000000  0.5140750000000  0.4930180000000 1.0
C      1  0.5299540000000  0.5140750000000  0.5695960000000 1.0
C      1  0.4430660000000  0.5140750000000  0.5499950000000 1.0
C      1  0.4348590000000  0.5140750000000  0.4613020000000 1.0
C      1  0.5166740000000  0.5140750000000  0.4260890000000 1.0
C      1  0.5376040000000  0.5426390000000  0.4675820000000 1.0
C      1  0.5424520000000  0.5426390000000  0.5257460000000 1.0
C      1  0.4886330000000  0.5426390000000  0.5483300000000 1.0
C      1  0.4505230000000  0.5426390000000  0.5041240000000 1.0
C      1  0.4807880000000  0.5426390000000  0.4542190000000 1.0
C      1  0.4686430000000  0.4647580000000  0.5280660000000 1.0
C      1  0.4636180000000  0.4647580000000  0.4788510000000 1.0
C      1  0.5088710000000  0.4647580000000  0.4588630000000 1.0
C      1  0.5418650000000  0.4647580000000  0.4957250000000 1.0
C      1  0.5170030000000  0.4647580000000  0.5384950000000 1.0
C      1  0.4903110000000  0.5610820000000  0.4768120000000 1.0
C      1  0.5190590000000  0.5610810000000  0.4836190000000 1.0
C      1  0.5214690000000  0.5610810000000  0.5130640000000 1.0
C      1  0.4942100000000  0.5610810000000  0.5244550000000 1.0
C      1  0.4749530000000  0.5610810000000  0.5020500000000 1.0
C      1  0.5059660000000  0.4988250000000  0.5722850000000 1.0
C      1  0.4330960000000  0.4988250000000  0.5280110000000 1.0
C      1  0.4526860000000  0.4988250000000  0.4450270000000 1.0
C      1  0.5376620000000  0.4988250000000  0.4380140000000 1.0
C      1  0.5705910000000  0.4988250000000  0.5166640000000 1.0
C      1  0.4597050000000  0.4984760000000  0.5695720000000 1.0
C      1  0.4213810000000  0.4984760000000  0.4831760000000 1.0
C      1  0.4917060000000  0.4984770000000  0.4200300000000 1.0
C      1  0.5734930000000  0.4984760000000  0.4674000000000 1.0
C      1  0.5537150000000  0.4984760000000  0.5598220000000 1.0
C      1  0.4779370000000  0.4403560000000  0.4873820000000 1.0
C      1  0.5051820000000  0.4403560000000  0.4751180000000 1.0
C      1  0.5252660000000  0.4403560000000  0.4972400000000 1.0
C      1  0.5104330000000  0.4403560000000  0.5231760000000 1.0
C      1  0.4811820000000  0.4403560000000  0.5170840000000 1.0
C      1  0.4878820000000  0.4925800000000  0.5266420000000 1.0
C      1  0.4709170000000  0.4925800000000  0.4967080000000 1.0
C      1  0.4941440000000  0.4925800000000  0.4713230000000 1.0
C      1  0.5254640000000  0.4925800000000  0.4855690000000 1.0
C      1  0.5215930000000  0.4925800000000  0.5197580000000 1.0
C      1  0.5348440000000  0.4693000000000  0.4442680000000 1.0
C      1  0.5637710000000  0.4693000000000  0.5159160000000 1.0
C      1  0.5045690000000  0.4693000000000  0.5655680000000 1.0
C      1  0.4390520000000  0.4693000000000  0.5246070000000 1.0
C      1  0.4577640000000  0.4693000000000  0.4496390000000 1.0
C      1  0.4807700000000  0.5100850000000  0.4475110000000 1.0
C      1  0.5439780000000  0.5100840000000  0.4654920000000 1.0
C      1  0.5464090000000  0.5100840000000  0.5311610000000 1.0
C      1  0.4847050000000  0.5100840000000  0.5537670000000 1.0
C      1  0.4441380000000  0.5100840000000  0.5020690000000 1.0
C      1  0.5566850000000  0.5374680000000  0.4946860000000 1.0
C      1  0.5225700000000  0.5374680000000  0.5522690000000 1.0
C      1  0.4572640000000  0.5374680000000  0.5376180000000 1.0
C      1  0.4510180000000  0.5374690000000  0.4709810000000 1.0
C      1  0.5124630000000  0.5374690000000  0.4444470000000 1.0
C      1  0.5578600000000  0.4703570000000  0.5464160000000 1.0
C      1  0.4737360000000  0.4703570000000  0.5693710000000 1.0
C      1  0.4259080000000  0.4703570000000  0.4964580000000 1.0
C      1  0.4804730000000  0.4703570000000  0.4284390000000 1.0
C      1  0.5620240000000  0.4703570000000  0.4593150000000 1.0
END
