TITL C-3985245-9316-236 -1.02272618145922e-07 125000 -330.326759759746 0 0 60 (D4) n - 1
REM
REM in /home/nfs/bkarasulu/CARBON/AIRSS/Generating-Clusters/TERSOFF/Higher-Symm/Only-C60
REM
REM
REM
REM
REM
REM ./C.cell (28575a23ae977d3b5fae324c64b13b57)
REM
REM compiler GCC version 9.2.1 20190827 (Red Hat 9.2.1-1)
REM options -cpp -mtune=generic -march=x86-64 -g -O0 -fpre-include=/usr/include/finclude/math-vector-fortran.h
REM seed 487152302 422804189 1022762339 490983767 19674017 -1838520581 1568294709 -1876373760 169056636 -403938234 1258274218 460145140 -176133091 549630587 1129186186 1742587947 311912525 575911565 1164170981 -1110761295 623415121 -1942729038 -678242206 992129414 -1744509331 1071064575 -473107877 24936016 399206101 1271438278 -1759246352 -1062826718 677499404
REM
CELL 1.54180   50.00000   50.00000   50.00000   90.00000   90.00000   90.00000
LATT -1
SFAC C  
C      1  0.5354700000000  0.4935810000000  0.5212580000000 1.0
C      1  0.5354700000000  0.4787420000000  0.4935810000000 1.0
C      1  0.5354700000000  0.5064190000000  0.4787420000000 1.0
C      1  0.5354700000000  0.5212580000000  0.5064190000000 1.0
C      1  0.4678260000000  0.5064190000000  0.5212580000000 1.0
C      1  0.4678260000000  0.5212580000000  0.4935810000000 1.0
C      1  0.4678260000000  0.4935810000000  0.4787420000000 1.0
C      1  0.4678260000000  0.4787420000000  0.5064190000000 1.0
C      1  0.5821980000000  0.5060290000000  0.4778970000000 1.0
C      1  0.5821980000000  0.5221030000000  0.5060290000000 1.0
C      1  0.5821980000000  0.4939710000000  0.5221030000000 1.0
C      1  0.5821980000000  0.4778970000000  0.4939710000000 1.0
C      1  0.4210990000000  0.4939710000000  0.4778970000000 1.0
C      1  0.4210990000000  0.4778970000000  0.5060290000000 1.0
C      1  0.4210990000000  0.5060290000000  0.5221030000000 1.0
C      1  0.4210990000000  0.5221030000000  0.4939710000000 1.0
C      1  0.4494450000000  0.4522130000000  0.5415860000000 1.0
C      1  0.4494450000000  0.4584140000000  0.4522130000000 1.0
C      1  0.4494450000000  0.5477870000000  0.4584140000000 1.0
C      1  0.4494450000000  0.5415860000000  0.5477870000000 1.0
C      1  0.5538520000000  0.5477870000000  0.5415860000000 1.0
C      1  0.5538520000000  0.5415860000000  0.4522130000000 1.0
C      1  0.5538520000000  0.4522130000000  0.4584140000000 1.0
C      1  0.5538520000000  0.4584140000000  0.5477870000000 1.0
C      1  0.4907770000000  0.4578750000000  0.5101360000000 1.0
C      1  0.4907770000000  0.4898640000000  0.4578750000000 1.0
C      1  0.4907770000000  0.5421250000000  0.4898640000000 1.0
C      1  0.4907770000000  0.5101360000000  0.5421250000000 1.0
C      1  0.5125200000000  0.5421250000000  0.5101360000000 1.0
C      1  0.5125200000000  0.5101360000000  0.4578750000000 1.0
C      1  0.5125200000000  0.4578750000000  0.4898640000000 1.0
C      1  0.5125200000000  0.4898640000000  0.5421250000000 1.0
C      1  0.5359790000000  0.4384960000000  0.5052630000000 1.0
C      1  0.5359790000000  0.4947370000000  0.4384960000000 1.0
C      1  0.5359790000000  0.5615040000000  0.4947370000000 1.0
C      1  0.5359790000000  0.5052630000000  0.5615040000000 1.0
C      1  0.4673180000000  0.5615040000000  0.5052640000000 1.0
C      1  0.4673180000000  0.5052640000000  0.4384960000000 1.0
C      1  0.4673180000000  0.4384960000000  0.4947360000000 1.0
C      1  0.4673180000000  0.4947360000000  0.5615040000000 1.0
C      1  0.4436630000000  0.5418760000000  0.4873880000000 1.0
C      1  0.4436630000000  0.5126120000000  0.5418760000000 1.0
C      1  0.4436630000000  0.4581240000000  0.5126120000000 1.0
C      1  0.4436630000000  0.4873880000000  0.4581240000000 1.0
C      1  0.5596340000000  0.4581250000000  0.4873880000000 1.0
C      1  0.5596340000000  0.4873880000000  0.5418750000000 1.0
C      1  0.5596340000000  0.5418750000000  0.5126120000000 1.0
C      1  0.5596340000000  0.5126120000000  0.4581250000000 1.0
C      1  0.5309550000000  0.4450120000000  0.5350590000000 1.0
C      1  0.5309550000000  0.4649410000000  0.4450120000000 1.0
C      1  0.5309550000000  0.5549880000000  0.4649410000000 1.0
C      1  0.5309550000000  0.5350590000000  0.5549880000000 1.0
C      1  0.4723410000000  0.5549880000000  0.5350590000000 1.0
C      1  0.4723410000000  0.5350590000000  0.4450120000000 1.0
C      1  0.4723410000000  0.4450120000000  0.4649410000000 1.0
C      1  0.4723410000000  0.4649410000000  0.5549880000000 1.0
C      1  0.5016480000000  0.5400900000000  0.4599100000000 1.0
C      1  0.5016480000000  0.4599100000000  0.5400900000000 1.0
C      1  0.5016480000000  0.4599100000000  0.4599100000000 1.0
C      1  0.5016480000000  0.5400900000000  0.5400900000000 1.0
END
