TITL C-3985254-1270-2111 8.77729018291177e-05 125000 -328.692882454367 0 0 60 (C1) n - 1
REM
REM in /home/nfs/bkarasulu/CARBON/AIRSS/Generating-Clusters/TERSOFF/Higher-Symm/Only-C60
REM
REM
REM
REM
REM
REM ./C.cell (28575a23ae977d3b5fae324c64b13b57)
REM
REM compiler GCC version 9.2.1 20190827 (Red Hat 9.2.1-1)
REM options -cpp -mtune=generic -march=x86-64 -g -O0 -fpre-include=/usr/include/finclude/math-vector-fortran.h
REM seed -24802946 -434415107 -1295972887 1004421477 -1488239321 1414976132 968390906 436925225 -1494851674 -1777243996 -570158415 225789187 710719448 -1306342447 -1743220606 2086348573 -92238443 -120724718 200094259 -1600337633 -300045160 244408771 -1995400991 -2129570536 -1274691501 -1468541769 1173919663 275960660 -1554879704 -1555702999 558303494 -530163031 1511953524
REM
CELL 1.54180   50.00000   50.00000   50.00000   90.00000   90.00000   90.00000
LATT -1
SFAC C  
C      1  0.5767360000000  0.4899920000000  0.4966630000000 1.0
C      1  0.4841300000000  0.5324700000000  0.4361380000000 1.0
C      1  0.5193010000000  0.4932260000000  0.4735480000000 1.0
C      1  0.5051060000000  0.5662690000000  0.4674550000000 1.0
C      1  0.4408470000000  0.4972290000000  0.5477570000000 1.0
C      1  0.4908390000000  0.4663090000000  0.5624310000000 1.0
C      1  0.4895330000000  0.5707820000000  0.5199340000000 1.0
C      1  0.4696620000000  0.5477480000000  0.5276670000000 1.0
C      1  0.4567970000000  0.4805780000000  0.5266120000000 1.0
C      1  0.5571650000000  0.4575620000000  0.5272920000000 1.0
C      1  0.5540320000000  0.4831130000000  0.4485950000000 1.0
C      1  0.4639540000000  0.5104270000000  0.4354870000000 1.0
C      1  0.5136040000000  0.4331990000000  0.5156970000000 1.0
C      1  0.5113150000000  0.5677550000000  0.4991460000000 1.0
C      1  0.5436800000000  0.5295330000000  0.5320040000000 1.0
C      1  0.4952310000000  0.5204190000000  0.4945910000000 1.0
C      1  0.5564460000000  0.5030880000000  0.5453260000000 1.0
C      1  0.4232450000000  0.5040150000000  0.4893660000000 1.0
C      1  0.4828870000000  0.4451040000000  0.4666020000000 1.0
C      1  0.4656550000000  0.4636360000000  0.4515090000000 1.0
C      1  0.5151980000000  0.5346890000000  0.5408190000000 1.0
C      1  0.4872510000000  0.4977520000000  0.5654040000000 1.0
C      1  0.5703610000000  0.4835620000000  0.5257920000000 1.0
C      1  0.5137300000000  0.5075290000000  0.5753270000000 1.0
C      1  0.5366150000000  0.4906720000000  0.5656310000000 1.0
C      1  0.4539050000000  0.5454190000000  0.5022210000000 1.0
C      1  0.5217570000000  0.4249750000000  0.4859570000000 1.0
C      1  0.4733180000000  0.5368610000000  0.4823600000000 1.0
C      1  0.5163550000000  0.5213300000000  0.4320450000000 1.0
C      1  0.5799560000000  0.5169650000000  0.4866890000000 1.0
C      1  0.5255290000000  0.4706930000000  0.4480050000000 1.0
C      1  0.4848550000000  0.4341190000000  0.5232020000000 1.0
C      1  0.4982910000000  0.4597800000000  0.4872250000000 1.0
C      1  0.5233030000000  0.4401730000000  0.4566500000000 1.0
C      1  0.4599700000000  0.5113350000000  0.5683920000000 1.0
C      1  0.4773000000000  0.4839710000000  0.4313500000000 1.0
C      1  0.4602160000000  0.4851980000000  0.4733350000000 1.0
C      1  0.4799110000000  0.5519680000000  0.4584170000000 1.0
C      1  0.5587970000000  0.5275130000000  0.4696820000000 1.0
C      1  0.5143870000000  0.4851940000000  0.5208290000000 1.0
C      1  0.4734860000000  0.4558330000000  0.5398220000000 1.0
C      1  0.5493460000000  0.5128040000000  0.4441850000000 1.0
C      1  0.4032080000000  0.4999960000000  0.5166120000000 1.0
C      1  0.4916100000000  0.5255910000000  0.5252220000000 1.0
C      1  0.5068720000000  0.4889040000000  0.4310050000000 1.0
C      1  0.4431820000000  0.5090230000000  0.4597090000000 1.0
C      1  0.4868910000000  0.4958800000000  0.5329140000000 1.0
C      1  0.5347760000000  0.5482620000000  0.5044040000000 1.0
C      1  0.5608660000000  0.4734320000000  0.4775720000000 1.0
C      1  0.4294930000000  0.5308410000000  0.5059160000000 1.0
C      1  0.5326930000000  0.5068760000000  0.5109410000000 1.0
C      1  0.4884360000000  0.4904310000000  0.4854760000000 1.0
C      1  0.4441250000000  0.4802470000000  0.4990850000000 1.0
C      1  0.4504760000000  0.5379870000000  0.5502400000000 1.0
C      1  0.5292730000000  0.5238570000000  0.4827200000000 1.0
C      1  0.5329250000000  0.4652770000000  0.4888930000000 1.0
C      1  0.5207280000000  0.5409310000000  0.4582510000000 1.0
C      1  0.5278190000000  0.4561000000000  0.5294380000000 1.0
C      1  0.5211000000000  0.4642600000000  0.5579850000000 1.0
C      1  0.4215250000000  0.5213130000000  0.5364610000000 1.0
END
