TITL C-3985255-5397-11 0.00645008964290063 125000 -312.140722840501 0 0 60 (C1) n - 1
REM
REM in /home/nfs/bkarasulu/CARBON/AIRSS/Generating-Clusters/TERSOFF/Higher-Symm/Only-C60
REM
REM
REM
REM
REM
REM ./C.cell (28575a23ae977d3b5fae324c64b13b57)
REM
REM compiler GCC version 9.2.1 20190827 (Red Hat 9.2.1-1)
REM options -cpp -mtune=generic -march=x86-64 -g -O0 -fpre-include=/usr/include/finclude/math-vector-fortran.h
REM seed 527094480 1129826136 -561713544 -1612918159 567802635 -1931259902 1721243079 828833924 -1768604296 -1790667849 -543680479 826898991 201911166 -949617897 1758208452 1435340126 862485177 -1192126422 -167169139 300383406 -2080191729 1991257243 1340381511 1046156872 -2098787347 -1372460797 -167658171 1678690333 43533266 1045241631 -271936713 118930798 -1150956562
REM
CELL 1.54180   50.00000   50.00000   50.00000   90.00000   90.00000   90.00000
LATT -1
SFAC C  
C      1  0.5352550000000  0.5241740000000  0.5609540000000 1.0
C      1  0.4951950000000  0.4862120000000  0.5727420000000 1.0
C      1  0.4746050000000  0.4813750000000  0.4465590000000 1.0
C      1  0.4435360000000  0.5165630000000  0.4550940000000 1.0
C      1  0.5528130000000  0.5223080000000  0.5330810000000 1.0
C      1  0.4656300000000  0.5594220000000  0.5358300000000 1.0
C      1  0.4605380000000  0.4861750000000  0.5344360000000 1.0
C      1  0.4392410000000  0.4731230000000  0.5154370000000 1.0
C      1  0.5242970000000  0.4504910000000  0.5438720000000 1.0
C      1  0.4657190000000  0.4825730000000  0.5630420000000 1.0
C      1  0.4916540000000  0.4495570000000  0.4680430000000 1.0
C      1  0.5452110000000  0.5329060000000  0.5058010000000 1.0
C      1  0.4992450000000  0.5191120000000  0.5587130000000 1.0
C      1  0.4901250000000  0.5741400000000  0.5316580000000 1.0
C      1  0.5437370000000  0.5141990000000  0.4563920000000 1.0
C      1  0.5348310000000  0.5117230000000  0.4853360000000 1.0
C      1  0.5331290000000  0.4587950000000  0.5096980000000 1.0
C      1  0.4987170000000  0.4562950000000  0.5586050000000 1.0
C      1  0.4734880000000  0.5183650000000  0.4997530000000 1.0
C      1  0.5284840000000  0.5338310000000  0.4394220000000 1.0
C      1  0.5257070000000  0.4812440000000  0.4901380000000 1.0
C      1  0.4303870000000  0.5243240000000  0.5160110000000 1.0
C      1  0.5318010000000  0.5604600000000  0.5023520000000 1.0
C      1  0.5300080000000  0.4310020000000  0.4935470000000 1.0
C      1  0.4746560000000  0.4886750000000  0.4907230000000 1.0
C      1  0.4272550000000  0.4966800000000  0.5000470000000 1.0
C      1  0.5414330000000  0.5691030000000  0.4731120000000 1.0
C      1  0.5041570000000  0.5236740000000  0.4879620000000 1.0
C      1  0.5205590000000  0.5589480000000  0.4526190000000 1.0
C      1  0.4997470000000  0.4754430000000  0.4794810000000 1.0
C      1  0.5295770000000  0.5538550000000  0.5544670000000 1.0
C      1  0.5188140000000  0.4887830000000  0.4240760000000 1.0
C      1  0.5106550000000  0.5187720000000  0.4197600000000 1.0
C      1  0.5438240000000  0.4665760000000  0.5611360000000 1.0
C      1  0.4589530000000  0.5151260000000  0.5278240000000 1.0
C      1  0.5022690000000  0.5561390000000  0.4809930000000 1.0
C      1  0.5510160000000  0.4634400000000  0.4562760000000 1.0
C      1  0.5225140000000  0.4215790000000  0.5255250000000 1.0
C      1  0.4705800000000  0.5323810000000  0.5490050000000 1.0
C      1  0.5065060000000  0.5266270000000  0.5240640000000 1.0
C      1  0.5624710000000  0.4742380000000  0.5403830000000 1.0
C      1  0.4689410000000  0.5482840000000  0.4864900000000 1.0
C      1  0.5465790000000  0.4945590000000  0.5267300000000 1.0
C      1  0.4674440000000  0.5308670000000  0.4440100000000 1.0
C      1  0.4603070000000  0.4559040000000  0.4676310000000 1.0
C      1  0.4541930000000  0.4520780000000  0.4984400000000 1.0
C      1  0.5073010000000  0.4415310000000  0.4442240000000 1.0
C      1  0.4789330000000  0.4470630000000  0.5157240000000 1.0
C      1  0.5430170000000  0.4881070000000  0.4423960000000 1.0
C      1  0.4455780000000  0.4960720000000  0.4762770000000 1.0
C      1  0.4870680000000  0.4779480000000  0.5193990000000 1.0
C      1  0.5278150000000  0.4912150000000  0.5717340000000 1.0
C      1  0.5324140000000  0.4411980000000  0.4623030000000 1.0
C      1  0.5139040000000  0.4948790000000  0.5279330000000 1.0
C      1  0.4491110000000  0.5522700000000  0.5108840000000 1.0
C      1  0.4978850000000  0.4690080000000  0.4310040000000 1.0
C      1  0.4868680000000  0.5123060000000  0.4583620000000 1.0
C      1  0.4770570000000  0.4425460000000  0.5450850000000 1.0
C      1  0.4824500000000  0.5269780000000  0.4182550000000 1.0
C      1  0.5147930000000  0.5587770000000  0.5291500000000 1.0
END
