TITL C-3985251-913-227 2.46189006414982e-05 125000 -298.721559981542 0 0 60 (D4) n - 1
REM
REM in /home/nfs/bkarasulu/CARBON/AIRSS/Generating-Clusters/TERSOFF/Higher-Symm/Only-C60
REM
REM
REM
REM
REM
REM ./C.cell (28575a23ae977d3b5fae324c64b13b57)
REM
REM compiler GCC version 9.2.1 20190827 (Red Hat 9.2.1-1)
REM options -cpp -mtune=generic -march=x86-64 -g -O0 -fpre-include=/usr/include/finclude/math-vector-fortran.h
REM seed -1042518810 1791424580 -929274522 767653986 -721695433 557799801 -314883717 -907074297 1453839274 -2135239097 874349523 -294511781 -817963974 -1958655072 -1487978452 1541335585 -632118714 1458906068 380858764 2077462608 -1684385161 -840426043 -366258988 1547768853 1823015540 957990031 90667137 618823148 853212168 -227161268 131192575 -414789577 -1097242668
REM
CELL 1.54180   50.00000   50.00000   50.00000   90.00000   90.00000   90.00000
LATT -1
SFAC C  
C      1  0.4810350000000  0.5787680000000  0.4828460000000 1.0
C      1  0.4828470000000  0.5787680000000  0.5189640000000 1.0
C      1  0.5189650000000  0.5787690000000  0.5171540000000 1.0
C      1  0.5171530000000  0.5787680000000  0.4810360000000 1.0
C      1  0.4810230000000  0.4187270000000  0.5171390000000 1.0
C      1  0.4828610000000  0.4187260000000  0.4810220000000 1.0
C      1  0.5189780000000  0.4187270000000  0.4828610000000 1.0
C      1  0.5171390000000  0.4187260000000  0.5189780000000 1.0
C      1  0.4825310000000  0.4627660000000  0.4503660000000 1.0
C      1  0.4503650000000  0.4627650000000  0.5174690000000 1.0
C      1  0.5174690000000  0.4627650000000  0.5496340000000 1.0
C      1  0.5496340000000  0.4627660000000  0.4825310000000 1.0
C      1  0.4825280000000  0.5347370000000  0.5496520000000 1.0
C      1  0.4503470000000  0.5347370000000  0.4825270000000 1.0
C      1  0.5174720000000  0.5347370000000  0.4503470000000 1.0
C      1  0.5496530000000  0.5347380000000  0.5174730000000 1.0
C      1  0.5225810000000  0.5629440000000  0.5468830000000 1.0
C      1  0.5468830000000  0.5629430000000  0.4774190000000 1.0
C      1  0.4774190000000  0.5629430000000  0.4531170000000 1.0
C      1  0.4531170000000  0.5629430000000  0.5225810000000 1.0
C      1  0.5226110000000  0.4345810000000  0.4531290000000 1.0
C      1  0.5468710000000  0.4345810000000  0.5226110000000 1.0
C      1  0.4773890000000  0.4345800000000  0.5468710000000 1.0
C      1  0.4531290000000  0.4345810000000  0.4773890000000 1.0
C      1  0.4812200000000  0.4811110000000  0.5184060000000 1.0
C      1  0.5184070000000  0.4811100000000  0.5187810000000 1.0
C      1  0.5187800000000  0.4811100000000  0.4815940000000 1.0
C      1  0.4815930000000  0.4811100000000  0.4812190000000 1.0
C      1  0.4812140000000  0.5164110000000  0.4815970000000 1.0
C      1  0.5184030000000  0.5164110000000  0.4812140000000 1.0
C      1  0.5187860000000  0.5164110000000  0.5184030000000 1.0
C      1  0.4815970000000  0.5164100000000  0.5187860000000 1.0
C      1  0.4756380000000  0.4658940000000  0.5506250000000 1.0
C      1  0.5506250000000  0.4658930000000  0.5243620000000 1.0
C      1  0.5243610000000  0.4658940000000  0.4493750000000 1.0
C      1  0.4493750000000  0.4658930000000  0.4756380000000 1.0
C      1  0.4756390000000  0.5316400000000  0.4493830000000 1.0
C      1  0.5506170000000  0.5316390000000  0.4756400000000 1.0
C      1  0.5243610000000  0.5316400000000  0.5506170000000 1.0
C      1  0.4493830000000  0.5316390000000  0.5243610000000 1.0
C      1  0.5448680000000  0.5628810000000  0.5082790000000 1.0
C      1  0.5082790000000  0.5628800000000  0.4551320000000 1.0
C      1  0.4551320000000  0.5628800000000  0.4917210000000 1.0
C      1  0.4917210000000  0.5628800000000  0.5448680000000 1.0
C      1  0.5448550000000  0.4346370000000  0.4917490000000 1.0
C      1  0.5082510000000  0.4346360000000  0.5448550000000 1.0
C      1  0.4551450000000  0.4346370000000  0.5082510000000 1.0
C      1  0.4917490000000  0.4346370000000  0.4551450000000 1.0
C      1  0.5698790000000  0.4737170000000  0.5022080000000 1.0
C      1  0.5022080000000  0.4737170000000  0.4301200000000 1.0
C      1  0.4301210000000  0.4737160000000  0.4977920000000 1.0
C      1  0.4977920000000  0.4737170000000  0.5698800000000 1.0
C      1  0.5698830000000  0.5237960000000  0.4977720000000 1.0
C      1  0.5022290000000  0.5237960000000  0.5698820000000 1.0
C      1  0.4301170000000  0.5237950000000  0.5022290000000 1.0
C      1  0.4977710000000  0.5237950000000  0.4301180000000 1.0
C      1  0.5000250000000  0.4987540000000  0.5830560000000 1.0
C      1  0.4169440000000  0.4987540000000  0.5000250000000 1.0
C      1  0.4999750000000  0.4987540000000  0.4169440000000 1.0
C      1  0.5830560000000  0.4987540000000  0.4999760000000 1.0
END
