TITL C-3985255-5397-157 -7.12875678274249e-08 125000 -362.196860015224 0 0 60 (C5) n - 1
REM
REM in /home/nfs/bkarasulu/CARBON/AIRSS/Generating-Clusters/TERSOFF/Higher-Symm/Only-C60
REM
REM
REM
REM
REM
REM ./C.cell (28575a23ae977d3b5fae324c64b13b57)
REM
REM compiler GCC version 9.2.1 20190827 (Red Hat 9.2.1-1)
REM options -cpp -mtune=generic -march=x86-64 -g -O0 -fpre-include=/usr/include/finclude/math-vector-fortran.h
REM seed 1004056357 1653680780 -942495514 1779972283 402163266 -1090494202 495301956 1186303650 802214675 58343768 2063519991 -155921741 1534286085 -2025415666 2112263495 1341385078 1950350304 859891295 1592871279 1306624152 1662298266 -787240305 860338656 -2066090482 897683725 167509313 2463237 -1934193570 2023496251 1658488353 1627060807 1353758716 1482068460
REM
CELL 1.54180   50.00000   50.00000   50.00000   90.00000   90.00000   90.00000
LATT -1
SFAC C  
C      1  0.4869320000000  0.4376780000000  0.5452280000000 1.0
C      1  0.4869430000000  0.5237560000000  0.5732500000000 1.0
C      1  0.4869440000000  0.5770060000000  0.5000440000000 1.0
C      1  0.4869330000000  0.5238380000000  0.4267790000000 1.0
C      1  0.4869260000000  0.4377290000000  0.4547040000000 1.0
C      1  0.5392650000000  0.5127540000000  0.5474350000000 1.0
C      1  0.5392650000000  0.5490540000000  0.5025230000000 1.0
C      1  0.5392590000000  0.5175580000000  0.4541210000000 1.0
C      1  0.5392540000000  0.4617920000000  0.4691180000000 1.0
C      1  0.5392580000000  0.4588220000000  0.5267890000000 1.0
C      1  0.5378200000000  0.5472150000000  0.4522300000000 1.0
C      1  0.5378110000000  0.4691580000000  0.4403280000000 1.0
C      1  0.5378130000000  0.4337180000000  0.5108870000000 1.0
C      1  0.5378230000000  0.4898720000000  0.5663960000000 1.0
C      1  0.5378270000000  0.5600170000000  0.5301440000000 1.0
C      1  0.4457910000000  0.4668420000000  0.4590450000000 1.0
C      1  0.4457940000000  0.4508040000000  0.5188870000000 1.0
C      1  0.4458020000000  0.5027610000000  0.5526330000000 1.0
C      1  0.4458040000000  0.5509100000000  0.5136470000000 1.0
C      1  0.4457980000000  0.5287110000000  0.4558070000000 1.0
C      1  0.5191930000000  0.5060820000000  0.5252670000000 1.0
C      1  0.5191930000000  0.5259100000000  0.5020210000000 1.0
C      1  0.5191900000000  0.5099280000000  0.4759800000000 1.0
C      1  0.5191870000000  0.4802230000000  0.4831320000000 1.0
C      1  0.5191890000000  0.4778460000000  0.5135930000000 1.0
C      1  0.4836410000000  0.4758070000000  0.4272420000000 1.0
C      1  0.4836410000000  0.4233270000000  0.5005280000000 1.0
C      1  0.4836520000000  0.4768090000000  0.5730850000000 1.0
C      1  0.4836590000000  0.5623420000000  0.5446430000000 1.0
C      1  0.4836520000000  0.5617230000000  0.4545070000000 1.0
C      1  0.4752130000000  0.5332690000000  0.4523310000000 1.0
C      1  0.4752060000000  0.4649450000000  0.4536330000000 1.0
C      1  0.4752090000000  0.4450690000000  0.5190150000000 1.0
C      1  0.4752180000000  0.5011100000000  0.5581220000000 1.0
C      1  0.4752200000000  0.5556200000000  0.5169090000000 1.0
C      1  0.5291760000000  0.4965770000000  0.4330370000000 1.0
C      1  0.5291730000000  0.4352570000000  0.4825580000000 1.0
C      1  0.5291810000000  0.4634050000000  0.5561810000000 1.0
C      1  0.5291890000000  0.5421220000000  0.5521600000000 1.0
C      1  0.5291860000000  0.5626240000000  0.4760530000000 1.0
C      1  0.4339550000000  0.4837290000000  0.4799190000000 1.0
C      1  0.4339570000000  0.4758740000000  0.5092790000000 1.0
C      1  0.4339600000000  0.5013700000000  0.5258220000000 1.0
C      1  0.4339610000000  0.5249820000000  0.5066860000000 1.0
C      1  0.4339580000000  0.5140790000000  0.4783170000000 1.0
C      1  0.5611660000000  0.4784040000000  0.5147060000000 1.0
C      1  0.5611700000000  0.5073130000000  0.5250750000000 1.0
C      1  0.5611700000000  0.5261070000000  0.5007850000000 1.0
C      1  0.5611660000000  0.5088140000000  0.4754040000000 1.0
C      1  0.5611640000000  0.4793320000000  0.4840080000000 1.0
C      1  0.5007760000000  0.5719250000000  0.4754280000000 1.0
C      1  0.5007640000000  0.4988570000000  0.4240020000000 1.0
C      1  0.5007610000000  0.4273680000000  0.4776030000000 1.0
C      1  0.5007700000000  0.4562540000000  0.5621560000000 1.0
C      1  0.5007790000000  0.5455950000000  0.5608120000000 1.0
C      1  0.4870550000000  0.4816160000000  0.4764210000000 1.0
C      1  0.4870560000000  0.4718940000000  0.5101990000000 1.0
C      1  0.4870610000000  0.5010150000000  0.5298840000000 1.0
C      1  0.4870620000000  0.5287350000000  0.5082710000000 1.0
C      1  0.4870590000000  0.5167460000000  0.4752290000000 1.0
END
