TITL C-3985245-9316-769 -0.00103943729973903 125000 -326.943489033891 0 0 60 (Ci) n - 1
REM
REM in /home/nfs/bkarasulu/CARBON/AIRSS/Generating-Clusters/TERSOFF/Higher-Symm/Only-C60
REM
REM
REM
REM
REM
REM ./C.cell (28575a23ae977d3b5fae324c64b13b57)
REM
REM compiler GCC version 9.2.1 20190827 (Red Hat 9.2.1-1)
REM options -cpp -mtune=generic -march=x86-64 -g -O0 -fpre-include=/usr/include/finclude/math-vector-fortran.h
REM seed 343619043 -510610620 201721399 131845454 -452347036 -238514998 -916955901 -506489037 339486493 -2057848536 1789413466 -2009654682 -130887109 1855146761 1035761991 1186715534 -335609112 -400147871 -1296828091 -1810587336 31324483 -476809802 621602216 -1521469383 -405983572 301728082 404540846 449337388 1380499703 1796822040 -126317044 -1254469324 -2125803592
REM
CELL 1.54180   50.00000   50.00000   50.00000   90.00000   90.00000   90.00000
LATT -1
SFAC C  
C      1  0.5020820000000  0.4277350000000  0.4761540000000 1.0
C      1  0.4979170000000  0.5722540000000  0.5238420000000 1.0
C      1  0.5428240000000  0.4532340000000  0.5540030000000 1.0
C      1  0.4571760000000  0.5467660000000  0.4459970000000 1.0
C      1  0.4439510000000  0.5248330000000  0.4628600000000 1.0
C      1  0.5560490000000  0.4751670000000  0.5371400000000 1.0
C      1  0.4447100000000  0.4652630000000  0.4830810000000 1.0
C      1  0.5552890000000  0.5347370000000  0.5169190000000 1.0
C      1  0.4704180000000  0.5663720000000  0.5556730000000 1.0
C      1  0.5295820000000  0.4336280000000  0.4443270000000 1.0
C      1  0.5188130000000  0.4704930000000  0.4610360000000 1.0
C      1  0.4811860000000  0.5295070000000  0.5389640000000 1.0
C      1  0.5109160000000  0.4776180000000  0.5143800000000 1.0
C      1  0.4890840000000  0.5223820000000  0.4856210000000 1.0
C      1  0.5691140000000  0.4642770000000  0.5131760000000 1.0
C      1  0.4308860000000  0.5357230000000  0.4868240000000 1.0
C      1  0.4859150000000  0.5419940000000  0.5711660000000 1.0
C      1  0.5140850000000  0.4580060000000  0.4288340000000 1.0
C      1  0.5721240000000  0.4976560000000  0.5499060000000 1.0
C      1  0.4278760000000  0.5023440000000  0.4500940000000 1.0
C      1  0.5305410000000  0.4921090000000  0.5304100000000 1.0
C      1  0.4694580000000  0.5078900000000  0.4695900000000 1.0
C      1  0.4883070000000  0.4646140000000  0.4615480000000 1.0
C      1  0.5117070000000  0.5353770000000  0.5384300000000 1.0
C      1  0.5586830000000  0.4952020000000  0.4735840000000 1.0
C      1  0.4413170000000  0.5047980000000  0.5264160000000 1.0
C      1  0.5305710000000  0.4974540000000  0.4629070000000 1.0
C      1  0.4694290000000  0.5025460000000  0.5370930000000 1.0
C      1  0.4990430000000  0.5244920000000  0.4344440000000 1.0
C      1  0.5009570000000  0.4755080000000  0.5655560000000 1.0
C      1  0.4802200000000  0.5022240000000  0.4419030000000 1.0
C      1  0.5197800000000  0.4977760000000  0.5580970000000 1.0
C      1  0.4744050000000  0.4382750000000  0.5140920000000 1.0
C      1  0.5255950000000  0.5617250000000  0.4859080000000 1.0
C      1  0.4287730000000  0.4743460000000  0.4594530000000 1.0
C      1  0.5712270000000  0.5256540000000  0.5405470000000 1.0
C      1  0.4811350000000  0.5490310000000  0.4931490000000 1.0
C      1  0.5188680000000  0.4509730000000  0.5068570000000 1.0
C      1  0.5180900000000  0.5152790000000  0.4850640000000 1.0
C      1  0.4819100000000  0.4847200000000  0.5149360000000 1.0
C      1  0.5657860000000  0.5254250000000  0.4856280000000 1.0
C      1  0.4342050000000  0.4745720000000  0.5143790000000 1.0
C      1  0.4737840000000  0.4844720000000  0.5605140000000 1.0
C      1  0.5262160000000  0.5155280000000  0.4394860000000 1.0
C      1  0.4872030000000  0.5515210000000  0.4460470000000 1.0
C      1  0.5127970000000  0.4484790000000  0.5539530000000 1.0
C      1  0.4726960000000  0.4422620000000  0.4814430000000 1.0
C      1  0.5273040000000  0.5577380000000  0.5185580000000 1.0
C      1  0.4414790000000  0.5330220000000  0.5134950000000 1.0
C      1  0.5585210000000  0.4669780000000  0.4865050000000 1.0
C      1  0.4615260000000  0.4625180000000  0.5251300000000 1.0
C      1  0.5384750000000  0.5374820000000  0.4748700000000 1.0
C      1  0.4826720000000  0.4729010000000  0.4320260000000 1.0
C      1  0.5173280000000  0.5270990000000  0.5679740000000 1.0
C      1  0.4653770000000  0.4865970000000  0.4889590000000 1.0
C      1  0.5346170000000  0.5134230000000  0.5110530000000 1.0
C      1  0.5323320000000  0.4445860000000  0.4773340000000 1.0
C      1  0.4676680000000  0.5554140000000  0.5226660000000 1.0
C      1  0.5025100000000  0.4341650000000  0.5259650000000 1.0
C      1  0.4974900000000  0.5658350000000  0.4740350000000 1.0
END
