TITL C-3985257-5396-298 -0.000538055849409883 125000 -358.204190683311 0 0 60 (Cs) n - 1
REM
REM in /home/nfs/bkarasulu/CARBON/AIRSS/Generating-Clusters/TERSOFF/Higher-Symm/Only-C60
REM
REM
REM
REM
REM
REM ./C.cell (28575a23ae977d3b5fae324c64b13b57)
REM
REM compiler GCC version 9.2.1 20190827 (Red Hat 9.2.1-1)
REM options -cpp -mtune=generic -march=x86-64 -g -O0 -fpre-include=/usr/include/finclude/math-vector-fortran.h
REM seed 1507741436 -652744731 -291512541 -941488061 -478403707 -1366813081 -2054662500 1358101086 2103822075 -785334697 -590490584 520469254 -2046242222 -1957855669 847173874 357828546 -1870113285 -1974889333 -1909007086 325784094 -1185181355 2128519992 -1909909127 852946257 390675967 -1580525973 193646911 1449114986 -1819808726 1044334709 1068256584 1066908628 -167204597
REM
CELL 1.54180   50.00000   50.00000   50.00000   90.00000   90.00000   90.00000
LATT -1
SFAC C  
C      1  0.4506730000000  0.4399150000000  0.4850210000000 1.0
C      1  0.5002140000000  0.4394800000000  0.4474330000000 1.0
C      1  0.5506140000000  0.4376240000000  0.4834910000000 1.0
C      1  0.5303000000000  0.4377440000000  0.5388290000000 1.0
C      1  0.4729240000000  0.4384750000000  0.5402830000000 1.0
C      1  0.4506720000000  0.4399160000000  0.5149810000000 1.0
C      1  0.5002230000000  0.4394940000000  0.5525630000000 1.0
C      1  0.5506160000000  0.4376280000000  0.5165090000000 1.0
C      1  0.5302960000000  0.4377500000000  0.4611640000000 1.0
C      1  0.4729110000000  0.4384760000000  0.4597210000000 1.0
C      1  0.5077770000000  0.5126970000000  0.4279040000000 1.0
C      1  0.5725910000000  0.5118570000000  0.4851550000000 1.0
C      1  0.5350580000000  0.5126820000000  0.5606290000000 1.0
C      1  0.4522510000000  0.5130610000000  0.5522460000000 1.0
C      1  0.4334180000000  0.5129950000000  0.4706580000000 1.0
C      1  0.5077770000000  0.5126980000000  0.5720960000000 1.0
C      1  0.5725920000000  0.5118570000000  0.5148460000000 1.0
C      1  0.5350580000000  0.5126810000000  0.4393720000000 1.0
C      1  0.4522510000000  0.5130600000000  0.4477530000000 1.0
C      1  0.4334180000000  0.5129950000000  0.5293410000000 1.0
C      1  0.5349230000000  0.4619450000000  0.5599570000000 1.0
C      1  0.4538890000000  0.4622520000000  0.5511670000000 1.0
C      1  0.4334470000000  0.4627720000000  0.4714810000000 1.0
C      1  0.5069210000000  0.4626580000000  0.4270830000000 1.0
C      1  0.5715190000000  0.4615810000000  0.4845670000000 1.0
C      1  0.5349340000000  0.4619480000000  0.4400310000000 1.0
C      1  0.4538880000000  0.4622530000000  0.4488320000000 1.0
C      1  0.4334450000000  0.4627730000000  0.5285200000000 1.0
C      1  0.5069150000000  0.4626640000000  0.5729260000000 1.0
C      1  0.5715210000000  0.4615810000000  0.5154340000000 1.0
C      1  0.4282180000000  0.4878270000000  0.5148020000000 1.0
C      1  0.4647360000000  0.4875250000000  0.4386890000000 1.0
C      1  0.5476310000000  0.4870620000000  0.4479740000000 1.0
C      1  0.5666910000000  0.4867580000000  0.5293120000000 1.0
C      1  0.4922050000000  0.4876790000000  0.5724240000000 1.0
C      1  0.4282180000000  0.4878270000000  0.4851980000000 1.0
C      1  0.4647360000000  0.4875250000000  0.5613100000000 1.0
C      1  0.5476250000000  0.4870530000000  0.5520290000000 1.0
C      1  0.5666890000000  0.4867580000000  0.4706890000000 1.0
C      1  0.4922050000000  0.4876790000000  0.4275750000000 1.0
C      1  0.4649520000000  0.5383120000000  0.5598870000000 1.0
C      1  0.4281400000000  0.5380580000000  0.4845470000000 1.0
C      1  0.4931300000000  0.5377410000000  0.4275710000000 1.0
C      1  0.5675220000000  0.5370130000000  0.4714020000000 1.0
C      1  0.5457380000000  0.5377520000000  0.5500660000000 1.0
C      1  0.4649520000000  0.5383120000000  0.4401120000000 1.0
C      1  0.4281400000000  0.5380580000000  0.5154530000000 1.0
C      1  0.4931300000000  0.5377410000000  0.5724290000000 1.0
C      1  0.5675220000000  0.5370130000000  0.5285990000000 1.0
C      1  0.5457370000000  0.5377520000000  0.4499350000000 1.0
C      1  0.4690960000000  0.5624280000000  0.5386540000000 1.0
C      1  0.4486910000000  0.5622850000000  0.4835290000000 1.0
C      1  0.4995310000000  0.5606530000000  0.4483760000000 1.0
C      1  0.5506890000000  0.5599800000000  0.4852100000000 1.0
C      1  0.5265180000000  0.5611750000000  0.5382350000000 1.0
C      1  0.4690940000000  0.5624290000000  0.4613450000000 1.0
C      1  0.4486920000000  0.5622850000000  0.5164710000000 1.0
C      1  0.4995330000000  0.5606540000000  0.5516240000000 1.0
C      1  0.5506890000000  0.5599810000000  0.5147910000000 1.0
C      1  0.5265170000000  0.5611740000000  0.4617670000000 1.0
END
