TITL C-3985254-1270-312 -0.000449659282284446 125000 -317.142451033564 0 0 60 (C1) n - 1
REM
REM in /home/nfs/bkarasulu/CARBON/AIRSS/Generating-Clusters/TERSOFF/Higher-Symm/Only-C60
REM
REM
REM
REM
REM
REM ./C.cell (28575a23ae977d3b5fae324c64b13b57)
REM
REM compiler GCC version 9.2.1 20190827 (Red Hat 9.2.1-1)
REM options -cpp -mtune=generic -march=x86-64 -g -O0 -fpre-include=/usr/include/finclude/math-vector-fortran.h
REM seed -1731420388 159423686 -28986103 590761085 1166304781 -84310683 381504399 829270026 553688621 -133653230 1515445962 -930406653 -2116217001 -1904534724 1198534871 1275434786 1661583934 -888123279 77935642 836400036 1393965419 1997247465 -82092758 1172953062 -1138885323 402413261 35450187 -513506872 380823975 -498817343 262097236 1231648278 -1888186650
REM
CELL 1.54180   50.00000   50.00000   50.00000   90.00000   90.00000   90.00000
LATT -1
SFAC C  
C      1  0.4798140000000  0.5367180000000  0.5290460000000 1.0
C      1  0.5104740000000  0.5297310000000  0.4851220000000 1.0
C      1  0.4844740000000  0.5445160000000  0.4968540000000 1.0
C      1  0.5336470000000  0.5618070000000  0.5023690000000 1.0
C      1  0.4559540000000  0.4648870000000  0.4421270000000 1.0
C      1  0.5438160000000  0.4632010000000  0.5584150000000 1.0
C      1  0.4870760000000  0.5076530000000  0.5346970000000 1.0
C      1  0.5008160000000  0.5578160000000  0.5465900000000 1.0
C      1  0.5247760000000  0.5116480000000  0.4233780000000 1.0
C      1  0.5301660000000  0.5502010000000  0.4744820000000 1.0
C      1  0.4860530000000  0.5405580000000  0.4296940000000 1.0
C      1  0.4586730000000  0.5122840000000  0.4641610000000 1.0
C      1  0.4704730000000  0.4964850000000  0.5089620000000 1.0
C      1  0.5105500000000  0.5590100000000  0.4471900000000 1.0
C      1  0.5164120000000  0.5036060000000  0.5445150000000 1.0
C      1  0.5646910000000  0.4725650000000  0.5365480000000 1.0
C      1  0.4747100000000  0.5488570000000  0.5687940000000 1.0
C      1  0.4954940000000  0.5125380000000  0.4275870000000 1.0
C      1  0.4359190000000  0.5273810000000  0.5083570000000 1.0
C      1  0.5628610000000  0.5145710000000  0.4905320000000 1.0
C      1  0.5394860000000  0.5234710000000  0.5386440000000 1.0
C      1  0.5580070000000  0.4531350000000  0.5089760000000 1.0
C      1  0.5338470000000  0.4875420000000  0.4629720000000 1.0
C      1  0.5093170000000  0.5030330000000  0.4727780000000 1.0
C      1  0.4417920000000  0.4611740000000  0.5315210000000 1.0
C      1  0.5288700000000  0.4681700000000  0.5153090000000 1.0
C      1  0.5705520000000  0.4847620000000  0.4831400000000 1.0
C      1  0.4741100000000  0.4977800000000  0.5637480000000 1.0
C      1  0.5208040000000  0.4822800000000  0.5645490000000 1.0
C      1  0.5359590000000  0.5362340000000  0.4354100000000 1.0
C      1  0.4442360000000  0.4885700000000  0.5220400000000 1.0
C      1  0.4905400000000  0.4498880000000  0.5427940000000 1.0
C      1  0.5360920000000  0.4867950000000  0.4332240000000 1.0
C      1  0.4444610000000  0.4985380000000  0.5627890000000 1.0
C      1  0.4413340000000  0.4845300000000  0.4616350000000 1.0
C      1  0.4524100000000  0.4590570000000  0.4835250000000 1.0
C      1  0.4676760000000  0.4334540000000  0.4984150000000 1.0
C      1  0.4519310000000  0.5420160000000  0.5443040000000 1.0
C      1  0.4810580000000  0.4737110000000  0.4918550000000 1.0
C      1  0.4862890000000  0.4990060000000  0.4540110000000 1.0
C      1  0.4918290000000  0.4718700000000  0.5655940000000 1.0
C      1  0.5545880000000  0.5336010000000  0.4637320000000 1.0
C      1  0.5227150000000  0.4620180000000  0.4255890000000 1.0
C      1  0.4613680000000  0.5403880000000  0.4492060000000 1.0
C      1  0.4810210000000  0.5574600000000  0.4677580000000 1.0
C      1  0.5243830000000  0.4460680000000  0.5411210000000 1.0
C      1  0.5014450000000  0.4311840000000  0.4929040000000 1.0
C      1  0.5001400000000  0.4578030000000  0.5090100000000 1.0
C      1  0.4808150000000  0.5220640000000  0.5805760000000 1.0
C      1  0.5473590000000  0.4612230000000  0.4783680000000 1.0
C      1  0.4831840000000  0.4682770000000  0.4557030000000 1.0
C      1  0.5205060000000  0.4411460000000  0.4704250000000 1.0
C      1  0.4635500000000  0.4417310000000  0.5278970000000 1.0
C      1  0.5504920000000  0.5390170000000  0.5133400000000 1.0
C      1  0.5266980000000  0.5460980000000  0.5547330000000 1.0
C      1  0.5060190000000  0.4512580000000  0.4468930000000 1.0
C      1  0.5495180000000  0.4975420000000  0.5194280000000 1.0
C      1  0.4312560000000  0.5151220000000  0.5388150000000 1.0
C      1  0.5060910000000  0.5658700000000  0.5144370000000 1.0
C      1  0.4614020000000  0.5210830000000  0.4934110000000 1.0
END
