TITL C-3985254-1270-837 -4.077649558331e-07 125000 -316.262569159366 0 0 60 (D2d) n - 1
REM
REM in /home/nfs/bkarasulu/CARBON/AIRSS/Generating-Clusters/TERSOFF/Higher-Symm/Only-C60
REM
REM
REM
REM
REM
REM ./C.cell (28575a23ae977d3b5fae324c64b13b57)
REM
REM compiler GCC version 9.2.1 20190827 (Red Hat 9.2.1-1)
REM options -cpp -mtune=generic -march=x86-64 -g -O0 -fpre-include=/usr/include/finclude/math-vector-fortran.h
REM seed 253378141 -862878898 -634857181 -439238264 -530838515 -1593332334 -1605631029 -1103814247 -1531312750 -1790509897 1956438788 783951431 -328922331 1374887354 305586419 959515784 647147042 -593469833 1837972693 792950196 -2106653155 1632139721 -936090557 -1893559698 -122412551 1344367738 -2086208150 -1154155512 -1202946269 1382248164 334765120 1402943812 -1439454764
REM
CELL 1.54180   50.00000   50.00000   50.00000   90.00000   90.00000   90.00000
LATT -1
SFAC C  
C      1  0.4914500000000  0.5426300000000  0.4515470000000 1.0
C      1  0.5085500000000  0.4573700000000  0.4515470000000 1.0
C      1  0.4914500000000  0.4573700000000  0.5484530000000 1.0
C      1  0.5085500000000  0.5426300000000  0.5484530000000 1.0
C      1  0.5426300000000  0.4914500000000  0.4515470000000 1.0
C      1  0.4573700000000  0.5085500000000  0.4515470000000 1.0
C      1  0.4573700000000  0.4914500000000  0.5484530000000 1.0
C      1  0.5426300000000  0.5085500000000  0.5484530000000 1.0
C      1  0.4708780000000  0.4470080000000  0.5265760000000 1.0
C      1  0.5291220000000  0.5529920000000  0.5265760000000 1.0
C      1  0.4708780000000  0.5529920000000  0.4734240000000 1.0
C      1  0.5291220000000  0.4470080000000  0.4734240000000 1.0
C      1  0.4470080000000  0.4708780000000  0.5265760000000 1.0
C      1  0.5529920000000  0.5291220000000  0.5265760000000 1.0
C      1  0.5529920000000  0.4708780000000  0.4734240000000 1.0
C      1  0.4470080000000  0.5291220000000  0.4734240000000 1.0
C      1  0.4365880000000  0.5159060000000  0.4988160000000 1.0
C      1  0.5634120000000  0.4840940000000  0.4988160000000 1.0
C      1  0.4365880000000  0.4840940000000  0.5011840000000 1.0
C      1  0.5634120000000  0.5159060000000  0.5011840000000 1.0
C      1  0.5159060000000  0.4365880000000  0.4988160000000 1.0
C      1  0.4840940000000  0.5634120000000  0.4988160000000 1.0
C      1  0.4840940000000  0.4365880000000  0.5011840000000 1.0
C      1  0.5159060000000  0.5634120000000  0.5011840000000 1.0
C      1  0.4618520000000  0.4385080000000  0.4508590000000 1.0
C      1  0.5381480000000  0.5614920000000  0.4508590000000 1.0
C      1  0.4618520000000  0.5614920000000  0.5491410000000 1.0
C      1  0.5381480000000  0.4385080000000  0.5491410000000 1.0
C      1  0.4385080000000  0.4618520000000  0.4508590000000 1.0
C      1  0.5614920000000  0.5381480000000  0.4508590000000 1.0
C      1  0.5614920000000  0.4618520000000  0.5491410000000 1.0
C      1  0.4385080000000  0.5381480000000  0.5491410000000 1.0
C      1  0.5486780000000  0.5266450000000  0.4780950000000 1.0
C      1  0.4513220000000  0.4733550000000  0.4780950000000 1.0
C      1  0.5486780000000  0.4733550000000  0.5219050000000 1.0
C      1  0.4513220000000  0.5266450000000  0.5219050000000 1.0
C      1  0.5266450000000  0.5486780000000  0.4780950000000 1.0
C      1  0.4733550000000  0.4513220000000  0.4780950000000 1.0
C      1  0.4733550000000  0.5486780000000  0.5219050000000 1.0
C      1  0.5266450000000  0.4513220000000  0.5219050000000 1.0
C      1  0.5593810000000  0.5113090000000  0.4387550000000 1.0
C      1  0.4406190000000  0.4886910000000  0.4387550000000 1.0
C      1  0.5593810000000  0.4886910000000  0.5612450000000 1.0
C      1  0.4406190000000  0.5113090000000  0.5612450000000 1.0
C      1  0.5113090000000  0.5593810000000  0.4387550000000 1.0
C      1  0.4886910000000  0.4406190000000  0.4387550000000 1.0
C      1  0.4886910000000  0.5593810000000  0.5612450000000 1.0
C      1  0.5113090000000  0.4406190000000  0.5612450000000 1.0
C      1  0.5009260000000  0.5248390000000  0.4816330000000 1.0
C      1  0.4990740000000  0.4751610000000  0.4816330000000 1.0
C      1  0.5009260000000  0.4751610000000  0.5183670000000 1.0
C      1  0.4990740000000  0.5248390000000  0.5183670000000 1.0
C      1  0.5248390000000  0.5009260000000  0.4816330000000 1.0
C      1  0.4751610000000  0.4990740000000  0.4816330000000 1.0
C      1  0.4751610000000  0.5009260000000  0.5183670000000 1.0
C      1  0.5248390000000  0.4990740000000  0.5183670000000 1.0
C      1  0.4763390000000  0.5236610000000  0.4354140000000 1.0
C      1  0.4763390000000  0.4763390000000  0.5645860000000 1.0
C      1  0.5236610000000  0.4763390000000  0.4354140000000 1.0
C      1  0.5236610000000  0.5236610000000  0.5645860000000 1.0
END
