TITL C-3985250-725-1241 3.62455983857126e-07 125000 -278.363153654725 0 0 60 (Th) n - 1
REM
REM in /home/nfs/bkarasulu/CARBON/AIRSS/Generating-Clusters/TERSOFF/Higher-Symm/Only-C60
REM
REM
REM
REM
REM
REM ./C.cell (28575a23ae977d3b5fae324c64b13b57)
REM
REM compiler GCC version 9.2.1 20190827 (Red Hat 9.2.1-1)
REM options -cpp -mtune=generic -march=x86-64 -g -O0 -fpre-include=/usr/include/finclude/math-vector-fortran.h
REM seed -1351514802 689066320 421364818 -1672671831 -1873407024 305048907 1657260892 -1792601436 -843840027 -1987009521 618890289 2110372185 -1155521497 2137327856 632516617 -1556262605 83586060 352022609 764782021 -595875631 -810687282 551041679 -724954178 -2132215320 -603259947 -1781810437 279496414 269529545 768053306 -307869169 1919309527 965022858 1608980772
REM
CELL 1.54180   50.00000   50.00000   50.00000   90.00000   90.00000   90.00000
LATT -1
SFAC C  
C      1  0.5560550000000  0.5385760000000  0.5271910000000 1.0
C      1  0.5271910000000  0.5560550000000  0.5385760000000 1.0
C      1  0.5385760000000  0.5271910000000  0.5560550000000 1.0
C      1  0.5560550000000  0.4614240000000  0.4728090000000 1.0
C      1  0.4439450000000  0.4614240000000  0.5271910000000 1.0
C      1  0.4439450000000  0.5385760000000  0.4728090000000 1.0
C      1  0.5271910000000  0.4439450000000  0.4614240000000 1.0
C      1  0.4728090000000  0.4439450000000  0.5385760000000 1.0
C      1  0.4728090000000  0.5560550000000  0.4614240000000 1.0
C      1  0.5385760000000  0.4728090000000  0.4439450000000 1.0
C      1  0.4614240000000  0.4728090000000  0.5560550000000 1.0
C      1  0.4614240000000  0.5271910000000  0.4439450000000 1.0
C      1  0.4439450000000  0.5385760000000  0.5271910000000 1.0
C      1  0.4728090000000  0.5560550000000  0.5385760000000 1.0
C      1  0.4614240000000  0.5271910000000  0.5560550000000 1.0
C      1  0.4439450000000  0.4614240000000  0.4728090000000 1.0
C      1  0.5560550000000  0.4614240000000  0.5271910000000 1.0
C      1  0.5560550000000  0.5385760000000  0.4728090000000 1.0
C      1  0.4728090000000  0.4439450000000  0.4614240000000 1.0
C      1  0.5271910000000  0.4439450000000  0.5385760000000 1.0
C      1  0.5271910000000  0.5560550000000  0.4614240000000 1.0
C      1  0.4614240000000  0.4728090000000  0.4439450000000 1.0
C      1  0.5385760000000  0.4728090000000  0.5560550000000 1.0
C      1  0.5385760000000  0.5271910000000  0.4439450000000 1.0
C      1  0.4840410000000  0.5750380000000  0.4837160000000 1.0
C      1  0.4837160000000  0.4840410000000  0.5750380000000 1.0
C      1  0.5750380000000  0.4837160000000  0.4840410000000 1.0
C      1  0.4840410000000  0.4249620000000  0.5162840000000 1.0
C      1  0.5159590000000  0.4249620000000  0.4837160000000 1.0
C      1  0.5159590000000  0.5750380000000  0.5162840000000 1.0
C      1  0.4837160000000  0.5159590000000  0.4249620000000 1.0
C      1  0.5162840000000  0.5159590000000  0.5750380000000 1.0
C      1  0.5162840000000  0.4840410000000  0.4249620000000 1.0
C      1  0.5750380000000  0.5162840000000  0.5159590000000 1.0
C      1  0.4249620000000  0.5162840000000  0.4840410000000 1.0
C      1  0.4249620000000  0.4837160000000  0.5159590000000 1.0
C      1  0.5159590000000  0.5750380000000  0.4837160000000 1.0
C      1  0.5162840000000  0.4840410000000  0.5750380000000 1.0
C      1  0.4249620000000  0.4837160000000  0.4840410000000 1.0
C      1  0.5159590000000  0.4249620000000  0.5162840000000 1.0
C      1  0.4840410000000  0.4249620000000  0.4837160000000 1.0
C      1  0.4840410000000  0.5750380000000  0.5162840000000 1.0
C      1  0.5162840000000  0.5159590000000  0.4249620000000 1.0
C      1  0.4837160000000  0.5159590000000  0.5750380000000 1.0
C      1  0.4837160000000  0.4840410000000  0.4249620000000 1.0
C      1  0.4249620000000  0.5162840000000  0.5159590000000 1.0
C      1  0.5750380000000  0.5162840000000  0.4840410000000 1.0
C      1  0.5750380000000  0.4837160000000  0.5159590000000 1.0
C      1  0.4496670000000  0.5520660000000  0.5000000000000 1.0
C      1  0.5000000000000  0.4496670000000  0.5520660000000 1.0
C      1  0.5503330000000  0.4479340000000  0.5000000000000 1.0
C      1  0.5000000000000  0.5503330000000  0.4479340000000 1.0
C      1  0.5000000000000  0.4496670000000  0.4479340000000 1.0
C      1  0.5000000000000  0.5503330000000  0.5520660000000 1.0
C      1  0.5520660000000  0.5000000000000  0.4496670000000 1.0
C      1  0.4496670000000  0.4479340000000  0.5000000000000 1.0
C      1  0.5503330000000  0.5520660000000  0.5000000000000 1.0
C      1  0.5520660000000  0.5000000000000  0.5503330000000 1.0
C      1  0.4479340000000  0.5000000000000  0.4496670000000 1.0
C      1  0.4479340000000  0.5000000000000  0.5503330000000 1.0
END
