TITL C-3985253-1688-323 -2.33417039504376e-05 125000 -343.157233391861 0 0 60 (C5) n - 1
REM
REM in /home/nfs/bkarasulu/CARBON/AIRSS/Generating-Clusters/TERSOFF/Higher-Symm/Only-C60
REM
REM
REM
REM
REM
REM ./C.cell (28575a23ae977d3b5fae324c64b13b57)
REM
REM compiler GCC version 9.2.1 20190827 (Red Hat 9.2.1-1)
REM options -cpp -mtune=generic -march=x86-64 -g -O0 -fpre-include=/usr/include/finclude/math-vector-fortran.h
REM seed 1757800202 -824625298 -320926437 398809621 -1295763400 491389428 -1745738055 336566374 402737880 -1438424047 -1404970265 -1763714206 2037665308 1226284555 -595027409 -545088469 7138865 -2070540114 -103689514 -145637373 -602632744 -1486550396 -1378817527 -823324209 -1642303174 -1899947892 -534799547 908214924 -180130490 1682456027 311228362 -165023470 -1758597049
REM
CELL 1.54180   50.00000   50.00000   50.00000   90.00000   90.00000   90.00000
LATT -1
SFAC C  
C      1  0.4312780000000  0.4855370000000  0.5233240000000 1.0
C      1  0.4650070000000  0.5608890000000  0.5233220000000 1.0
C      1  0.5470950000000  0.5520970000000  0.5233240000000 1.0
C      1  0.5640990000000  0.4713090000000  0.5233270000000 1.0
C      1  0.4925190000000  0.4301730000000  0.5233280000000 1.0
C      1  0.5019580000000  0.5260000000000  0.4371060000000 1.0
C      1  0.5253360000000  0.5061710000000  0.4371070000000 1.0
C      1  0.5137020000000  0.4778100000000  0.4371080000000 1.0
C      1  0.4831340000000  0.4801110000000  0.4371070000000 1.0
C      1  0.4758760000000  0.5098940000000  0.4371060000000 1.0
C      1  0.5237200000000  0.4915570000000  0.5010200000000 1.0
C      1  0.4993000000000  0.4748320000000  0.5010200000000 1.0
C      1  0.4758480000000  0.4928890000000  0.5010190000000 1.0
C      1  0.4857730000000  0.5207720000000  0.5010180000000 1.0
C      1  0.5153600000000  0.5199490000000  0.5010180000000 1.0
C      1  0.4956050000000  0.5739660000000  0.4772300000000 1.0
C      1  0.5689890000000  0.5270360000000  0.4772330000000 1.0
C      1  0.5470320000000  0.4427410000000  0.4772360000000 1.0
C      1  0.4600790000000  0.4375760000000  0.4772350000000 1.0
C      1  0.4282960000000  0.5186770000000  0.4772310000000 1.0
C      1  0.4613780000000  0.4882770000000  0.5259770000000 1.0
C      1  0.4769140000000  0.5331090000000  0.5259750000000 1.0
C      1  0.5243540000000  0.5321880000000  0.5259760000000 1.0
C      1  0.5381360000000  0.4867850000000  0.5259780000000 1.0
C      1  0.4992150000000  0.4596470000000  0.5259790000000 1.0
C      1  0.5517020000000  0.5503380000000  0.4911610000000 1.0
C      1  0.5638510000000  0.4663830000000  0.4911640000000 1.0
C      1  0.4877600000000  0.4288860000000  0.4911650000000 1.0
C      1  0.4285850000000  0.4896650000000  0.4911610000000 1.0
C      1  0.4681030000000  0.5647260000000  0.4911590000000 1.0
C      1  0.5376170000000  0.4218730000000  0.4952670000000 1.0
C      1  0.4373210000000  0.4400820000000  0.4952640000000 1.0
C      1  0.4236450000000  0.5410940000000  0.4952590000000 1.0
C      1  0.5154880000000  0.5853170000000  0.4952600000000 1.0
C      1  0.5859270000000  0.5116340000000  0.4952640000000 1.0
C      1  0.5203140000000  0.5737760000000  0.5217430000000 1.0
C      1  0.5764430000000  0.5034790000000  0.5217460000000 1.0
C      1  0.5269290000000  0.4283750000000  0.5217480000000 1.0
C      1  0.4402000000000  0.4522560000000  0.5217450000000 1.0
C      1  0.4361120000000  0.5421190000000  0.5217420000000 1.0
C      1  0.5043150000000  0.5463340000000  0.4610770000000 1.0
C      1  0.5454020000000  0.5102140000000  0.4610800000000 1.0
C      1  0.5237460000000  0.4599760000000  0.4610810000000 1.0
C      1  0.4692750000000  0.4650480000000  0.4610800000000 1.0
C      1  0.4572660000000  0.5184200000000  0.4610780000000 1.0
C      1  0.5275850000000  0.5339230000000  0.4771300000000 1.0
C      1  0.5407880000000  0.4842480000000  0.4771320000000 1.0
C      1  0.4976240000000  0.4563400000000  0.4771330000000 1.0
C      1  0.4577450000000  0.4887680000000  0.4771310000000 1.0
C      1  0.4762610000000  0.5367160000000  0.4771290000000 1.0
C      1  0.5242600000000  0.4916590000000  0.5517350000000 1.0
C      1  0.4995610000000  0.4743510000000  0.5517350000000 1.0
C      1  0.4754680000000  0.4924920000000  0.5517340000000 1.0
C      1  0.4852760000000  0.5210120000000  0.5517330000000 1.0
C      1  0.5154310000000  0.5204970000000  0.5517340000000 1.0
C      1  0.4636220000000  0.4403980000000  0.5372280000000 1.0
C      1  0.4320710000000  0.5161790000000  0.5372230000000 1.0
C      1  0.4943940000000  0.5696040000000  0.5372230000000 1.0
C      1  0.5644630000000  0.5268410000000  0.5372250000000 1.0
C      1  0.5454450000000  0.4469860000000  0.5372290000000 1.0
END
