TITL C-3985247-764-455 -0.00364151492366828 125000 -283.876978226933 0 0 60 (C1) n - 1
REM
REM in /home/nfs/bkarasulu/CARBON/AIRSS/Generating-Clusters/TERSOFF/Higher-Symm/Only-C60
REM
REM
REM
REM
REM
REM ./C.cell (28575a23ae977d3b5fae324c64b13b57)
REM
REM compiler GCC version 9.2.1 20190827 (Red Hat 9.2.1-1)
REM options -cpp -mtune=generic -march=x86-64 -g -O0 -fpre-include=/usr/include/finclude/math-vector-fortran.h
REM seed -1504183324 1023805992 1572137474 945569840 -171467556 286722905 1351737900 1556580598 119320628 -1806574601 1421356087 -1380819424 -367964084 264875236 1142158546 1059994444 445685740 -1492162943 -1741723734 -2078239593 2087603868 412615659 768193731 -1278143143 516415818 -1002694399 -319247977 -1913760524 -102851965 -1851481907 -295889502 1097677845 -1969472497
REM
CELL 1.54180   50.00000   50.00000   50.00000   90.00000   90.00000   90.00000
LATT -1
SFAC C  
C      1  0.5522220000000  0.5015270000000  0.5351030000000 1.0
C      1  0.5544320000000  0.5355980000000  0.5106400000000 1.0
C      1  0.5533340000000  0.5212970000000  0.4692040000000 1.0
C      1  0.5541100000000  0.4793440000000  0.4704070000000 1.0
C      1  0.5541810000000  0.4670080000000  0.5105310000000 1.0
C      1  0.5360640000000  0.5590250000000  0.4965870000000 1.0
C      1  0.5301970000000  0.5167700000000  0.4435280000000 1.0
C      1  0.5320060000000  0.4521270000000  0.4652570000000 1.0
C      1  0.5317630000000  0.4542920000000  0.5338230000000 1.0
C      1  0.5277150000000  0.5199680000000  0.5521020000000 1.0
C      1  0.4307520000000  0.5314790000000  0.5148610000000 1.0
C      1  0.4295410000000  0.5244270000000  0.4730020000000 1.0
C      1  0.4296470000000  0.4830160000000  0.4665450000000 1.0
C      1  0.4285820000000  0.4637180000000  0.5037120000000 1.0
C      1  0.4315130000000  0.4937330000000  0.5334690000000 1.0
C      1  0.5389830000000  0.4792110000000  0.5509620000000 1.0
C      1  0.5372570000000  0.5441080000000  0.5357680000000 1.0
C      1  0.5394490000000  0.5489610000000  0.4687620000000 1.0
C      1  0.5397690000000  0.4876020000000  0.4442960000000 1.0
C      1  0.5400830000000  0.4447140000000  0.4938630000000 1.0
C      1  0.5008780000000  0.4638090000000  0.5426830000000 1.0
C      1  0.4995720000000  0.5232770000000  0.5369730000000 1.0
C      1  0.5033640000000  0.5449360000000  0.4898350000000 1.0
C      1  0.5003250000000  0.5008980000000  0.4391860000000 1.0
C      1  0.5012880000000  0.4436300000000  0.4779090000000 1.0
C      1  0.4825590000000  0.5270080000000  0.4450180000000 1.0
C      1  0.4828590000000  0.4563880000000  0.4535210000000 1.0
C      1  0.4827600000000  0.4432300000000  0.5240950000000 1.0
C      1  0.4820400000000  0.5037730000000  0.5533720000000 1.0
C      1  0.4837040000000  0.5643670000000  0.5124180000000 1.0
C      1  0.4538700000000  0.5396920000000  0.4808290000000 1.0
C      1  0.4522880000000  0.4958020000000  0.4522810000000 1.0
C      1  0.4518070000000  0.4535850000000  0.4867070000000 1.0
C      1  0.4536700000000  0.4740830000000  0.5356620000000 1.0
C      1  0.4502510000000  0.5356630000000  0.5394640000000 1.0
C      1  0.4791560000000  0.5263940000000  0.4764240000000 1.0
C      1  0.4795370000000  0.4873660000000  0.4600350000000 1.0
C      1  0.4794360000000  0.4590770000000  0.4960320000000 1.0
C      1  0.4801560000000  0.4847720000000  0.5291950000000 1.0
C      1  0.4783440000000  0.5450210000000  0.5349390000000 1.0
C      1  0.4501740000000  0.5111750000000  0.5550160000000 1.0
C      1  0.4519240000000  0.5583380000000  0.5032540000000 1.0
C      1  0.4485970000000  0.5237480000000  0.4423640000000 1.0
C      1  0.4484270000000  0.4542770000000  0.4572570000000 1.0
C      1  0.4483730000000  0.4457890000000  0.5279370000000 1.0
C      1  0.5162780000000  0.5671280000000  0.5230340000000 1.0
C      1  0.5105690000000  0.5452210000000  0.4542510000000 1.0
C      1  0.5135590000000  0.4674220000000  0.4382620000000 1.0
C      1  0.5137900000000  0.4331480000000  0.5103180000000 1.0
C      1  0.5114230000000  0.4901070000000  0.5657540000000 1.0
C      1  0.3923820000000  0.4945410000000  0.4916880000000 1.0
C      1  0.5259710000000  0.4962870000000  0.4997380000000 1.0
C      1  0.5053610000000  0.5166080000000  0.5076070000000 1.0
C      1  0.3699590000000  0.5047400000000  0.5069500000000 1.0
C      1  0.4232710000000  0.4995280000000  0.4986310000000 1.0
C      1  0.6104840000000  0.4906580000000  0.4956580000000 1.0
C      1  0.6386180000000  0.4974700000000  0.4977970000000 1.0
C      1  0.4831480000000  0.4949960000000  0.4946620000000 1.0
C      1  0.5885990000000  0.5087790000000  0.5014180000000 1.0
C      1  0.5570750000000  0.5012850000000  0.4992260000000 1.0
END
