TITL C-3985254-1270-1079 0.00103211294241226 125000 -362.355556816722 0 0 60 (C5) n - 1
REM
REM in /home/nfs/bkarasulu/CARBON/AIRSS/Generating-Clusters/TERSOFF/Higher-Symm/Only-C60
REM
REM
REM
REM
REM
REM ./C.cell (28575a23ae977d3b5fae324c64b13b57)
REM
REM compiler GCC version 9.2.1 20190827 (Red Hat 9.2.1-1)
REM options -cpp -mtune=generic -march=x86-64 -g -O0 -fpre-include=/usr/include/finclude/math-vector-fortran.h
REM seed 1587933949 1442547904 1237299948 1788536962 -1873047884 -966625944 258940971 1583045820 -1653016769 -494795503 1703966123 -1494039606 -903800842 -949503852 -1455286570 -339518460 -69883312 -1137983237 719891177 405283060 1006598584 -1587021883 1877583800 -1165838252 -1830424555 -1675357543 -136201776 -655538725 352086887 1781115543 1475341951 775223926 1351597188
REM
CELL 1.54180   50.00000   50.00000   50.00000   90.00000   90.00000   90.00000
LATT -1
SFAC C  
C      1  0.4885160000000  0.4858350000000  0.4798220000000 1.0
C      1  0.4885960000000  0.5148480000000  0.4802450000000 1.0
C      1  0.4886020000000  0.5233660000000  0.5080140000000 1.0
C      1  0.4885910000000  0.4996150000000  0.5247050000000 1.0
C      1  0.4886040000000  0.4763950000000  0.5072720000000 1.0
C      1  0.4745160000000  0.4707540000000  0.4585030000000 1.0
C      1  0.4745400000000  0.5304380000000  0.4593670000000 1.0
C      1  0.4745240000000  0.5480590000000  0.5163820000000 1.0
C      1  0.4745170000000  0.4992750000000  0.5507710000000 1.0
C      1  0.4745210000000  0.4515000000000  0.5150060000000 1.0
C      1  0.4862870000000  0.5667160000000  0.4951840000000 1.0
C      1  0.4862950000000  0.5252010000000  0.5619560000000 1.0
C      1  0.4863020000000  0.4488720000000  0.5431130000000 1.0
C      1  0.4862930000000  0.4432090000000  0.4646920000000 1.0
C      1  0.4862970000000  0.5160350000000  0.4350710000000 1.0
C      1  0.5396950000000  0.5521470000000  0.5448230000000 1.0
C      1  0.5397050000000  0.4734840000000  0.5634560000000 1.0
C      1  0.5396920000000  0.4314440000000  0.4943820000000 1.0
C      1  0.5396940000000  0.4841540000000  0.4330610000000 1.0
C      1  0.5396920000000  0.5587550000000  0.4642450000000 1.0
C      1  0.5366400000000  0.4520650000000  0.4714900000000 1.0
C      1  0.5366070000000  0.5123140000000  0.4456300000000 1.0
C      1  0.5365950000000  0.5555100000000  0.4949020000000 1.0
C      1  0.5366170000000  0.5219900000000  0.5512120000000 1.0
C      1  0.5366290000000  0.4580890000000  0.5367500000000 1.0
C      1  0.4452400000000  0.4577820000000  0.5130510000000 1.0
C      1  0.4452460000000  0.4745570000000  0.4638850000000 1.0
C      1  0.4452640000000  0.5264860000000  0.4646510000000 1.0
C      1  0.4452480000000  0.5418120000000  0.5142700000000 1.0
C      1  0.4452390000000  0.4993570000000  0.5441910000000 1.0
C      1  0.4336300000000  0.4592070000000  0.4860900000000 1.0
C      1  0.4336440000000  0.5006320000000  0.4569110000000 1.0
C      1  0.4336430000000  0.5411770000000  0.4872840000000 1.0
C      1  0.4336250000000  0.5248250000000  0.5352400000000 1.0
C      1  0.4336230000000  0.4741540000000  0.5345120000000 1.0
C      1  0.5292070000000  0.5257590000000  0.4976210000000 1.0
C      1  0.5292140000000  0.5101860000000  0.5237290000000 1.0
C      1  0.5292420000000  0.4805270000000  0.5170380000000 1.0
C      1  0.5293430000000  0.4778210000000  0.4867710000000 1.0
C      1  0.5292030000000  0.5056660000000  0.4747720000000 1.0
C      1  0.5125140000000  0.4189580000000  0.4995030000000 1.0
C      1  0.5125120000000  0.4754260000000  0.4227680000000 1.0
C      1  0.5125140000000  0.5658630000000  0.4527650000000 1.0
C      1  0.5125190000000  0.5652710000000  0.5480380000000 1.0
C      1  0.5125270000000  0.4744950000000  0.5769200000000 1.0
C      1  0.5535600000000  0.5588290000000  0.5195860000000 1.0
C      1  0.5535810000000  0.4995400000000  0.5620120000000 1.0
C      1  0.5535710000000  0.4408660000000  0.5187200000000 1.0
C      1  0.5535700000000  0.4639060000000  0.4495280000000 1.0
C      1  0.5535580000000  0.5368130000000  0.4500910000000 1.0
C      1  0.4864330000000  0.5582240000000  0.4658880000000 1.0
C      1  0.4864320000000  0.5504370000000  0.5448310000000 1.0
C      1  0.4864380000000  0.4729600000000  0.5618180000000 1.0
C      1  0.4864310000000  0.4328550000000  0.4933830000000 1.0
C      1  0.4864320000000  0.4855490000000  0.4340950000000 1.0
C      1  0.5136450000000  0.5241620000000  0.4301210000000 1.0
C      1  0.5136370000000  0.5739290000000  0.5013930000000 1.0
C      1  0.5136470000000  0.5215070000000  0.5707320000000 1.0
C      1  0.5136560000000  0.4393840000000  0.5423180000000 1.0
C      1  0.5136400000000  0.4410140000000  0.4554180000000 1.0
END
