TITL C-3985244-725-358 8.20366043708839e-05 125000 -320.414611929714 0 0 60 (Cs) n - 1
REM
REM in /home/nfs/bkarasulu/CARBON/AIRSS/Generating-Clusters/TERSOFF/Higher-Symm/Only-C60
REM
REM
REM
REM
REM
REM ./C.cell (28575a23ae977d3b5fae324c64b13b57)
REM
REM compiler GCC version 9.2.1 20190827 (Red Hat 9.2.1-1)
REM options -cpp -mtune=generic -march=x86-64 -g -O0 -fpre-include=/usr/include/finclude/math-vector-fortran.h
REM seed -784434903 -3860253 -961759193 870829214 2147388116 -2099781539 1272152442 1402858845 1614354002 -382583284 -1296589558 599632999 -329767120 -678738594 -1616034436 -1817309372 -684792263 71232154 -919219614 1613432972 574504362 -1177091618 -1443785100 1851216397 -1876672541 1504202720 310585709 1704827874 -1776323363 -2085055457 -329340021 1796978025 -697777686
REM
CELL 1.54180   50.00000   50.00000   50.00000   90.00000   90.00000   90.00000
LATT -1
SFAC C  
C      1  0.5328070000000  0.4521980000000  0.4694570000000 1.0
C      1  0.4631050000000  0.5499500000000  0.4685520000000 1.0
C      1  0.4631050000000  0.4512910000000  0.4685470000000 1.0
C      1  0.5328070000000  0.5490400000000  0.4694590000000 1.0
C      1  0.5127930000000  0.4508750000000  0.4437620000000 1.0
C      1  0.4833380000000  0.5508420000000  0.4433970000000 1.0
C      1  0.4833420000000  0.4503970000000  0.4433920000000 1.0
C      1  0.5127930000000  0.5503650000000  0.4437660000000 1.0
C      1  0.5355380000000  0.4774350000000  0.4886780000000 1.0
C      1  0.4676700000000  0.5243370000000  0.4869750000000 1.0
C      1  0.4676630000000  0.4769000000000  0.4869720000000 1.0
C      1  0.5355490000000  0.5238030000000  0.4886760000000 1.0
C      1  0.4679450000000  0.4839630000000  0.5373990000000 1.0
C      1  0.5337960000000  0.5163800000000  0.5397270000000 1.0
C      1  0.5338000000000  0.4848560000000  0.5397250000000 1.0
C      1  0.4679440000000  0.5172730000000  0.5374000000000 1.0
C      1  0.4650120000000  0.4365200000000  0.4980650000000 1.0
C      1  0.5238640000000  0.5623600000000  0.5003430000000 1.0
C      1  0.5238650000000  0.4388750000000  0.5003350000000 1.0
C      1  0.4650150000000  0.5647160000000  0.4980710000000 1.0
C      1  0.5213020000000  0.4759650000000  0.4269640000000 1.0
C      1  0.4751020000000  0.5252460000000  0.4271220000000 1.0
C      1  0.4751020000000  0.4759970000000  0.4271190000000 1.0
C      1  0.5213020000000  0.5252750000000  0.4269660000000 1.0
C      1  0.5469650000000  0.4752150000000  0.4452590000000 1.0
C      1  0.4494850000000  0.5260940000000  0.4455100000000 1.0
C      1  0.4494810000000  0.4751510000000  0.4455080000000 1.0
C      1  0.5469670000000  0.5260240000000  0.4452610000000 1.0
C      1  0.4385490000000  0.5255580000000  0.5278770000000 1.0
C      1  0.5624890000000  0.4743110000000  0.5285060000000 1.0
C      1  0.5624890000000  0.5269250000000  0.5285080000000 1.0
C      1  0.4385450000000  0.4756770000000  0.5278760000000 1.0
C      1  0.5481120000000  0.4441380000000  0.5203480000000 1.0
C      1  0.4415220000000  0.5550460000000  0.5162150000000 1.0
C      1  0.4415210000000  0.4461940000000  0.5162070000000 1.0
C      1  0.5481150000000  0.5570970000000  0.5203500000000 1.0
C      1  0.4754420000000  0.4706750000000  0.5628640000000 1.0
C      1  0.5246080000000  0.5304900000000  0.5639990000000 1.0
C      1  0.5246070000000  0.4707410000000  0.5639980000000 1.0
C      1  0.4754450000000  0.5305550000000  0.5628670000000 1.0
C      1  0.4849690000000  0.5267130000000  0.5133260000000 1.0
C      1  0.5192410000000  0.4782540000000  0.5141940000000 1.0
C      1  0.5192420000000  0.5229900000000  0.5141920000000 1.0
C      1  0.4849680000000  0.4745220000000  0.5133230000000 1.0
C      1  0.5589700000000  0.5006190000000  0.4546850000000 1.0
C      1  0.4399790000000  0.5006200000000  0.4569170000000 1.0
C      1  0.4335190000000  0.5006190000000  0.5071210000000 1.0
C      1  0.5700560000000  0.5006180000000  0.5067210000000 1.0
C      1  0.4996790000000  0.4762330000000  0.5776890000000 1.0
C      1  0.4996760000000  0.5249990000000  0.5776920000000 1.0
C      1  0.4940750000000  0.5578500000000  0.5101280000000 1.0
C      1  0.4940710000000  0.4433860000000  0.5101230000000 1.0
C      1  0.4227900000000  0.5006180000000  0.5476310000000 1.0
C      1  0.5716970000000  0.5006160000000  0.5485960000000 1.0
C      1  0.5524590000000  0.5006190000000  0.4829650000000 1.0
C      1  0.4509000000000  0.5006190000000  0.4839460000000 1.0
C      1  0.4981440000000  0.5006200000000  0.4304630000000 1.0
C      1  0.5026350000000  0.5006200000000  0.4645120000000 1.0
C      1  0.5012160000000  0.5006160000000  0.4955150000000 1.0
C      1  0.4992990000000  0.5006140000000  0.5928840000000 1.0
END
