TITL C-3985247-764-13 1.08986852402578e-05 125000 -330.794132716937 0 0 60 (C1) n - 1
REM
REM in /home/nfs/bkarasulu/CARBON/AIRSS/Generating-Clusters/TERSOFF/Higher-Symm/Only-C60
REM
REM
REM
REM
REM
REM ./C.cell (28575a23ae977d3b5fae324c64b13b57)
REM
REM compiler GCC version 9.2.1 20190827 (Red Hat 9.2.1-1)
REM options -cpp -mtune=generic -march=x86-64 -g -O0 -fpre-include=/usr/include/finclude/math-vector-fortran.h
REM seed -1619700088 -2126816890 -1418427983 -1351380340 -64428622 -1332492724 -167459200 -1858158371 1676190269 -1762044503 -1729261000 -1526043592 -630977726 -598908079 -967109692 2067105947 845165305 -831107298 -1889008541 -473003805 -147081497 -1698968168 1781006135 -913858035 905664334 387932091 849367015 1166019975 -186079516 -294955668 -1276468813 -24922942 281458204
REM
CELL 1.54180   50.00000   50.00000   50.00000   90.00000   90.00000   90.00000
LATT -1
SFAC C  
C      1  0.4454910000000  0.5210360000000  0.4723820000000 1.0
C      1  0.4476770000000  0.4793420000000  0.4762640000000 1.0
C      1  0.4519860000000  0.4477960000000  0.5126330000000 1.0
C      1  0.4466830000000  0.4936410000000  0.5297730000000 1.0
C      1  0.4448650000000  0.5319580000000  0.5128470000000 1.0
C      1  0.5505940000000  0.5499930000000  0.5175870000000 1.0
C      1  0.5496850000000  0.5354390000000  0.4484750000000 1.0
C      1  0.5476150000000  0.4634680000000  0.4586210000000 1.0
C      1  0.5494740000000  0.4465500000000  0.5229100000000 1.0
C      1  0.5509050000000  0.5014850000000  0.5684190000000 1.0
C      1  0.4623120000000  0.5430710000000  0.4890390000000 1.0
C      1  0.4617550000000  0.4996930000000  0.4547380000000 1.0
C      1  0.4622880000000  0.4547440000000  0.4855660000000 1.0
C      1  0.4595700000000  0.4654800000000  0.5355980000000 1.0
C      1  0.4622020000000  0.5212910000000  0.5367640000000 1.0
C      1  0.4905150000000  0.5241120000000  0.5242310000000 1.0
C      1  0.4886890000000  0.5278790000000  0.4825560000000 1.0
C      1  0.4893570000000  0.4893800000000  0.4660800000000 1.0
C      1  0.4901430000000  0.4616130000000  0.4974520000000 1.0
C      1  0.4872600000000  0.4833580000000  0.5330870000000 1.0
C      1  0.4963820000000  0.5180640000000  0.5698370000000 1.0
C      1  0.5023770000000  0.5702610000000  0.5062220000000 1.0
C      1  0.5014440000000  0.5242290000000  0.4339550000000 1.0
C      1  0.5023970000000  0.4418620000000  0.4556020000000 1.0
C      1  0.5041060000000  0.4416350000000  0.5439310000000 1.0
C      1  0.5352940000000  0.4842930000000  0.4400360000000 1.0
C      1  0.5325970000000  0.4334410000000  0.4993540000000 1.0
C      1  0.5322270000000  0.4831410000000  0.5552400000000 1.0
C      1  0.5340530000000  0.5469630000000  0.5441260000000 1.0
C      1  0.5314710000000  0.5509650000000  0.4680950000000 1.0
C      1  0.5037570000000  0.4928170000000  0.5556490000000 1.0
C      1  0.5073220000000  0.5481420000000  0.5262150000000 1.0
C      1  0.5056930000000  0.5366810000000  0.4607390000000 1.0
C      1  0.5071350000000  0.4716580000000  0.4510160000000 1.0
C      1  0.5063640000000  0.4419650000000  0.5133740000000 1.0
C      1  0.5230100000000  0.5744780000000  0.4856860000000 1.0
C      1  0.5228360000000  0.5074440000000  0.4234410000000 1.0
C      1  0.5230070000000  0.4259690000000  0.4698450000000 1.0
C      1  0.5262280000000  0.4533450000000  0.5597630000000 1.0
C      1  0.5161120000000  0.5396100000000  0.5694890000000 1.0
C      1  0.5511890000000  0.5069120000000  0.4567580000000 1.0
C      1  0.5380820000000  0.4618830000000  0.4855290000000 1.0
C      1  0.5421580000000  0.4749150000000  0.5274400000000 1.0
C      1  0.5555080000000  0.5289160000000  0.5596110000000 1.0
C      1  0.5446380000000  0.5360470000000  0.4924700000000 1.0
C      1  0.4742710000000  0.5139320000000  0.4309170000000 1.0
C      1  0.4743350000000  0.4369730000000  0.4641120000000 1.0
C      1  0.4772000000000  0.4479270000000  0.5534090000000 1.0
C      1  0.4683420000000  0.5256280000000  0.5654610000000 1.0
C      1  0.4746990000000  0.5698620000000  0.4961670000000 1.0
C      1  0.6307220000000  0.5052060000000  0.4944640000000 1.0
C      1  0.5521280000000  0.5070320000000  0.4881460000000 1.0
C      1  0.5796810000000  0.5013660000000  0.4978520000000 1.0
C      1  0.3538540000000  0.5184670000000  0.4989350000000 1.0
C      1  0.6038760000000  0.5118340000000  0.4859090000000 1.0
C      1  0.5316750000000  0.4878890000000  0.5011510000000 1.0
C      1  0.4012580000000  0.4988630000000  0.4992060000000 1.0
C      1  0.4305900000000  0.5014970000000  0.4989740000000 1.0
C      1  0.3826790000000  0.5210390000000  0.4983530000000 1.0
C      1  0.4970240000000  0.4971970000000  0.5006620000000 1.0
END
