TITL C-3985253-1688-153 -5.70429910796494e-07 125000 -349.229036614055 0 0 60 (C5) n - 1
REM
REM in /home/nfs/bkarasulu/CARBON/AIRSS/Generating-Clusters/TERSOFF/Higher-Symm/Only-C60
REM
REM
REM
REM
REM
REM ./C.cell (28575a23ae977d3b5fae324c64b13b57)
REM
REM compiler GCC version 9.2.1 20190827 (Red Hat 9.2.1-1)
REM options -cpp -mtune=generic -march=x86-64 -g -O0 -fpre-include=/usr/include/finclude/math-vector-fortran.h
REM seed 1840337710 1288344146 922997586 2020126314 -1437638714 -1691211708 -1970564824 -1104244723 -2059438855 705832840 128732316 -115364435 -759084666 744940370 310501288 747495521 -604337978 -1084764023 -524914987 -1769411714 -951739795 1655300328 -169401298 -1494267 1711814791 -288795880 -312912178 570600376 738230869 1588527661 -1566280366 1980400853 937434353
REM
CELL 1.54180   50.00000   50.00000   50.00000   90.00000   90.00000   90.00000
LATT -1
SFAC C  
C      1  0.4938950000000  0.4663270000000  0.4247970000000 1.0
C      1  0.4938940000000  0.4180720000000  0.5087860000000 1.0
C      1  0.4938940000000  0.4830390000000  0.5806330000000 1.0
C      1  0.4938950000000  0.5714450000000  0.5410480000000 1.0
C      1  0.4938950000000  0.5611170000000  0.4447360000000 1.0
C      1  0.4709350000000  0.4337870000000  0.4991600000000 1.0
C      1  0.4709350000000  0.4787400000000  0.5627130000000 1.0
C      1  0.4709360000000  0.5530740000000  0.5395990000000 1.0
C      1  0.4709360000000  0.5540620000000  0.4617600000000 1.0
C      1  0.4709350000000  0.4803380000000  0.4367670000000 1.0
C      1  0.4584360000000  0.5505020000000  0.5124030000000 1.0
C      1  0.4584360000000  0.5274020000000  0.4558030000000 1.0
C      1  0.4584360000000  0.4664340000000  0.4602810000000 1.0
C      1  0.4584360000000  0.4518530000000  0.5196490000000 1.0
C      1  0.4584360000000  0.5038100000000  0.5518620000000 1.0
C      1  0.5546390000000  0.5115050000000  0.4526450000000 1.0
C      1  0.5546390000000  0.4585170000000  0.4744250000000 1.0
C      1  0.5546390000000  0.4628570000000  0.5315490000000 1.0
C      1  0.5546390000000  0.5185270000000  0.5450750000000 1.0
C      1  0.5546400000000  0.5485930000000  0.4963080000000 1.0
C      1  0.5396920000000  0.4787590000000  0.4514520000000 1.0
C      1  0.5396910000000  0.4472640000000  0.5051990000000 1.0
C      1  0.5396920000000  0.4886480000000  0.5517620000000 1.0
C      1  0.5396920000000  0.5457200000000  0.5267910000000 1.0
C      1  0.5396920000000  0.5396080000000  0.4647970000000 1.0
C      1  0.4871000000000  0.5120480000000  0.5222910000000 1.0
C      1  0.4871000000000  0.5249240000000  0.4954300000000 1.0
C      1  0.4871000000000  0.5033560000000  0.4748840000000 1.0
C      1  0.4871000000000  0.4771500000000  0.4890470000000 1.0
C      1  0.4871000000000  0.4825220000000  0.5183470000000 1.0
C      1  0.4420260000000  0.5140960000000  0.4777320000000 1.0
C      1  0.4420260000000  0.4831790000000  0.4797130000000 1.0
C      1  0.4420260000000  0.4755080000000  0.5097290000000 1.0
C      1  0.4420260000000  0.5016850000000  0.5262990000000 1.0
C      1  0.4420260000000  0.5255330000000  0.5065240000000 1.0
C      1  0.5268170000000  0.4899690000000  0.4771610000000 1.0
C      1  0.5268170000000  0.4751790000000  0.5024830000000 1.0
C      1  0.5268170000000  0.4946910000000  0.5243730000000 1.0
C      1  0.5268180000000  0.5215400000000  0.5125810000000 1.0
C      1  0.5268180000000  0.5186210000000  0.4834030000000 1.0
C      1  0.4797560000000  0.4502600000000  0.4761470000000 1.0
C      1  0.4797560000000  0.4619450000000  0.5399340000000 1.0
C      1  0.4797560000000  0.5262200000000  0.5485330000000 1.0
C      1  0.4797570000000  0.5542610000000  0.4900610000000 1.0
C      1  0.4797560000000  0.5073150000000  0.4453240000000 1.0
C      1  0.5056960000000  0.5268630000000  0.5640940000000 1.0
C      1  0.5056970000000  0.5692590000000  0.4942580000000 1.0
C      1  0.5056960000000  0.5159410000000  0.4323570000000 1.0
C      1  0.5056960000000  0.4405930000000  0.4639360000000 1.0
C      1  0.5056960000000  0.4473440000000  0.5453550000000 1.0
C      1  0.5253510000000  0.4951790000000  0.4273610000000 1.0
C      1  0.5253510000000  0.4294260000000  0.4821390000000 1.0
C      1  0.5253510000000  0.4612040000000  0.5616000000000 1.0
C      1  0.5253510000000  0.5465970000000  0.5559330000000 1.0
C      1  0.5253520000000  0.5675940000000  0.4729680000000 1.0
C      1  0.5156560000000  0.5688190000000  0.5216470000000 1.0
C      1  0.5156560000000  0.5418530000000  0.4412390000000 1.0
C      1  0.5156560000000  0.4570480000000  0.4420370000000 1.0
C      1  0.5156560000000  0.4316010000000  0.5229380000000 1.0
C      1  0.5156560000000  0.5006790000000  0.5721400000000 1.0
END
