TITL C-3985254-1270-1497 3.45146136129959e-07 125000 -295.551846149501 0 0 60 (C3h) n - 1
REM
REM in /home/nfs/bkarasulu/CARBON/AIRSS/Generating-Clusters/TERSOFF/Higher-Symm/Only-C60
REM
REM
REM
REM
REM
REM ./C.cell (28575a23ae977d3b5fae324c64b13b57)
REM
REM compiler GCC version 9.2.1 20190827 (Red Hat 9.2.1-1)
REM options -cpp -mtune=generic -march=x86-64 -g -O0 -fpre-include=/usr/include/finclude/math-vector-fortran.h
REM seed 1728403867 1431850149 1292604578 -833112386 -993193212 -545380881 1012310796 -672045601 1836586017 -1036149221 -791953464 1609191956 958364811 -93356594 255133237 101488554 -2022800433 -2071698614 237597418 -1120861161 1220334433 -2110329292 1246974986 499759947 -1538038789 796721597 1711033562 -1243042129 -697100037 222713087 -388449971 669847708 -2083137593
REM
CELL 1.54180   50.00000   50.00000   50.00000   90.00000   90.00000   90.00000
LATT -1
SFAC C  
C      1  0.5086310000000  0.4849830000000  0.5640560000000 1.0
C      1  0.4402120000000  0.4849830000000  0.4754490000000 1.0
C      1  0.5511540000000  0.4849840000000  0.4604990000000 1.0
C      1  0.5086310000000  0.5150170000000  0.5640560000000 1.0
C      1  0.4402120000000  0.5150170000000  0.4754490000000 1.0
C      1  0.5511540000000  0.5150160000000  0.4604990000000 1.0
C      1  0.4790040000000  0.5176180000000  0.4296320000000 1.0
C      1  0.5714360000000  0.5176180000000  0.5170020000000 1.0
C      1  0.4495610000000  0.5176180000000  0.5533650000000 1.0
C      1  0.4790040000000  0.4823820000000  0.4296320000000 1.0
C      1  0.5714360000000  0.4823820000000  0.5170020000000 1.0
C      1  0.4495610000000  0.4823820000000  0.5533650000000 1.0
C      1  0.5022030000000  0.5180800000000  0.5205780000000 1.0
C      1  0.4810750000000  0.5180810000000  0.4916160000000 1.0
C      1  0.5167220000000  0.5180810000000  0.4877990000000 1.0
C      1  0.5022030000000  0.4819200000000  0.5205780000000 1.0
C      1  0.4810750000000  0.4819190000000  0.4916160000000 1.0
C      1  0.5167220000000  0.4819190000000  0.4877990000000 1.0
C      1  0.4643870000000  0.5466970000000  0.5057330000000 1.0
C      1  0.5128410000000  0.5466980000000  0.4662890000000 1.0
C      1  0.5227720000000  0.5466960000000  0.5279780000000 1.0
C      1  0.4643870000000  0.4533030000000  0.5057330000000 1.0
C      1  0.5128410000000  0.4533020000000  0.4662890000000 1.0
C      1  0.5227720000000  0.4533040000000  0.5279780000000 1.0
C      1  0.5494400000000  0.5242720000000  0.4905620000000 1.0
C      1  0.4834560000000  0.5242700000000  0.5475340000000 1.0
C      1  0.4671050000000  0.5242710000000  0.4619020000000 1.0
C      1  0.5494400000000  0.4757280000000  0.4905620000000 1.0
C      1  0.4834560000000  0.4757300000000  0.5475340000000 1.0
C      1  0.4671050000000  0.4757290000000  0.4619020000000 1.0
C      1  0.5259650000000  0.4287580000000  0.4757090000000 1.0
C      1  0.5080500000000  0.4287600000000  0.5346330000000 1.0
C      1  0.4659830000000  0.4287580000000  0.4896570000000 1.0
C      1  0.5259650000000  0.5712420000000  0.4757090000000 1.0
C      1  0.5080500000000  0.5712400000000  0.5346330000000 1.0
C      1  0.4659830000000  0.5712420000000  0.4896570000000 1.0
C      1  0.5458610000000  0.5498960000000  0.5087830000000 1.0
C      1  0.4694670000000  0.5498950000000  0.5353260000000 1.0
C      1  0.4846730000000  0.5498960000000  0.4558910000000 1.0
C      1  0.5458610000000  0.4501040000000  0.5087830000000 1.0
C      1  0.4694670000000  0.4501050000000  0.5353260000000 1.0
C      1  0.4846730000000  0.4501040000000  0.4558910000000 1.0
C      1  0.4391980000000  0.5292890000000  0.5018410000000 1.0
C      1  0.5288060000000  0.5292890000000  0.4464220000000 1.0
C      1  0.5319950000000  0.5292900000000  0.5517380000000 1.0
C      1  0.4391980000000  0.4707110000000  0.5018410000000 1.0
C      1  0.5288060000000  0.4707110000000  0.4464220000000 1.0
C      1  0.5319950000000  0.4707100000000  0.5517380000000 1.0
C      1  0.4445670000000  0.4490590000000  0.5545040000000 1.0
C      1  0.4805160000000  0.4490590000000  0.4247370000000 1.0
C      1  0.5749180000000  0.4490590000000  0.5207620000000 1.0
C      1  0.4445670000000  0.5509410000000  0.5545040000000 1.0
C      1  0.4805160000000  0.5509410000000  0.4247370000000 1.0
C      1  0.5749180000000  0.5509410000000  0.5207620000000 1.0
C      1  0.5568980000000  0.5149330000000  0.5465420000000 1.0
C      1  0.4312480000000  0.5149330000000  0.5260060000000 1.0
C      1  0.5118550000000  0.5149330000000  0.4274540000000 1.0
C      1  0.5568980000000  0.4850670000000  0.5465420000000 1.0
C      1  0.4312480000000  0.4850670000000  0.5260060000000 1.0
C      1  0.5118550000000  0.4850670000000  0.4274540000000 1.0
END
