TITL C-3985246-2097-83 -0.00195143352209118 125000 -303.581109289928 0 0 60 (C1) n - 1
REM
REM in /home/nfs/bkarasulu/CARBON/AIRSS/Generating-Clusters/TERSOFF/Higher-Symm/Only-C60
REM
REM
REM
REM
REM
REM ./C.cell (28575a23ae977d3b5fae324c64b13b57)
REM
REM compiler GCC version 9.2.1 20190827 (Red Hat 9.2.1-1)
REM options -cpp -mtune=generic -march=x86-64 -g -O0 -fpre-include=/usr/include/finclude/math-vector-fortran.h
REM seed 451361504 -871811083 1472170205 -380635728 -200980256 -72253264 47837417 1714168860 754918228 1114678607 -1802408241 197528697 1683199481 -1685176885 -2006859845 1077004927 1829258323 953351249 1484544888 1735533002 -143949447 -181780595 506536999 505376275 -888592925 1227888963 1089425759 -1494822317 823290026 -576928619 -851751346 902309919 218299362
REM
CELL 1.54180   50.00000   50.00000   50.00000   90.00000   90.00000   90.00000
LATT -1
SFAC C  
C      1  0.5537770000000  0.4973190000000  0.4496160000000 1.0
C      1  0.4749190000000  0.5487970000000  0.4500220000000 1.0
C      1  0.4690050000000  0.4533440000000  0.4513450000000 1.0
C      1  0.4509580000000  0.4662030000000  0.5247730000000 1.0
C      1  0.5559440000000  0.4750430000000  0.5236850000000 1.0
C      1  0.4954500000000  0.5593570000000  0.5247200000000 1.0
C      1  0.4732360000000  0.5150000000000  0.4191490000000 1.0
C      1  0.4998350000000  0.4692200000000  0.4208220000000 1.0
C      1  0.5260820000000  0.5152530000000  0.4209030000000 1.0
C      1  0.4658770000000  0.4550620000000  0.5497280000000 1.0
C      1  0.5597810000000  0.4915020000000  0.5488430000000 1.0
C      1  0.4788610000000  0.5504580000000  0.5485040000000 1.0
C      1  0.5394990000000  0.4832410000000  0.5677870000000 1.0
C      1  0.4948580000000  0.5334730000000  0.5658700000000 1.0
C      1  0.4689770000000  0.4776230000000  0.5675860000000 1.0
C      1  0.5246730000000  0.4451990000000  0.5008800000000 1.0
C      1  0.5358370000000  0.5489880000000  0.5001670000000 1.0
C      1  0.4399980000000  0.5067450000000  0.4986540000000 1.0
C      1  0.5203530000000  0.5309510000000  0.4593160000000 1.0
C      1  0.4634020000000  0.5026890000000  0.4579420000000 1.0
C      1  0.5157750000000  0.4664870000000  0.4594670000000 1.0
C      1  0.5140980000000  0.5525760000000  0.4788890000000 1.0
C      1  0.4485530000000  0.4871650000000  0.4776900000000 1.0
C      1  0.5381840000000  0.4604650000000  0.4781940000000 1.0
C      1  0.5517250000000  0.5185860000000  0.4995850000000 1.0
C      1  0.4576090000000  0.5357500000000  0.5002820000000 1.0
C      1  0.4911650000000  0.4468720000000  0.5019530000000 1.0
C      1  0.4797280000000  0.5553930000000  0.4798220000000 1.0
C      1  0.4618740000000  0.4544690000000  0.4821820000000 1.0
C      1  0.5575890000000  0.4895010000000  0.4789660000000 1.0
C      1  0.5266060000000  0.4864030000000  0.5088780000000 1.0
C      1  0.4978430000000  0.5289620000000  0.5096690000000 1.0
C      1  0.4751230000000  0.4846610000000  0.5107560000000 1.0
C      1  0.5186570000000  0.5038820000000  0.4781720000000 1.0
C      1  0.4868190000000  0.5143910000000  0.4784090000000 1.0
C      1  0.4929250000000  0.4818700000000  0.4792120000000 1.0
C      1  0.5020840000000  0.4738620000000  0.5220520000000 1.0
C      1  0.5223100000000  0.5148230000000  0.5203510000000 1.0
C      1  0.4732950000000  0.5129370000000  0.5234370000000 1.0
C      1  0.4499450000000  0.5441320000000  0.5448730000000 1.0
C      1  0.4896280000000  0.4373100000000  0.5471980000000 1.0
C      1  0.5633660000000  0.5207260000000  0.5467740000000 1.0
C      1  0.4388780000000  0.5157270000000  0.5482490000000 1.0
C      1  0.5175880000000  0.4480970000000  0.5511710000000 1.0
C      1  0.5395770000000  0.5382860000000  0.5504410000000 1.0
C      1  0.5277960000000  0.5561700000000  0.5279120000000 1.0
C      1  0.4346210000000  0.4954960000000  0.5252420000000 1.0
C      1  0.5368650000000  0.4492460000000  0.5275010000000 1.0
C      1  0.4523310000000  0.5284870000000  0.4416710000000 1.0
C      1  0.4982290000000  0.4446090000000  0.4425300000000 1.0
C      1  0.5483180000000  0.5275090000000  0.4423610000000 1.0
C      1  0.5275610000000  0.4841530000000  0.4314820000000 1.0
C      1  0.4990830000000  0.5320700000000  0.4311940000000 1.0
C      1  0.4722070000000  0.4831960000000  0.4313070000000 1.0
C      1  0.4859500000000  0.5834460000000  0.5109600000000 1.0
C      1  0.4415010000000  0.4467060000000  0.5040410000000 1.0
C      1  0.5804040000000  0.4698980000000  0.5082980000000 1.0
C      1  0.5162980000000  0.5157180000000  0.5547290000000 1.0
C      1  0.4660140000000  0.5043390000000  0.5571110000000 1.0
C      1  0.5105580000000  0.4801550000000  0.5566800000000 1.0
END
