TITL C-3985256-5419-114 -7.22508557915662e-08 125000 -281.521300188228 0 0 60 (C4h) n - 1
REM
REM in /home/nfs/bkarasulu/CARBON/AIRSS/Generating-Clusters/TERSOFF/Higher-Symm/Only-C60
REM
REM
REM
REM
REM
REM ./C.cell (28575a23ae977d3b5fae324c64b13b57)
REM
REM compiler GCC version 9.2.1 20190827 (Red Hat 9.2.1-1)
REM options -cpp -mtune=generic -march=x86-64 -g -O0 -fpre-include=/usr/include/finclude/math-vector-fortran.h
REM seed 1629885326 -672303112 -154352530 -1475579818 1935829529 1062384773 -86262958 -1112491951 -1856979629 -1925849552 -789006536 675200607 -887366712 2050548720 237641861 -548507134 -2145190286 975562452 -236639793 -256929320 -2008516248 -71113217 -1037956605 -897441431 1512071299 770321102 -69414509 -1557763089 -1370927945 -1634675419 748408045 609409106 2052203252
REM
CELL 1.54180   50.00000   50.00000   50.00000   90.00000   90.00000   90.00000
LATT -1
SFAC C  
C      1  0.4755410000000  0.5692070000000  0.5040240000000 1.0
C      1  0.4959760000000  0.5692070000000  0.4755410000000 1.0
C      1  0.5244590000000  0.5692070000000  0.4959760000000 1.0
C      1  0.5040240000000  0.5692070000000  0.5244590000000 1.0
C      1  0.4755410000000  0.4276840000000  0.5040240000000 1.0
C      1  0.4959760000000  0.4276840000000  0.4755410000000 1.0
C      1  0.5244590000000  0.4276840000000  0.4959760000000 1.0
C      1  0.5040240000000  0.4276840000000  0.5244590000000 1.0
C      1  0.4309970000000  0.4758130000000  0.4780070000000 1.0
C      1  0.5219930000000  0.4758130000000  0.4309970000000 1.0
C      1  0.5690030000000  0.4758130000000  0.5219930000000 1.0
C      1  0.4780070000000  0.4758130000000  0.5690030000000 1.0
C      1  0.4309970000000  0.5210780000000  0.4780070000000 1.0
C      1  0.5219930000000  0.5210780000000  0.4309970000000 1.0
C      1  0.5690030000000  0.5210780000000  0.5219930000000 1.0
C      1  0.4780070000000  0.5210780000000  0.5690030000000 1.0
C      1  0.5451370000000  0.5200770000000  0.4755860000000 1.0
C      1  0.5244140000000  0.5200770000000  0.5451370000000 1.0
C      1  0.4548630000000  0.5200770000000  0.5244140000000 1.0
C      1  0.4755860000000  0.5200770000000  0.4548630000000 1.0
C      1  0.5451370000000  0.4768140000000  0.4755860000000 1.0
C      1  0.5244140000000  0.4768140000000  0.5451370000000 1.0
C      1  0.4548630000000  0.4768140000000  0.5244140000000 1.0
C      1  0.4755860000000  0.4768140000000  0.4548630000000 1.0
C      1  0.4726260000000  0.5480680000000  0.5598010000000 1.0
C      1  0.4401990000000  0.5480680000000  0.4726260000000 1.0
C      1  0.5273740000000  0.5480680000000  0.4401990000000 1.0
C      1  0.5598010000000  0.5480680000000  0.5273740000000 1.0
C      1  0.4726260000000  0.4488230000000  0.5598010000000 1.0
C      1  0.4401990000000  0.4488230000000  0.4726260000000 1.0
C      1  0.5273740000000  0.4488230000000  0.4401990000000 1.0
C      1  0.5598010000000  0.4488230000000  0.5273740000000 1.0
C      1  0.4757380000000  0.5164850000000  0.4972030000000 1.0
C      1  0.5027970000000  0.5164850000000  0.4757380000000 1.0
C      1  0.5242620000000  0.5164850000000  0.5027970000000 1.0
C      1  0.4972030000000  0.5164850000000  0.5242620000000 1.0
C      1  0.4757380000000  0.4804050000000  0.4972030000000 1.0
C      1  0.5027970000000  0.4804050000000  0.4757380000000 1.0
C      1  0.5242620000000  0.4804050000000  0.5027970000000 1.0
C      1  0.4972030000000  0.4804050000000  0.5242620000000 1.0
C      1  0.5300900000000  0.4509520000000  0.5231730000000 1.0
C      1  0.4768270000000  0.4509520000000  0.5300900000000 1.0
C      1  0.4699100000000  0.4509520000000  0.4768270000000 1.0
C      1  0.5231730000000  0.4509520000000  0.4699100000000 1.0
C      1  0.5300900000000  0.5459390000000  0.5231730000000 1.0
C      1  0.4768270000000  0.5459390000000  0.5300900000000 1.0
C      1  0.4699100000000  0.5459390000000  0.4768270000000 1.0
C      1  0.5231730000000  0.5459390000000  0.4699100000000 1.0
C      1  0.4929390000000  0.4835510000000  0.4292330000000 1.0
C      1  0.5707670000000  0.4835510000000  0.4929390000000 1.0
C      1  0.5070610000000  0.4835510000000  0.5707670000000 1.0
C      1  0.4292330000000  0.4835510000000  0.5070610000000 1.0
C      1  0.4929390000000  0.5133400000000  0.4292330000000 1.0
C      1  0.5707670000000  0.5133400000000  0.4929390000000 1.0
C      1  0.5070610000000  0.5133400000000  0.5707670000000 1.0
C      1  0.4292330000000  0.5133400000000  0.5070610000000 1.0
C      1  0.5400170000000  0.4984450000000  0.4472630000000 1.0
C      1  0.4599830000000  0.4984450000000  0.5527370000000 1.0
C      1  0.5527370000000  0.4984450000000  0.5400170000000 1.0
C      1  0.4472630000000  0.4984450000000  0.4599830000000 1.0
END
