TITL C-3985258-5380-12 0.000972451991685123 125000 -353.044448396436 0 0 60 (C5) n - 1
REM
REM in /home/nfs/bkarasulu/CARBON/AIRSS/Generating-Clusters/TERSOFF/Higher-Symm/Only-C60
REM
REM
REM
REM
REM
REM ./C.cell (28575a23ae977d3b5fae324c64b13b57)
REM
REM compiler GCC version 9.2.1 20190827 (Red Hat 9.2.1-1)
REM options -cpp -mtune=generic -march=x86-64 -g -O0 -fpre-include=/usr/include/finclude/math-vector-fortran.h
REM seed 1759294112 -443434343 -1993622946 1758184184 1935828073 1019898979 -502875420 -805794228 -907644016 302723104 517613304 -1933752162 295475680 18471684 1601003932 -1814262145 932861692 76769029 -1659291499 -1837875749 -239427037 603599278 2004468957 -1241990995 272969134 1595376778 420971637 -250693380 518815814 1909556178 64425103 1501461194 -565082459
REM
CELL 1.54180   50.00000   50.00000   50.00000   90.00000   90.00000   90.00000
LATT -1
SFAC C  
C      1  0.5706830000000  0.5190230000000  0.5099360000000 1.0
C      1  0.5313060000000  0.5190100000000  0.4358810000000 1.0
C      1  0.4486240000000  0.5190200000000  0.4504220000000 1.0
C      1  0.4369940000000  0.5190110000000  0.5334430000000 1.0
C      1  0.5123990000000  0.5190260000000  0.5702950000000 1.0
C      1  0.5564800000000  0.4967850000000  0.5555920000000 1.0
C      1  0.5703320000000  0.4967960000000  0.4634610000000 1.0
C      1  0.4869860000000  0.4967900000000  0.4218420000000 1.0
C      1  0.4216050000000  0.4967820000000  0.4882050000000 1.0
C      1  0.4645820000000  0.4967860000000  0.5708950000000 1.0
C      1  0.5066370000000  0.4438870000000  0.5247110000000 1.0
C      1  0.5255570000000  0.4438850000000  0.5013250000000 1.0
C      1  0.5091560000000  0.4438740000000  0.4761040000000 1.0
C      1  0.4801020000000  0.4438850000000  0.4839080000000 1.0
C      1  0.4785430000000  0.4438710000000  0.5139510000000 1.0
C      1  0.4820270000000  0.4734710000000  0.5779580000000 1.0
C      1  0.5685860000000  0.4734780000000  0.5411900000000 1.0
C      1  0.5603560000000  0.4734750000000  0.4475010000000 1.0
C      1  0.4687190000000  0.4734790000000  0.4263590000000 1.0
C      1  0.4203140000000  0.4734780000000  0.5069920000000 1.0
C      1  0.4399660000000  0.4945520000000  0.5509240000000 1.0
C      1  0.5298840000000  0.4945460000000  0.5728100000000 1.0
C      1  0.5784800000000  0.4945510000000  0.4940810000000 1.0
C      1  0.5186320000000  0.4945470000000  0.4235090000000 1.0
C      1  0.4330310000000  0.4945330000000  0.4586560000000 1.0
C      1  0.5176330000000  0.5205930000000  0.4629320000000 1.0
C      1  0.4702240000000  0.5205730000000  0.4717640000000 1.0
C      1  0.4639330000000  0.5205870000000  0.5196330000000 1.0
C      1  0.5075090000000  0.5205880000000  0.5403550000000 1.0
C      1  0.5407000000000  0.5205690000000  0.5053430000000 1.0
C      1  0.4766360000000  0.5454550000000  0.5542080000000 1.0
C      1  0.5443440000000  0.5454520000000  0.5389740000000 1.0
C      1  0.5507580000000  0.5454470000000  0.4698950000000 1.0
C      1  0.4870440000000  0.5454570000000  0.4424140000000 1.0
C      1  0.4412200000000  0.5454550000000  0.4945440000000 1.0
C      1  0.5061050000000  0.4950890000000  0.5246370000000 1.0
C      1  0.5253130000000  0.4950870000000  0.5018040000000 1.0
C      1  0.5095400000000  0.4950920000000  0.4764750000000 1.0
C      1  0.4805920000000  0.4950880000000  0.4836620000000 1.0
C      1  0.4784610000000  0.4950920000000  0.5134250000000 1.0
C      1  0.4726450000000  0.5223630000000  0.4298870000000 1.0
C      1  0.4248100000000  0.5223880000000  0.5043600000000 1.0
C      1  0.4809290000000  0.5223640000000  0.5728120000000 1.0
C      1  0.5633680000000  0.5223680000000  0.5406450000000 1.0
C      1  0.5582430000000  0.5223910000000  0.4523040000000 1.0
C      1  0.5407670000000  0.4692720000000  0.5024150000000 1.0
C      1  0.5148860000000  0.4692640000000  0.4619690000000 1.0
C      1  0.4684340000000  0.4692710000000  0.4740850000000 1.0
C      1  0.4656050000000  0.4692670000000  0.5220210000000 1.0
C      1  0.5103060000000  0.4692720000000  0.5395170000000 1.0
C      1  0.4885610000000  0.5486140000000  0.4742710000000 1.0
C      1  0.4719950000000  0.5485260000000  0.5029810000000 1.0
C      1  0.4941490000000  0.5485840000000  0.5275310000000 1.0
C      1  0.5243860000000  0.5485610000000  0.5140610000000 1.0
C      1  0.5209260000000  0.5485560000000  0.4811270000000 1.0
C      1  0.4512930000000  0.4709430000000  0.4508460000000 1.0
C      1  0.4382140000000  0.4709640000000  0.5311380000000 1.0
C      1  0.5105190000000  0.4709530000000  0.5683890000000 1.0
C      1  0.5682920000000  0.4709580000000  0.5111360000000 1.0
C      1  0.5316800000000  0.4709530000000  0.4384880000000 1.0
END
