TITL C-3985250-725-1070 0.012701526121836 125000 -311.824826479447 0 0 60 (C1) n - 1
REM
REM in /home/nfs/bkarasulu/CARBON/AIRSS/Generating-Clusters/TERSOFF/Higher-Symm/Only-C60
REM
REM
REM
REM
REM
REM ./C.cell (28575a23ae977d3b5fae324c64b13b57)
REM
REM compiler GCC version 9.2.1 20190827 (Red Hat 9.2.1-1)
REM options -cpp -mtune=generic -march=x86-64 -g -O0 -fpre-include=/usr/include/finclude/math-vector-fortran.h
REM seed -427235714 -74576575 -1867446915 1980880203 1574477757 521614392 249335194 -574282975 -377121174 -1668235764 316058791 1385700090 -1549842792 -2091260422 -1072181929 1268850171 1455070876 -1235154842 261545234 2050943389 -387678883 -512657191 1583590702 762760547 -373146426 -272493635 -1529303184 668219416 1946548137 925797462 335661931 306312774 1444791896
REM
CELL 1.54180   50.00000   50.00000   50.00000   90.00000   90.00000   90.00000
LATT -1
SFAC C  
C      1  0.5004420000000  0.5307820000000  0.4437370000000 1.0
C      1  0.5003970000000  0.4691370000000  0.4437870000000 1.0
C      1  0.5062200000000  0.5462620000000  0.5040900000000 1.0
C      1  0.5062010000000  0.4537650000000  0.5040910000000 1.0
C      1  0.4676780000000  0.4375110000000  0.5005300000000 1.0
C      1  0.4678000000000  0.5625720000000  0.5004420000000 1.0
C      1  0.4433460000000  0.4523390000000  0.4923070000000 1.0
C      1  0.4434850000000  0.5476760000000  0.4922480000000 1.0
C      1  0.5495580000000  0.4718110000000  0.5181560000000 1.0
C      1  0.5495150000000  0.5282380000000  0.5181740000000 1.0
C      1  0.5454710000000  0.5170170000000  0.4669400000000 1.0
C      1  0.5455020000000  0.4829690000000  0.4669050000000 1.0
C      1  0.5222680000000  0.4848540000000  0.5269900000000 1.0
C      1  0.5222260000000  0.5150470000000  0.5270650000000 1.0
C      1  0.4496530000000  0.5283750000000  0.4682030000000 1.0
C      1  0.4495960000000  0.4716590000000  0.4683110000000 1.0
C      1  0.4729260000000  0.4845180000000  0.5699230000000 1.0
C      1  0.4729210000000  0.5153380000000  0.5699320000000 1.0
C      1  0.5607910000000  0.5146520000000  0.4943090000000 1.0
C      1  0.5608210000000  0.4854230000000  0.4942900000000 1.0
C      1  0.4829400000000  0.5741410000000  0.4773700000000 1.0
C      1  0.4827800000000  0.4259420000000  0.4774570000000 1.0
C      1  0.5064480000000  0.4395210000000  0.4634030000000 1.0
C      1  0.5066010000000  0.5604490000000  0.4632580000000 1.0
C      1  0.5128040000000  0.5147930000000  0.4203610000000 1.0
C      1  0.5127980000000  0.4851180000000  0.4203780000000 1.0
C      1  0.5142920000000  0.4844580000000  0.4660810000000 1.0
C      1  0.5142730000000  0.5155520000000  0.4660920000000 1.0
C      1  0.5542410000000  0.4445920000000  0.5046910000000 1.0
C      1  0.5541840000000  0.5554620000000  0.5047170000000 1.0
C      1  0.4860980000000  0.4503850000000  0.5288940000000 1.0
C      1  0.4860880000000  0.5496560000000  0.5288400000000 1.0
C      1  0.4731650000000  0.5155540000000  0.4493780000000 1.0
C      1  0.4731650000000  0.4844170000000  0.4494110000000 1.0
C      1  0.4262190000000  0.5360570000000  0.5134790000000 1.0
C      1  0.4259500000000  0.4639310000000  0.5135140000000 1.0
C      1  0.5243970000000  0.4819390000000  0.5598630000000 1.0
C      1  0.5244350000000  0.5180520000000  0.5598950000000 1.0
C      1  0.4953150000000  0.4692830000000  0.5572430000000 1.0
C      1  0.4952950000000  0.5305930000000  0.5571980000000 1.0
C      1  0.5585540000000  0.4836490000000  0.5478690000000 1.0
C      1  0.5586460000000  0.5163990000000  0.5478930000000 1.0
C      1  0.4703400000000  0.5147660000000  0.4912790000000 1.0
C      1  0.4703460000000  0.4852650000000  0.4912830000000 1.0
C      1  0.4660750000000  0.4754790000000  0.5190450000000 1.0
C      1  0.4659980000000  0.5245200000000  0.5190370000000 1.0
C      1  0.5817020000000  0.4491760000000  0.4913600000000 1.0
C      1  0.5816720000000  0.5509310000000  0.4914220000000 1.0
C      1  0.4464500000000  0.5247310000000  0.5613050000000 1.0
C      1  0.4464800000000  0.4750870000000  0.5612770000000 1.0
C      1  0.4983420000000  0.5240560000000  0.4884600000000 1.0
C      1  0.4983250000000  0.4759580000000  0.4884680000000 1.0
C      1  0.5925460000000  0.4817890000000  0.4891290000000 1.0
C      1  0.5925390000000  0.5183320000000  0.4891570000000 1.0
C      1  0.5277530000000  0.4354600000000  0.4913580000000 1.0
C      1  0.5276920000000  0.5645120000000  0.4913710000000 1.0
C      1  0.4391640000000  0.5164300000000  0.5336570000000 1.0
C      1  0.4391410000000  0.4835270000000  0.5336240000000 1.0
C      1  0.4249720000000  0.5142330000000  0.4605010000000 1.0
C      1  0.4249600000000  0.4858590000000  0.4605520000000 1.0
END
