TITL C-3985245-9316-648 0.000561565897065074 125000 -322.289603088615 0 0 60 (C2) n - 1
REM
REM in /home/nfs/bkarasulu/CARBON/AIRSS/Generating-Clusters/TERSOFF/Higher-Symm/Only-C60
REM
REM
REM
REM
REM
REM ./C.cell (28575a23ae977d3b5fae324c64b13b57)
REM
REM compiler GCC version 9.2.1 20190827 (Red Hat 9.2.1-1)
REM options -cpp -mtune=generic -march=x86-64 -g -O0 -fpre-include=/usr/include/finclude/math-vector-fortran.h
REM seed -1750222505 -951874561 371161986 -739352959 -922744112 1667341569 1444593080 -1574416536 2061227919 -1361343721 -939220515 -892763424 1065894708 -2007285320 1714600185 1371924248 1997667933 842220636 -341915709 1266359356 24966771 -1082987050 1637567470 113978802 658199838 952080798 -593967645 -2026683347 -676774894 -264143021 1757267366 115739941 1576079261
REM
CELL 1.54180   50.00000   50.00000   50.00000   90.00000   90.00000   90.00000
LATT -1
SFAC C  
C      1  0.4812300000000  0.5421650000000  0.4424100000000 1.0
C      1  0.4687250000000  0.5529640000000  0.5475430000000 1.0
C      1  0.5548430000000  0.5385360000000  0.5016600000000 1.0
C      1  0.4826350000000  0.4563480000000  0.4425460000000 1.0
C      1  0.4687540000000  0.4471640000000  0.5476020000000 1.0
C      1  0.5553650000000  0.4615410000000  0.5010240000000 1.0
C      1  0.5173940000000  0.5436030000000  0.4425170000000 1.0
C      1  0.5313480000000  0.5527700000000  0.5476000000000 1.0
C      1  0.4445960000000  0.5386910000000  0.5010850000000 1.0
C      1  0.5187940000000  0.4578630000000  0.4424500000000 1.0
C      1  0.5313610000000  0.4470910000000  0.5476310000000 1.0
C      1  0.4451640000000  0.4612230000000  0.5016640000000 1.0
C      1  0.4407090000000  0.5312040000000  0.4720220000000 1.0
C      1  0.5151770000000  0.5331660000000  0.5631720000000 1.0
C      1  0.5312500000000  0.5257760000000  0.4623600000000 1.0
C      1  0.4418070000000  0.4678170000000  0.4722100000000 1.0
C      1  0.5153580000000  0.4670060000000  0.5629090000000 1.0
C      1  0.5325860000000  0.4758490000000  0.4617980000000 1.0
C      1  0.5581490000000  0.5319160000000  0.4722150000000 1.0
C      1  0.4846280000000  0.5329850000000  0.5628150000000 1.0
C      1  0.4673180000000  0.5242960000000  0.4617920000000 1.0
C      1  0.5592470000000  0.4691260000000  0.4720130000000 1.0
C      1  0.4848210000000  0.4668450000000  0.5631170000000 1.0
C      1  0.4686580000000  0.4741560000000  0.4623350000000 1.0
C      1  0.4691510000000  0.5632550000000  0.4968470000000 1.0
C      1  0.5160870000000  0.5650470000000  0.5236030000000 1.0
C      1  0.5159530000000  0.5661450000000  0.4706990000000 1.0
C      1  0.4687150000000  0.4358150000000  0.4972670000000 1.0
C      1  0.5160380000000  0.4351960000000  0.5234470000000 1.0
C      1  0.5150910000000  0.4355320000000  0.4704580000000 1.0
C      1  0.5314360000000  0.5641100000000  0.4972290000000 1.0
C      1  0.4841160000000  0.5648460000000  0.5233950000000 1.0
C      1  0.4850580000000  0.5644750000000  0.4704160000000 1.0
C      1  0.5310110000000  0.4368290000000  0.4968800000000 1.0
C      1  0.4840500000000  0.4348990000000  0.5236430000000 1.0
C      1  0.4842120000000  0.4338430000000  0.4707350000000 1.0
C      1  0.4732040000000  0.4757010000000  0.5092720000000 1.0
C      1  0.5172580000000  0.4850070000000  0.5358890000000 1.0
C      1  0.5158440000000  0.4855350000000  0.4839220000000 1.0
C      1  0.4718280000000  0.5232310000000  0.5089580000000 1.0
C      1  0.5159660000000  0.5154060000000  0.5359920000000 1.0
C      1  0.5147900000000  0.5154510000000  0.4841050000000 1.0
C      1  0.5280880000000  0.4768440000000  0.5089640000000 1.0
C      1  0.4838860000000  0.4845690000000  0.5359540000000 1.0
C      1  0.4850430000000  0.4845960000000  0.4840810000000 1.0
C      1  0.5266480000000  0.5242870000000  0.5093190000000 1.0
C      1  0.4826180000000  0.5149610000000  0.5358470000000 1.0
C      1  0.4840020000000  0.5145270000000  0.4839120000000 1.0
C      1  0.5589650000000  0.4596400000000  0.5454060000000 1.0
C      1  0.5112820000000  0.4822920000000  0.4213320000000 1.0
C      1  0.4338390000000  0.4826900000000  0.5249760000000 1.0
C      1  0.5588650000000  0.5402510000000  0.5450170000000 1.0
C      1  0.5208430000000  0.5149900000000  0.4208500000000 1.0
C      1  0.4332620000000  0.5183600000000  0.5248640000000 1.0
C      1  0.4412140000000  0.4595670000000  0.5449970000000 1.0
C      1  0.4791310000000  0.4849420000000  0.4208740000000 1.0
C      1  0.5666800000000  0.4816160000000  0.5248270000000 1.0
C      1  0.4410520000000  0.5406320000000  0.5452490000000 1.0
C      1  0.4886890000000  0.5176730000000  0.4213250000000 1.0
C      1  0.5661680000000  0.5171420000000  0.5249570000000 1.0
END
