TITL C-3985259-1859-392 0.00145562587414722 125000 -269.231171099636 0 0 60 (Th) n - 1
REM
REM in /home/nfs/bkarasulu/CARBON/AIRSS/Generating-Clusters/TERSOFF/Higher-Symm/Only-C60
REM
REM
REM
REM
REM
REM ./C.cell (28575a23ae977d3b5fae324c64b13b57)
REM
REM compiler GCC version 9.2.1 20190827 (Red Hat 9.2.1-1)
REM options -cpp -mtune=generic -march=x86-64 -g -O0 -fpre-include=/usr/include/finclude/math-vector-fortran.h
REM seed 419171572 -906405972 1729051561 -1649613072 126395725 -2036076833 422884158 -2076640502 1849841741 -2146848313 30593941 -1567543791 441622631 -242042318 298490874 150327118 102347248 587780834 1487733312 529015435 -977485640 -2115009940 724864469 2121906986 -815598596 707837257 650907234 1360483730 -190176594 1711772025 1819346307 1621345407 -1360427546
REM
CELL 1.54180   50.00000   50.00000   50.00000   90.00000   90.00000   90.00000
LATT -1
SFAC C  
C      1  0.5217190000000  0.4512040000000  0.5572930000000 1.0
C      1  0.4512140000000  0.5572890000000  0.5217090000000 1.0
C      1  0.5572920000000  0.5217150000000  0.4512070000000 1.0
C      1  0.4782810000000  0.4512060000000  0.4427060000000 1.0
C      1  0.4782940000000  0.5487860000000  0.5572910000000 1.0
C      1  0.5217150000000  0.5487950000000  0.4427080000000 1.0
C      1  0.5487870000000  0.5572890000000  0.4782890000000 1.0
C      1  0.5487940000000  0.4427100000000  0.5217140000000 1.0
C      1  0.4512080000000  0.4427120000000  0.4782830000000 1.0
C      1  0.4427140000000  0.5217110000000  0.5487910000000 1.0
C      1  0.4427090000000  0.4782970000000  0.4512170000000 1.0
C      1  0.5572920000000  0.4782910000000  0.5487940000000 1.0
C      1  0.5217090000000  0.5487940000000  0.5572930000000 1.0
C      1  0.4512060000000  0.4427100000000  0.5217170000000 1.0
C      1  0.5572930000000  0.4782850000000  0.4512070000000 1.0
C      1  0.4782830000000  0.5487960000000  0.4427060000000 1.0
C      1  0.4782800000000  0.4512050000000  0.5572960000000 1.0
C      1  0.5217170000000  0.4512060000000  0.4427060000000 1.0
C      1  0.5487930000000  0.4427090000000  0.4782860000000 1.0
C      1  0.5487880000000  0.5572900000000  0.5217120000000 1.0
C      1  0.4512160000000  0.5572840000000  0.4782880000000 1.0
C      1  0.4427120000000  0.4782930000000  0.5487930000000 1.0
C      1  0.4427020000000  0.5217160000000  0.4511940000000 1.0
C      1  0.5572890000000  0.5217130000000  0.5487940000000 1.0
C      1  0.4385530000000  0.5293820000000  0.4816180000000 1.0
C      1  0.5293890000000  0.4816210000000  0.4385470000000 1.0
C      1  0.4816210000000  0.4385500000000  0.5293920000000 1.0
C      1  0.5614500000000  0.5293890000000  0.5183800000000 1.0
C      1  0.5614480000000  0.4706120000000  0.4816210000000 1.0
C      1  0.4385490000000  0.4706130000000  0.5183830000000 1.0
C      1  0.4706080000000  0.4816190000000  0.5614560000000 1.0
C      1  0.4706120000000  0.5183840000000  0.4385390000000 1.0
C      1  0.5293850000000  0.5183800000000  0.5614490000000 1.0
C      1  0.5183790000000  0.4385510000000  0.4706120000000 1.0
C      1  0.5183820000000  0.5614520000000  0.5293870000000 1.0
C      1  0.4816210000000  0.5614480000000  0.4706100000000 1.0
C      1  0.4385540000000  0.4706160000000  0.4816220000000 1.0
C      1  0.5293880000000  0.5183810000000  0.4385450000000 1.0
C      1  0.4816190000000  0.5614500000000  0.5293870000000 1.0
C      1  0.5614490000000  0.4706140000000  0.5183800000000 1.0
C      1  0.5614480000000  0.5293890000000  0.4816210000000 1.0
C      1  0.4385480000000  0.5293880000000  0.5183820000000 1.0
C      1  0.4706120000000  0.5183810000000  0.5614530000000 1.0
C      1  0.4706100000000  0.4816200000000  0.4385440000000 1.0
C      1  0.5293890000000  0.4816200000000  0.5614520000000 1.0
C      1  0.5183790000000  0.5614510000000  0.4706120000000 1.0
C      1  0.5183780000000  0.4385500000000  0.5293890000000 1.0
C      1  0.4816220000000  0.4385520000000  0.4706110000000 1.0
C      1  0.4999980000000  0.5145610000000  0.4536600000000 1.0
C      1  0.5145620000000  0.4536720000000  0.5000010000000 1.0
C      1  0.5000000000000  0.4854260000000  0.5463310000000 1.0
C      1  0.4854360000000  0.4536770000000  0.5000030000000 1.0
C      1  0.4854250000000  0.5463270000000  0.5000010000000 1.0
C      1  0.5145760000000  0.5463350000000  0.5000010000000 1.0
C      1  0.4536680000000  0.5000000000000  0.5145780000000 1.0
C      1  0.5463230000000  0.5000000000000  0.4854300000000 1.0
C      1  0.5463310000000  0.5000010000000  0.5145610000000 1.0
C      1  0.4536840000000  0.4999870000000  0.4854480000000 1.0
C      1  0.4999960000000  0.5145580000000  0.5463340000000 1.0
C      1  0.4999990000000  0.4854400000000  0.4536670000000 1.0
END
