TITL C-3985246-2097-174 6.40273430707555e-08 125000 -350.255306878734 0 0 60 (C6) n - 1
REM
REM in /home/nfs/bkarasulu/CARBON/AIRSS/Generating-Clusters/TERSOFF/Higher-Symm/Only-C60
REM
REM
REM
REM
REM
REM ./C.cell (28575a23ae977d3b5fae324c64b13b57)
REM
REM compiler GCC version 9.2.1 20190827 (Red Hat 9.2.1-1)
REM options -cpp -mtune=generic -march=x86-64 -g -O0 -fpre-include=/usr/include/finclude/math-vector-fortran.h
REM seed -246277551 -1970164747 531299103 1528337141 37521539 1754808386 -1625999106 -1674099644 880200920 -1327776263 -1754994398 -1584742301 -270756862 -1383039235 2145543331 1392515536 -1161430897 2145539387 -667260963 731064874 -1819688377 -691672639 398861890 -480914216 -1951447068 -482409752 392124957 1084903360 1882663508 1548464226 270993014 110891565 2125310617
REM
CELL 1.54180   50.00000   50.00000   50.00000   90.00000   90.00000   90.00000
LATT -1
SFAC C  
C      1  0.5148360000000  0.4992120000000  0.5519480000000 1.0
C      1  0.5148360000000  0.4546170000000  0.5252920000000 1.0
C      1  0.5148360000000  0.4554050000000  0.4733430000000 1.0
C      1  0.5148360000000  0.5007880000000  0.4480520000000 1.0
C      1  0.5148360000000  0.5453830000000  0.4747080000000 1.0
C      1  0.5148360000000  0.5445950000000  0.5266570000000 1.0
C      1  0.4796220000000  0.5494230000000  0.4390640000000 1.0
C      1  0.4796220000000  0.5774840000000  0.5123340000000 1.0
C      1  0.4796220000000  0.5280610000000  0.5732700000000 1.0
C      1  0.4796220000000  0.4505770000000  0.5609360000000 1.0
C      1  0.4796220000000  0.4225160000000  0.4876660000000 1.0
C      1  0.4796220000000  0.4719390000000  0.4267300000000 1.0
C      1  0.4928880000000  0.4994680000000  0.5295920000000 1.0
C      1  0.4928880000000  0.4741060000000  0.5143360000000 1.0
C      1  0.4928880000000  0.4746380000000  0.4847430000000 1.0
C      1  0.4928880000000  0.5005320000000  0.4704080000000 1.0
C      1  0.4928880000000  0.5258940000000  0.4856640000000 1.0
C      1  0.4928880000000  0.5253620000000  0.5152570000000 1.0
C      1  0.4908330000000  0.4381200000000  0.5361890000000 1.0
C      1  0.4908330000000  0.4377190000000  0.4645050000000 1.0
C      1  0.4908330000000  0.4995990000000  0.4283160000000 1.0
C      1  0.4908330000000  0.5618800000000  0.4638110000000 1.0
C      1  0.4908330000000  0.5622810000000  0.5354950000000 1.0
C      1  0.4908330000000  0.5004010000000  0.5716840000000 1.0
C      1  0.4713250000000  0.4791040000000  0.5622790000000 1.0
C      1  0.4713250000000  0.4356170000000  0.5130430000000 1.0
C      1  0.4713250000000  0.4565120000000  0.4507640000000 1.0
C      1  0.4713250000000  0.5208960000000  0.4377210000000 1.0
C      1  0.4713250000000  0.5643830000000  0.4869570000000 1.0
C      1  0.4713250000000  0.5434880000000  0.5492360000000 1.0
C      1  0.4598790000000  0.4645040000000  0.5093470000000 1.0
C      1  0.4598790000000  0.4741570000000  0.4739330000000 1.0
C      1  0.4598790000000  0.5096530000000  0.4645860000000 1.0
C      1  0.4598790000000  0.5354960000000  0.4906530000000 1.0
C      1  0.4598790000000  0.5258430000000  0.5260670000000 1.0
C      1  0.4598790000000  0.4903470000000  0.5354140000000 1.0
C      1  0.5587620000000  0.4464220000000  0.4992130000000 1.0
C      1  0.5587620000000  0.4738920000000  0.4532070000000 1.0
C      1  0.5587620000000  0.5274700000000  0.4539930000000 1.0
C      1  0.5587620000000  0.5535780000000  0.5007870000000 1.0
C      1  0.5587620000000  0.5261080000000  0.5467930000000 1.0
C      1  0.5587620000000  0.4725300000000  0.5460070000000 1.0
C      1  0.5750570000000  0.5293290000000  0.5004300000000 1.0
C      1  0.5750570000000  0.5142920000000  0.5256150000000 1.0
C      1  0.5750570000000  0.4849630000000  0.5251850000000 1.0
C      1  0.5750570000000  0.4706710000000  0.4995700000000 1.0
C      1  0.5750570000000  0.4857080000000  0.4743850000000 1.0
C      1  0.5750570000000  0.5150370000000  0.4748150000000 1.0
C      1  0.4271860000000  0.5221840000000  0.5209140000000 1.0
C      1  0.4271860000000  0.4929790000000  0.5296690000000 1.0
C      1  0.4271860000000  0.4707960000000  0.5087540000000 1.0
C      1  0.4271860000000  0.4778160000000  0.4790860000000 1.0
C      1  0.4271860000000  0.5070210000000  0.4703310000000 1.0
C      1  0.4271860000000  0.5292040000000  0.4912460000000 1.0
C      1  0.5296130000000  0.4468960000000  0.4992140000000 1.0
C      1  0.5296130000000  0.4741280000000  0.4536180000000 1.0
C      1  0.5296130000000  0.5272320000000  0.4544030000000 1.0
C      1  0.5296130000000  0.5531040000000  0.5007860000000 1.0
C      1  0.5296130000000  0.5258720000000  0.5463820000000 1.0
C      1  0.5296130000000  0.4727680000000  0.5455970000000 1.0
END
