TITL C-3985251-913-483 -1.69349096542786e-07 125000 -329.181135354409 0 0 60 (C4h) n - 1
REM
REM in /home/nfs/bkarasulu/CARBON/AIRSS/Generating-Clusters/TERSOFF/Higher-Symm/Only-C60
REM
REM
REM
REM
REM
REM ./C.cell (28575a23ae977d3b5fae324c64b13b57)
REM
REM compiler GCC version 9.2.1 20190827 (Red Hat 9.2.1-1)
REM options -cpp -mtune=generic -march=x86-64 -g -O0 -fpre-include=/usr/include/finclude/math-vector-fortran.h
REM seed -1011891517 708427825 2113963315 -911740563 -955340813 -1592450089 1993998210 1148703925 1527185428 -462180005 -1119790075 1478838193 40282378 14375646 -1948628388 -2052492703 1148371584 279784903 2032756014 -1050787340 -1484726116 -2128169218 1558494735 -1560187113 -849206969 824097901 596581487 390128939 1998138899 1885481270 31231429 -1164570900 1985158114
REM
CELL 1.54180   50.00000   50.00000   50.00000   90.00000   90.00000   90.00000
LATT -1
SFAC C  
C      1  0.4325900000000  0.4646480000000  0.5232420000000 1.0
C      1  0.5232410000000  0.4646610000000  0.5674170000000 1.0
C      1  0.5674160000000  0.4646550000000  0.4767660000000 1.0
C      1  0.4767650000000  0.4646420000000  0.4325900000000 1.0
C      1  0.4325840000000  0.5345100000000  0.5232340000000 1.0
C      1  0.5232350000000  0.5345220000000  0.5674100000000 1.0
C      1  0.5674100000000  0.5345160000000  0.4767590000000 1.0
C      1  0.4767590000000  0.5345040000000  0.4325830000000 1.0
C      1  0.5064420000000  0.5344110000000  0.4756330000000 1.0
C      1  0.4756340000000  0.5344100000000  0.4935520000000 1.0
C      1  0.4935520000000  0.5344150000000  0.5243590000000 1.0
C      1  0.5243600000000  0.5344160000000  0.5064410000000 1.0
C      1  0.5064480000000  0.4647500000000  0.4756410000000 1.0
C      1  0.4756400000000  0.4647490000000  0.4935590000000 1.0
C      1  0.4935580000000  0.4647530000000  0.5243670000000 1.0
C      1  0.5243660000000  0.4647540000000  0.5064480000000 1.0
C      1  0.5424710000000  0.4833390000000  0.5554630000000 1.0
C      1  0.5554630000000  0.4833290000000  0.4575320000000 1.0
C      1  0.4575310000000  0.4833190000000  0.4445400000000 1.0
C      1  0.4445400000000  0.4833280000000  0.5424720000000 1.0
C      1  0.5424690000000  0.5158450000000  0.5554600000000 1.0
C      1  0.5554600000000  0.5158360000000  0.4575280000000 1.0
C      1  0.4575280000000  0.5158260000000  0.4445370000000 1.0
C      1  0.4445370000000  0.5158350000000  0.5424680000000 1.0
C      1  0.4228170000000  0.4839020000000  0.4810320000000 1.0
C      1  0.4810320000000  0.4839170000000  0.5771870000000 1.0
C      1  0.5771860000000  0.4839180000000  0.5189710000000 1.0
C      1  0.5189710000000  0.4839040000000  0.4228170000000 1.0
C      1  0.4228140000000  0.5152450000000  0.4810290000000 1.0
C      1  0.4810290000000  0.5152610000000  0.5771830000000 1.0
C      1  0.5771830000000  0.5152620000000  0.5189680000000 1.0
C      1  0.5189680000000  0.5152480000000  0.4228130000000 1.0
C      1  0.5085300000000  0.4494790000000  0.5470520000000 1.0
C      1  0.5470510000000  0.4494770000000  0.4914790000000 1.0
C      1  0.4914790000000  0.4494680000000  0.4529580000000 1.0
C      1  0.4529580000000  0.4494710000000  0.5085310000000 1.0
C      1  0.5085210000000  0.5496960000000  0.5470410000000 1.0
C      1  0.5470420000000  0.5496940000000  0.4914690000000 1.0
C      1  0.4914700000000  0.5496850000000  0.4529480000000 1.0
C      1  0.4529490000000  0.5496870000000  0.5085210000000 1.0
C      1  0.4761010000000  0.5169830000000  0.5449190000000 1.0
C      1  0.5449190000000  0.5169860000000  0.5238960000000 1.0
C      1  0.5238960000000  0.5169780000000  0.4550770000000 1.0
C      1  0.4550770000000  0.5169740000000  0.4761000000000 1.0
C      1  0.4761040000000  0.4821870000000  0.5449230000000 1.0
C      1  0.5449220000000  0.4821900000000  0.5239000000000 1.0
C      1  0.5238990000000  0.4821820000000  0.4550810000000 1.0
C      1  0.4550810000000  0.4821780000000  0.4761040000000 1.0
C      1  0.5891940000000  0.5240190000000  0.4929050000000 1.0
C      1  0.4929060000000  0.5240030000000  0.4108010000000 1.0
C      1  0.4108010000000  0.5240060000000  0.5070900000000 1.0
C      1  0.5070900000000  0.5240230000000  0.5891940000000 1.0
C      1  0.5891990000000  0.4751580000000  0.4929100000000 1.0
C      1  0.4929100000000  0.4751420000000  0.4108060000000 1.0
C      1  0.4108060000000  0.4751450000000  0.5070950000000 1.0
C      1  0.5070940000000  0.4751620000000  0.5891990000000 1.0
C      1  0.5175340000000  0.4995950000000  0.6026750000000 1.0
C      1  0.6026750000000  0.4995890000000  0.4824660000000 1.0
C      1  0.4824660000000  0.4995700000000  0.3973250000000 1.0
C      1  0.3973250000000  0.4995750000000  0.5175340000000 1.0
END
