TITL C-3985252-168-193 2.73616392771776e-05 125000 -333.454965880905 0 0 60 (C1) n - 1
REM
REM in /home/nfs/bkarasulu/CARBON/AIRSS/Generating-Clusters/TERSOFF/Higher-Symm/Only-C60
REM
REM
REM
REM
REM
REM ./C.cell (28575a23ae977d3b5fae324c64b13b57)
REM
REM compiler GCC version 9.2.1 20190827 (Red Hat 9.2.1-1)
REM options -cpp -mtune=generic -march=x86-64 -g -O0 -fpre-include=/usr/include/finclude/math-vector-fortran.h
REM seed 809283666 -1795897167 1653156380 1213997022 -580750267 201471848 1916963452 428950968 -530867017 1627103200 -1356128797 595239978 1936615522 673554799 100770553 -540028928 -1324296174 -1608046841 626721594 -162947048 -2020741207 2055944568 856875183 -296415025 -1828742086 -150153550 1978777160 -2144999057 -381377795 1699784434 -63178204 -578940591 -1983805584
REM
CELL 1.54180   50.00000   50.00000   50.00000   90.00000   90.00000   90.00000
LATT -1
SFAC C  
C      1  0.5804050000000  0.5257240000000  0.4838620000000 1.0
C      1  0.5793250000000  0.4980990000000  0.5286050000000 1.0
C      1  0.5776200000000  0.4742830000000  0.4832420000000 1.0
C      1  0.4507520000000  0.5045300000000  0.5307870000000 1.0
C      1  0.4511340000000  0.4696540000000  0.4874240000000 1.0
C      1  0.4505820000000  0.5251040000000  0.4786630000000 1.0
C      1  0.5165390000000  0.4476010000000  0.5223080000000 1.0
C      1  0.5166760000000  0.5056010000000  0.4423160000000 1.0
C      1  0.5167430000000  0.5462790000000  0.5324390000000 1.0
C      1  0.5230250000000  0.5559640000000  0.4630610000000 1.0
C      1  0.5228310000000  0.5029440000000  0.5661260000000 1.0
C      1  0.5223460000000  0.4393210000000  0.4677630000000 1.0
C      1  0.5075820000000  0.4423390000000  0.4425350000000 1.0
C      1  0.5084810000000  0.5769530000000  0.4775500000000 1.0
C      1  0.5081190000000  0.4798850000000  0.5768060000000 1.0
C      1  0.4624580000000  0.5127110000000  0.4469090000000 1.0
C      1  0.4624050000000  0.5383100000000  0.5359990000000 1.0
C      1  0.4625400000000  0.4483410000000  0.5142000000000 1.0
C      1  0.4846260000000  0.4892560000000  0.4438700000000 1.0
C      1  0.4847300000000  0.5532820000000  0.5174120000000 1.0
C      1  0.4847080000000  0.4572860000000  0.5360820000000 1.0
C      1  0.5496970000000  0.4464790000000  0.4688510000000 1.0
C      1  0.5504180000000  0.5508950000000  0.4687430000000 1.0
C      1  0.5500930000000  0.5000970000000  0.5586450000000 1.0
C      1  0.5642530000000  0.5235550000000  0.5426800000000 1.0
C      1  0.5634540000000  0.4497080000000  0.4975670000000 1.0
C      1  0.5639620000000  0.5254800000000  0.4560760000000 1.0
C      1  0.5621870000000  0.5504460000000  0.4989550000000 1.0
C      1  0.5611110000000  0.4741440000000  0.5426220000000 1.0
C      1  0.5608980000000  0.4741550000000  0.4551410000000 1.0
C      1  0.4197950000000  0.5009200000000  0.5267040000000 1.0
C      1  0.4199520000000  0.4743910000000  0.4862270000000 1.0
C      1  0.4196290000000  0.5228720000000  0.4836130000000 1.0
C      1  0.5069890000000  0.5314270000000  0.4570040000000 1.0
C      1  0.5069250000000  0.5206720000000  0.5478830000000 1.0
C      1  0.5070950000000  0.4470640000000  0.4925170000000 1.0
C      1  0.4823070000000  0.4715910000000  0.5651730000000 1.0
C      1  0.4820130000000  0.4569980000000  0.4414210000000 1.0
C      1  0.4824750000000  0.5713330000000  0.4903740000000 1.0
C      1  0.4782380000000  0.5391080000000  0.4494000000000 1.0
C      1  0.4780450000000  0.5232280000000  0.5579070000000 1.0
C      1  0.4781730000000  0.4376150000000  0.4898560000000 1.0
C      1  0.5028470000000  0.5210250000000  0.4849330000000 1.0
C      1  0.5032700000000  0.5015320000000  0.5249640000000 1.0
C      1  0.5052420000000  0.4768690000000  0.4868630000000 1.0
C      1  0.4636890000000  0.4954780000000  0.5632590000000 1.0
C      1  0.4637800000000  0.4467430000000  0.4631560000000 1.0
C      1  0.4637750000000  0.5577990000000  0.4705210000000 1.0
C      1  0.5477670000000  0.5010640000000  0.4481060000000 1.0
C      1  0.5485920000000  0.5438950000000  0.5260710000000 1.0
C      1  0.5475960000000  0.4547780000000  0.5229520000000 1.0
C      1  0.4801470000000  0.4860510000000  0.5258340000000 1.0
C      1  0.4808870000000  0.4835260000000  0.4739240000000 1.0
C      1  0.4798610000000  0.5300740000000  0.4975860000000 1.0
C      1  0.5474230000000  0.5086290000000  0.5034100000000 1.0
C      1  0.5765520000000  0.4989260000000  0.4982900000000 1.0
C      1  0.4073700000000  0.4992990000000  0.4987960000000 1.0
C      1  0.3778460000000  0.4991260000000  0.4988070000000 1.0
C      1  0.4511120000000  0.4995810000000  0.4987650000000 1.0
C      1  0.5194790000000  0.5008690000000  0.4998720000000 1.0
END
