TITL C-3985253-1688-996 -0.000272054911893125 125000 -348.797171042355 0 0 60 (C2v) n - 1
REM
REM in /home/nfs/bkarasulu/CARBON/AIRSS/Generating-Clusters/TERSOFF/Higher-Symm/Only-C60
REM
REM
REM
REM
REM
REM ./C.cell (28575a23ae977d3b5fae324c64b13b57)
REM
REM compiler GCC version 9.2.1 20190827 (Red Hat 9.2.1-1)
REM options -cpp -mtune=generic -march=x86-64 -g -O0 -fpre-include=/usr/include/finclude/math-vector-fortran.h
REM seed 1865936675 590341930 2140490719 1978315553 1299640407 -1313460958 -605725904 557327749 -1001541976 589892595 1898343975 -1013019363 1490476515 2059637225 31298216 629579070 1329986991 511483159 -1835507286 -472166213 -494657150 1764348653 1497957496 -455950311 -545305092 -109279225 1907213151 -852209764 932116317 1883540663 -52068272 1445445144 -1888807036
REM
CELL 1.54180   50.00000   50.00000   50.00000   90.00000   90.00000   90.00000
LATT -1
SFAC C  
C      1  0.5617600000000  0.5615600000000  0.5278480000000 1.0
C      1  0.4382400000000  0.5615600000000  0.4721520000000 1.0
C      1  0.4382400000000  0.5615600000000  0.5278480000000 1.0
C      1  0.5617600000000  0.5615600000000  0.4721520000000 1.0
C      1  0.5292900000000  0.4887940000000  0.5608220000000 1.0
C      1  0.4707100000000  0.4887940000000  0.4391780000000 1.0
C      1  0.4707100000000  0.4887940000000  0.5608220000000 1.0
C      1  0.5292900000000  0.4887940000000  0.4391780000000 1.0
C      1  0.5292160000000  0.4578340000000  0.5560650000000 1.0
C      1  0.4707840000000  0.4578340000000  0.4439350000000 1.0
C      1  0.4707840000000  0.4578340000000  0.5560650000000 1.0
C      1  0.5292160000000  0.4578340000000  0.4439350000000 1.0
C      1  0.4858520000000  0.4974650000000  0.4159330000000 1.0
C      1  0.5141480000000  0.4974650000000  0.5840670000000 1.0
C      1  0.5141480000000  0.4974650000000  0.4159330000000 1.0
C      1  0.4858520000000  0.4974650000000  0.5840670000000 1.0
C      1  0.5575240000000  0.4825950000000  0.5150510000000 1.0
C      1  0.4424760000000  0.4825950000000  0.4849490000000 1.0
C      1  0.4424760000000  0.4825950000000  0.5150510000000 1.0
C      1  0.5575240000000  0.4825950000000  0.4849490000000 1.0
C      1  0.5263360000000  0.4704420000000  0.4839030000000 1.0
C      1  0.4736640000000  0.4704420000000  0.5160970000000 1.0
C      1  0.4736640000000  0.4704420000000  0.4839030000000 1.0
C      1  0.5263360000000  0.4704420000000  0.5160970000000 1.0
C      1  0.4722500000000  0.5181540000000  0.4839520000000 1.0
C      1  0.5277500000000  0.5181540000000  0.5160480000000 1.0
C      1  0.5277500000000  0.5181540000000  0.4839520000000 1.0
C      1  0.4722500000000  0.5181540000000  0.5160480000000 1.0
C      1  0.4722210000000  0.4223850000000  0.5146310000000 1.0
C      1  0.5277790000000  0.4223850000000  0.4853690000000 1.0
C      1  0.5277790000000  0.4223850000000  0.5146310000000 1.0
C      1  0.4722210000000  0.4223850000000  0.4853690000000 1.0
C      1  0.4852670000000  0.4943670000000  0.4689690000000 1.0
C      1  0.5147330000000  0.4943670000000  0.5310310000000 1.0
C      1  0.5147330000000  0.4943670000000  0.4689690000000 1.0
C      1  0.4852670000000  0.4943670000000  0.5310310000000 1.0
C      1  0.5160690000000  0.4448620000000  0.5305960000000 1.0
C      1  0.4839310000000  0.4448620000000  0.4694040000000 1.0
C      1  0.4839310000000  0.4448620000000  0.5305960000000 1.0
C      1  0.5160690000000  0.4448620000000  0.4694040000000 1.0
C      1  0.5543060000000  0.5046020000000  0.5553430000000 1.0
C      1  0.4456940000000  0.5046020000000  0.4446570000000 1.0
C      1  0.4456940000000  0.5046020000000  0.5553430000000 1.0
C      1  0.5543060000000  0.5046020000000  0.4446570000000 1.0
C      1  0.5579940000000  0.5117230000000  0.4733760000000 1.0
C      1  0.4420060000000  0.5117230000000  0.5266240000000 1.0
C      1  0.4420060000000  0.5117230000000  0.4733760000000 1.0
C      1  0.5579940000000  0.5117230000000  0.5266240000000 1.0
C      1  0.5719620000000  0.5366480000000  0.5150960000000 1.0
C      1  0.4280380000000  0.5366480000000  0.4849040000000 1.0
C      1  0.4280380000000  0.5366480000000  0.5150960000000 1.0
C      1  0.5719620000000  0.5366480000000  0.4849040000000 1.0
C      1  0.4850360000000  0.5432880000000  0.5262680000000 1.0
C      1  0.5149640000000  0.5432880000000  0.4737320000000 1.0
C      1  0.5149640000000  0.5432880000000  0.5262680000000 1.0
C      1  0.4850360000000  0.5432880000000  0.4737320000000 1.0
C      1  0.4669370000000  0.5652800000000  0.4673520000000 1.0
C      1  0.5330630000000  0.5652800000000  0.5326480000000 1.0
C      1  0.5330630000000  0.5652800000000  0.4673520000000 1.0
C      1  0.4669370000000  0.5652800000000  0.5326480000000 1.0
END
