TITL C-3985256-5419-47 1.7676979076912e-05 125000 -326.988227205892 0 0 60 (C3) n - 1
REM
REM in /home/nfs/bkarasulu/CARBON/AIRSS/Generating-Clusters/TERSOFF/Higher-Symm/Only-C60
REM
REM
REM
REM
REM
REM ./C.cell (28575a23ae977d3b5fae324c64b13b57)
REM
REM compiler GCC version 9.2.1 20190827 (Red Hat 9.2.1-1)
REM options -cpp -mtune=generic -march=x86-64 -g -O0 -fpre-include=/usr/include/finclude/math-vector-fortran.h
REM seed 991668318 1582435589 -1882820153 -636514788 -680565467 1780543169 -521127975 -1489071618 -90910025 778688722 1482997923 353545034 1036367367 -2086325617 -1187092504 -1153889963 343046345 -111513460 966658695 1074133759 -386458240 -1152346009 971427756 1461828072 -1620275746 1921015850 340453542 -1720056503 960330083 -781404941 1161841582 11073308 1905633245
REM
CELL 1.54180   50.00000   50.00000   50.00000   90.00000   90.00000   90.00000
LATT -1
SFAC C  
C      1  0.4987430000000  0.5186740000000  0.4763670000000 1.0
C      1  0.4987420000000  0.4701960000000  0.4956430000000 1.0
C      1  0.4987420000000  0.5111290000000  0.5279910000000 1.0
C      1  0.4592310000000  0.5506440000000  0.4676920000000 1.0
C      1  0.4592310000000  0.4466990000000  0.4722940000000 1.0
C      1  0.4592320000000  0.5026560000000  0.5600120000000 1.0
C      1  0.5250340000000  0.4832080000000  0.5096890000000 1.0
C      1  0.5250350000000  0.5167860000000  0.5097000000000 1.0
C      1  0.5250360000000  0.5000050000000  0.4806110000000 1.0
C      1  0.4799330000000  0.5698070000000  0.4771110000000 1.0
C      1  0.4799350000000  0.4452810000000  0.4509900000000 1.0
C      1  0.4799370000000  0.4849160000000  0.5718920000000 1.0
C      1  0.5382550000000  0.5563720000000  0.5087030000000 1.0
C      1  0.5382520000000  0.4793440000000  0.4468360000000 1.0
C      1  0.5382540000000  0.4642800000000  0.5444700000000 1.0
C      1  0.5040440000000  0.5337310000000  0.5466360000000 1.0
C      1  0.5040430000000  0.5235210000000  0.4474710000000 1.0
C      1  0.5040420000000  0.4427470000000  0.5058950000000 1.0
C      1  0.4696090000000  0.5050280000000  0.4762930000000 1.0
C      1  0.4696080000000  0.4769540000000  0.5074990000000 1.0
C      1  0.4696100000000  0.5180170000000  0.5162080000000 1.0
C      1  0.4238360000000  0.5185160000000  0.4918910000000 1.0
C      1  0.4238360000000  0.4837190000000  0.4880200000000 1.0
C      1  0.4238370000000  0.4977660000000  0.5200910000000 1.0
C      1  0.4800220000000  0.5493600000000  0.5535620000000 1.0
C      1  0.4800200000000  0.5217050000000  0.4304710000000 1.0
C      1  0.4800200000000  0.4289340000000  0.5159670000000 1.0
C      1  0.5648900000000  0.4702050000000  0.4940610000000 1.0
C      1  0.5648910000000  0.5097530000000  0.5287710000000 1.0
C      1  0.5648910000000  0.5200390000000  0.4771670000000 1.0
C      1  0.4721790000000  0.5663880000000  0.5308160000000 1.0
C      1  0.4721780000000  0.4934930000000  0.4271000000000 1.0
C      1  0.4721780000000  0.4401200000000  0.5420860000000 1.0
C      1  0.4526430000000  0.4964760000000  0.5306300000000 1.0
C      1  0.4526430000000  0.5282890000000  0.4877380000000 1.0
C      1  0.4526410000000  0.4752360000000  0.4816330000000 1.0
C      1  0.5333300000000  0.5582500000000  0.4729360000000 1.0
C      1  0.5333320000000  0.4474410000000  0.4630810000000 1.0
C      1  0.5333330000000  0.4943090000000  0.5639770000000 1.0
C      1  0.5064970000000  0.5422420000000  0.5008610000000 1.0
C      1  0.5064940000000  0.4796370000000  0.4629920000000 1.0
C      1  0.5064950000000  0.4781300000000  0.5361420000000 1.0
C      1  0.5317390000000  0.5144590000000  0.4408440000000 1.0
C      1  0.5317400000000  0.4415420000000  0.5170590000000 1.0
C      1  0.5317400000000  0.5440020000000  0.5420950000000 1.0
C      1  0.5482480000000  0.4458870000000  0.4906740000000 1.0
C      1  0.5482490000000  0.5189800000000  0.5515250000000 1.0
C      1  0.5482500000000  0.5351330000000  0.4577990000000 1.0
C      1  0.4602420000000  0.5416790000000  0.4394770000000 1.0
C      1  0.4602410000000  0.4267450000000  0.4941670000000 1.0
C      1  0.4602430000000  0.5315760000000  0.5663560000000 1.0
C      1  0.5576210000000  0.5282680000000  0.5052880000000 1.0
C      1  0.5576210000000  0.4904460000000  0.4728740000000 1.0
C      1  0.5576210000000  0.4812850000000  0.5218360000000 1.0
C      1  0.5071120000000  0.4974300000000  0.5799370000000 1.0
C      1  0.5071110000000  0.5705080000000  0.4622680000000 1.0
C      1  0.5071090000000  0.4320580000000  0.4578050000000 1.0
C      1  0.4867900000000  0.4726250000000  0.4416350000000 1.0
C      1  0.4867910000000  0.4631420000000  0.5528910000000 1.0
C      1  0.4867960000000  0.5642320000000  0.5054750000000 1.0
END
