TITL C-3985252-168-88 -3.95333935849451e-06 125000 -336.02100933622 0 0 60 (C3) n - 1
REM
REM in /home/nfs/bkarasulu/CARBON/AIRSS/Generating-Clusters/TERSOFF/Higher-Symm/Only-C60
REM
REM
REM
REM
REM
REM ./C.cell (28575a23ae977d3b5fae324c64b13b57)
REM
REM compiler GCC version 9.2.1 20190827 (Red Hat 9.2.1-1)
REM options -cpp -mtune=generic -march=x86-64 -g -O0 -fpre-include=/usr/include/finclude/math-vector-fortran.h
REM seed 1980358331 -745310155 509239092 1764389239 672198972 -689934439 658054827 -1179585036 997358511 681056144 1988010437 1004685022 -887155334 1319656395 -737110903 -1860357242 1621643544 -849361836 -442592761 -1497455945 141560759 393023392 18434675 -353902151 1644753736 1348092905 -1626648433 -167901564 -257651231 -1644041610 -691607151 -1051646366 1947111236
REM
CELL 1.54180   50.00000   50.00000   50.00000   90.00000   90.00000   90.00000
LATT -1
SFAC C  
C      1  0.5250450000000  0.4856540000000  0.4751140000000 1.0
C      1  0.4998990000000  0.5288720000000  0.4751050000000 1.0
C      1  0.4750450000000  0.4854860000000  0.4751140000000 1.0
C      1  0.5250460000000  0.5143520000000  0.4751100000000 1.0
C      1  0.4998970000000  0.4711360000000  0.4751170000000 1.0
C      1  0.4750460000000  0.5145240000000  0.4751060000000 1.0
C      1  0.4791410000000  0.4348290000000  0.4792170000000 1.0
C      1  0.5668640000000  0.5145270000000  0.4792070000000 1.0
C      1  0.4539830000000  0.5506540000000  0.4791910000000 1.0
C      1  0.4791470000000  0.5651770000000  0.4791930000000 1.0
C      1  0.5668670000000  0.4854730000000  0.4792080000000 1.0
C      1  0.4539840000000  0.4493640000000  0.4792210000000 1.0
C      1  0.4572070000000  0.5157770000000  0.5512060000000 1.0
C      1  0.5077530000000  0.4550610000000  0.5512270000000 1.0
C      1  0.5350240000000  0.5291580000000  0.5512190000000 1.0
C      1  0.4572620000000  0.4842530000000  0.5512350000000 1.0
C      1  0.5077240000000  0.5449220000000  0.5512100000000 1.0
C      1  0.5350470000000  0.4708360000000  0.5512280000000 1.0
C      1  0.4991390000000  0.4695280000000  0.5779890000000 1.0
C      1  0.5268170000000  0.5144530000000  0.5779810000000 1.0
C      1  0.4740710000000  0.5159630000000  0.5779520000000 1.0
C      1  0.4991060000000  0.5304340000000  0.5779600000000 1.0
C      1  0.5268340000000  0.4855380000000  0.5779880000000 1.0
C      1  0.4740920000000  0.4839740000000  0.5780000000000 1.0
C      1  0.5279420000000  0.4218010000000  0.5168160000000 1.0
C      1  0.5537440000000  0.5632920000000  0.5168110000000 1.0
C      1  0.4183110000000  0.5149140000000  0.5168080000000 1.0
C      1  0.5279320000000  0.5781950000000  0.5168070000000 1.0
C      1  0.5537530000000  0.4367050000000  0.5168150000000 1.0
C      1  0.4183200000000  0.4851090000000  0.5168250000000 1.0
C      1  0.4997740000000  0.4335160000000  0.5056850000000 1.0
C      1  0.5576830000000  0.5330420000000  0.5056790000000 1.0
C      1  0.4425330000000  0.5334510000000  0.5056640000000 1.0
C      1  0.4997690000000  0.5664820000000  0.5056670000000 1.0
C      1  0.5576880000000  0.4669560000000  0.5056820000000 1.0
C      1  0.4425510000000  0.4665760000000  0.5056950000000 1.0
C      1  0.5210530000000  0.5650350000000  0.4775220000000 1.0
C      1  0.4331500000000  0.4857240000000  0.4775370000000 1.0
C      1  0.5457880000000  0.4492540000000  0.4775350000000 1.0
C      1  0.5210470000000  0.4349710000000  0.4775360000000 1.0
C      1  0.4331510000000  0.5142920000000  0.4775240000000 1.0
C      1  0.5457930000000  0.5507500000000  0.4775260000000 1.0
C      1  0.4518250000000  0.5282760000000  0.4554560000000 1.0
C      1  0.4995940000000  0.4441460000000  0.4554750000000 1.0
C      1  0.5485720000000  0.5275800000000  0.4554640000000 1.0
C      1  0.4518220000000  0.4717270000000  0.4554740000000 1.0
C      1  0.4996010000000  0.5558570000000  0.4554550000000 1.0
C      1  0.5485680000000  0.4724180000000  0.4554710000000 1.0
C      1  0.4903030000000  0.4525070000000  0.5278200000000 1.0
C      1  0.5459730000000  0.5153350000000  0.5278100000000 1.0
C      1  0.4637190000000  0.5321590000000  0.5277950000000 1.0
C      1  0.4902860000000  0.5474860000000  0.5277960000000 1.0
C      1  0.5459830000000  0.4846620000000  0.5278150000000 1.0
C      1  0.4637470000000  0.4678590000000  0.5278220000000 1.0
C      1  0.5265080000000  0.5152940000000  0.4331840000000 1.0
C      1  0.4734950000000  0.5153060000000  0.4331810000000 1.0
C      1  0.4999900000000  0.4693900000000  0.4331910000000 1.0
C      1  0.5265060000000  0.4846980000000  0.4331890000000 1.0
C      1  0.4734930000000  0.4846890000000  0.4331890000000 1.0
C      1  0.4999930000000  0.5306030000000  0.4331790000000 1.0
END
