TITL C-3985244-725-97 -0.00990018633677989 125000 -341.507438332471 0 0 60 (C1) n - 1
REM
REM in /home/nfs/bkarasulu/CARBON/AIRSS/Generating-Clusters/TERSOFF/Higher-Symm/Only-C60
REM
REM
REM
REM
REM
REM ./C.cell (28575a23ae977d3b5fae324c64b13b57)
REM
REM compiler GCC version 9.2.1 20190827 (Red Hat 9.2.1-1)
REM options -cpp -mtune=generic -march=x86-64 -g -O0 -fpre-include=/usr/include/finclude/math-vector-fortran.h
REM seed -626962495 -881909821 -346716142 -2095066813 1894133846 -1114594624 273911386 656673927 -105449433 -321488309 2142893455 104363201 372208453 1272829800 31039552 -1644637798 -2022179080 -1914003682 1577107778 -573258048 802710372 -1402316778 -109313435 -1502839940 908433218 1529539830 -1426691701 -856634501 -133754212 1446447883 868994780 1129134515 552192995
REM
CELL 1.54180   50.00000   50.00000   50.00000   90.00000   90.00000   90.00000
LATT -1
SFAC C  
C      1  0.4439100000000  0.4476630000000  0.5227550000000 1.0
C      1  0.4327530000000  0.5370450000000  0.5225560000000 1.0
C      1  0.5145750000000  0.5752400000000  0.5227530000000 1.0
C      1  0.5761570000000  0.5094420000000  0.5226580000000 1.0
C      1  0.5325930000000  0.4303660000000  0.5225640000000 1.0
C      1  0.4275340000000  0.4921540000000  0.4903390000000 1.0
C      1  0.4701940000000  0.5664040000000  0.4903870000000 1.0
C      1  0.5539490000000  0.5488600000000  0.4903580000000 1.0
C      1  0.5632120000000  0.4637250000000  0.4903570000000 1.0
C      1  0.4849720000000  0.4287320000000  0.4904220000000 1.0
C      1  0.5481250000000  0.4820260000000  0.4709420000000 1.0
C      1  0.4977200000000  0.4486220000000  0.4708470000000 1.0
C      1  0.4504690000000  0.4862280000000  0.4708730000000 1.0
C      1  0.4716210000000  0.5428330000000  0.4708200000000 1.0
C      1  0.5319270000000  0.5401830000000  0.4708530000000 1.0
C      1  0.4778040000000  0.5421030000000  0.5270170000000 1.0
C      1  0.5331510000000  0.5338440000000  0.5270870000000 1.0
C      1  0.5430260000000  0.4788790000000  0.5270290000000 1.0
C      1  0.4931410000000  0.4535530000000  0.5269430000000 1.0
C      1  0.4530410000000  0.4919230000000  0.5268890000000 1.0
C      1  0.4291160000000  0.4748300000000  0.5150390000000 1.0
C      1  0.4541310000000  0.5594500000000  0.5149870000000 1.0
C      1  0.5423960000000  0.5616930000000  0.5151090000000 1.0
C      1  0.5723400000000  0.4787140000000  0.5149600000000 1.0
C      1  0.5019130000000  0.4255400000000  0.5151610000000 1.0
C      1  0.4951050000000  0.5823880000000  0.4992180000000 1.0
C      1  0.5768800000000  0.5301720000000  0.4991090000000 1.0
C      1  0.5524790000000  0.4361300000000  0.4990070000000 1.0
C      1  0.4554270000000  0.4304070000000  0.4992280000000 1.0
C      1  0.4200150000000  0.5207350000000  0.4990130000000 1.0
C      1  0.5347190000000  0.5371060000000  0.4418540000000 1.0
C      1  0.5460410000000  0.4784750000000  0.4419210000000 1.0
C      1  0.4936630000000  0.4495110000000  0.4418520000000 1.0
C      1  0.4500660000000  0.4904270000000  0.4418820000000 1.0
C      1  0.4754640000000  0.5445510000000  0.4418220000000 1.0
C      1  0.4967270000000  0.4742480000000  0.4259720000000 1.0
C      1  0.4745130000000  0.4951580000000  0.4259740000000 1.0
C      1  0.4875050000000  0.5227660000000  0.4258990000000 1.0
C      1  0.5177660000000  0.5189100000000  0.4259090000000 1.0
C      1  0.5234750000000  0.4889480000000  0.4259720000000 1.0
C      1  0.4775470000000  0.4865760000000  0.4845400000000 1.0
C      1  0.4803140000000  0.5172020000000  0.4844720000000 1.0
C      1  0.5102760000000  0.5239730000000  0.4845400000000 1.0
C      1  0.5260570000000  0.4976510000000  0.4846880000000 1.0
C      1  0.5058510000000  0.4744780000000  0.4844410000000 1.0
C      1  0.5568310000000  0.5096950000000  0.5519350000000 1.0
C      1  0.5266860000000  0.4491320000000  0.5517310000000 1.0
C      1  0.4597970000000  0.4588900000000  0.5518050000000 1.0
C      1  0.4484670000000  0.5255490000000  0.5517600000000 1.0
C      1  0.5082290000000  0.5568750000000  0.5517810000000 1.0
C      1  0.4776560000000  0.5443760000000  0.5579390000000 1.0
C      1  0.5351870000000  0.5347760000000  0.5580500000000 1.0
C      1  0.5443540000000  0.4770660000000  0.5579810000000 1.0
C      1  0.4920190000000  0.4514410000000  0.5577960000000 1.0
C      1  0.4509650000000  0.4924650000000  0.5578980000000 1.0
C      1  0.4684170000000  0.5172080000000  0.5128150000000 1.0
C      1  0.5065830000000  0.5352410000000  0.5129350000000 1.0
C      1  0.5356360000000  0.5045220000000  0.5129800000000 1.0
C      1  0.5157400000000  0.4675500000000  0.5128010000000 1.0
C      1  0.4737750000000  0.4753520000000  0.5127720000000 1.0
END
