TITL C-3985244-725-626 0.00213589885989864 125000 -320.580408038535 0 0 60 (C3i) n - 1
REM
REM in /home/nfs/bkarasulu/CARBON/AIRSS/Generating-Clusters/TERSOFF/Higher-Symm/Only-C60
REM
REM
REM
REM
REM
REM ./C.cell (28575a23ae977d3b5fae324c64b13b57)
REM
REM compiler GCC version 9.2.1 20190827 (Red Hat 9.2.1-1)
REM options -cpp -mtune=generic -march=x86-64 -g -O0 -fpre-include=/usr/include/finclude/math-vector-fortran.h
REM seed 1211823648 202070690 1626760740 1123436822 -1783312011 -94545849 1138170916 544261853 -251072160 1239739080 1407373382 1258342899 2115240125 1811607303 625061127 1269775505 553632912 -1181918000 1714754507 1949218880 -2116953378 -1088226660 899310113 -78634393 -1814991929 -925986679 -1038380452 216885595 1880005476 1603596216 1892459113 1097098736 22550346
REM
CELL 1.54180   50.00000   50.00000   50.00000   90.00000   90.00000   90.00000
LATT -1
SFAC C  
C      1  0.4787450000000  0.5680740000000  0.4625090000000 1.0
C      1  0.4516450000000  0.4475810000000  0.4624110000000 1.0
C      1  0.5696480000000  0.4843310000000  0.4624360000000 1.0
C      1  0.5212550000000  0.5680740000000  0.5374910000000 1.0
C      1  0.5483550000000  0.4475810000000  0.5375890000000 1.0
C      1  0.4303520000000  0.4843310000000  0.5375640000000 1.0
C      1  0.5212550000000  0.4319260000000  0.5374910000000 1.0
C      1  0.5483550000000  0.5524190000000  0.5375890000000 1.0
C      1  0.4303520000000  0.5156690000000  0.5375640000000 1.0
C      1  0.4787450000000  0.4319260000000  0.4625090000000 1.0
C      1  0.4516450000000  0.5524190000000  0.4624110000000 1.0
C      1  0.5696480000000  0.5156690000000  0.4624360000000 1.0
C      1  0.5427800000000  0.5245260000000  0.5477150000000 1.0
C      1  0.4573350000000  0.5248040000000  0.5476930000000 1.0
C      1  0.4998730000000  0.4506540000000  0.5477560000000 1.0
C      1  0.4572200000000  0.5245260000000  0.4522850000000 1.0
C      1  0.5426650000000  0.5248040000000  0.4523070000000 1.0
C      1  0.5001270000000  0.4506540000000  0.4522440000000 1.0
C      1  0.4572200000000  0.4754740000000  0.4522850000000 1.0
C      1  0.5426650000000  0.4751960000000  0.4523070000000 1.0
C      1  0.5001270000000  0.5493460000000  0.4522440000000 1.0
C      1  0.5427800000000  0.4754740000000  0.5477150000000 1.0
C      1  0.4573350000000  0.4751960000000  0.5476930000000 1.0
C      1  0.4998730000000  0.5493460000000  0.5477560000000 1.0
C      1  0.5003080000000  0.4709570000000  0.4748710000000 1.0
C      1  0.5249420000000  0.5147820000000  0.4747980000000 1.0
C      1  0.4747600000000  0.5142350000000  0.4747780000000 1.0
C      1  0.4996920000000  0.4709570000000  0.5251290000000 1.0
C      1  0.4750580000000  0.5147820000000  0.5252020000000 1.0
C      1  0.5252400000000  0.5142350000000  0.5252220000000 1.0
C      1  0.4996920000000  0.5290430000000  0.5251290000000 1.0
C      1  0.4750580000000  0.4852180000000  0.5252020000000 1.0
C      1  0.5252400000000  0.4857650000000  0.5252220000000 1.0
C      1  0.5003080000000  0.5290430000000  0.4748710000000 1.0
C      1  0.5249420000000  0.4852180000000  0.4747980000000 1.0
C      1  0.4747600000000  0.4857650000000  0.4747780000000 1.0
C      1  0.5619670000000  0.4819150000000  0.4943240000000 1.0
C      1  0.4846860000000  0.5628020000000  0.4943450000000 1.0
C      1  0.4534470000000  0.4553310000000  0.4943140000000 1.0
C      1  0.4380330000000  0.4819150000000  0.5056760000000 1.0
C      1  0.5153140000000  0.5628020000000  0.5056550000000 1.0
C      1  0.5465530000000  0.4553310000000  0.5056860000000 1.0
C      1  0.4380330000000  0.5180850000000  0.5056760000000 1.0
C      1  0.5153140000000  0.4371980000000  0.5056550000000 1.0
C      1  0.5465530000000  0.5446690000000  0.5056860000000 1.0
C      1  0.5619670000000  0.5180850000000  0.4943240000000 1.0
C      1  0.4846860000000  0.4371980000000  0.4943450000000 1.0
C      1  0.4534470000000  0.5446690000000  0.4943140000000 1.0
C      1  0.4998740000000  0.4694330000000  0.4275350000000 1.0
C      1  0.5265220000000  0.5152120000000  0.4275750000000 1.0
C      1  0.4735630000000  0.5153540000000  0.4276150000000 1.0
C      1  0.5001260000000  0.4694330000000  0.5724650000000 1.0
C      1  0.4734780000000  0.5152120000000  0.5724250000000 1.0
C      1  0.5264370000000  0.5153540000000  0.5723850000000 1.0
C      1  0.5001260000000  0.5305670000000  0.5724650000000 1.0
C      1  0.4734780000000  0.4847880000000  0.5724250000000 1.0
C      1  0.5264370000000  0.4846460000000  0.5723850000000 1.0
C      1  0.4998740000000  0.5305670000000  0.4275350000000 1.0
C      1  0.5265220000000  0.4847880000000  0.4275750000000 1.0
C      1  0.4735630000000  0.4846460000000  0.4276150000000 1.0
END
