TITL C-3985247-764-606 -7.20263381424433e-06 125000 -346.888857670887 0 0 60 (D6h) n - 1
REM
REM in /home/nfs/bkarasulu/CARBON/AIRSS/Generating-Clusters/TERSOFF/Higher-Symm/Only-C60
REM
REM
REM
REM
REM
REM ./C.cell (28575a23ae977d3b5fae324c64b13b57)
REM
REM compiler GCC version 9.2.1 20190827 (Red Hat 9.2.1-1)
REM options -cpp -mtune=generic -march=x86-64 -g -O0 -fpre-include=/usr/include/finclude/math-vector-fortran.h
REM seed 513577031 -2059500739 376943331 61909201 1952583190 -2586293 -2004339393 -76773973 231830673 -649653057 -1740700397 -516375876 1842182632 -1812701263 1992217433 -1006431826 -1348636675 265471398 7061436 -1089199736 -1800184792 -2034352197 -1697024279 -452383739 1250831646 -313709986 -1843722845 -1868131480 -1074836224 -1950721411 1170610690 1472488824 -1210741525
REM
CELL 1.54180   50.00000   50.00000   50.00000   90.00000   90.00000   90.00000
LATT -1
SFAC C  
C      1  0.5086140000000  0.5282510000000  0.5732670000000 1.0
C      1  0.5287730000000  0.5066650000000  0.5732670000000 1.0
C      1  0.5201590000000  0.4784140000000  0.5732670000000 1.0
C      1  0.4913860000000  0.4717490000000  0.5732670000000 1.0
C      1  0.4712270000000  0.4933350000000  0.5732670000000 1.0
C      1  0.4798410000000  0.5215860000000  0.5732670000000 1.0
C      1  0.5086140000000  0.5282510000000  0.4267330000000 1.0
C      1  0.5287730000000  0.5066650000000  0.4267330000000 1.0
C      1  0.5201590000000  0.4784140000000  0.4267330000000 1.0
C      1  0.4913860000000  0.4717490000000  0.4267330000000 1.0
C      1  0.4712270000000  0.4933350000000  0.4267330000000 1.0
C      1  0.4798410000000  0.5215860000000  0.4267330000000 1.0
C      1  0.4458360000000  0.4874530000000  0.5596910000000 1.0
C      1  0.4620520000000  0.5406340000000  0.5596910000000 1.0
C      1  0.5162160000000  0.5531810000000  0.5596910000000 1.0
C      1  0.5541640000000  0.5125470000000  0.5596910000000 1.0
C      1  0.5379480000000  0.4593660000000  0.5596910000000 1.0
C      1  0.4837840000000  0.4468190000000  0.5596910000000 1.0
C      1  0.4458360000000  0.4874530000000  0.4403090000000 1.0
C      1  0.4620520000000  0.5406340000000  0.4403090000000 1.0
C      1  0.5162160000000  0.5531810000000  0.4403090000000 1.0
C      1  0.5541640000000  0.5125470000000  0.4403090000000 1.0
C      1  0.5379480000000  0.4593660000000  0.4403090000000 1.0
C      1  0.4837840000000  0.4468190000000  0.4403090000000 1.0
C      1  0.4522210000000  0.4553790000000  0.5152060000000 1.0
C      1  0.4374680000000  0.5190680000000  0.5152060000000 1.0
C      1  0.4852470000000  0.5636880000000  0.5152060000000 1.0
C      1  0.5477790000000  0.5446210000000  0.5152060000000 1.0
C      1  0.5625320000000  0.4809320000000  0.5152060000000 1.0
C      1  0.5147530000000  0.4363120000000  0.5152060000000 1.0
C      1  0.4522210000000  0.4553790000000  0.4847940000000 1.0
C      1  0.4374680000000  0.5190680000000  0.4847940000000 1.0
C      1  0.4852470000000  0.5636880000000  0.4847940000000 1.0
C      1  0.5477790000000  0.5446210000000  0.4847940000000 1.0
C      1  0.5625320000000  0.4809320000000  0.4847940000000 1.0
C      1  0.5147530000000  0.4363120000000  0.4847940000000 1.0
C      1  0.5398360000000  0.4573440000000  0.4698080000000 1.0
C      1  0.4829770000000  0.4441730000000  0.4698080000000 1.0
C      1  0.4431410000000  0.4868290000000  0.4698080000000 1.0
C      1  0.4601640000000  0.5426560000000  0.4698080000000 1.0
C      1  0.5170230000000  0.5558270000000  0.4698080000000 1.0
C      1  0.5568590000000  0.5131710000000  0.4698080000000 1.0
C      1  0.5398360000000  0.4573440000000  0.5301920000000 1.0
C      1  0.4829770000000  0.4441730000000  0.5301920000000 1.0
C      1  0.4431410000000  0.4868290000000  0.5301920000000 1.0
C      1  0.4601640000000  0.5426560000000  0.5301920000000 1.0
C      1  0.5170230000000  0.5558270000000  0.5301920000000 1.0
C      1  0.5568590000000  0.5131710000000  0.5301920000000 1.0
C      1  0.5207000000000  0.4778350000000  0.4837360000000 1.0
C      1  0.4911540000000  0.4709910000000  0.4837360000000 1.0
C      1  0.4704550000000  0.4931560000000  0.4837360000000 1.0
C      1  0.4793000000000  0.5221650000000  0.4837360000000 1.0
C      1  0.5088460000000  0.5290090000000  0.4837360000000 1.0
C      1  0.5295450000000  0.5068440000000  0.4837360000000 1.0
C      1  0.5207000000000  0.4778350000000  0.5162640000000 1.0
C      1  0.4911540000000  0.4709910000000  0.5162640000000 1.0
C      1  0.4704550000000  0.4931560000000  0.5162640000000 1.0
C      1  0.4793000000000  0.5221650000000  0.5162640000000 1.0
C      1  0.5088460000000  0.5290090000000  0.5162640000000 1.0
C      1  0.5295450000000  0.5068440000000  0.5162640000000 1.0
END
