TITL C-3985244-725-397 7.36166168132781e-08 125000 -399.625539746468 0 0 60 (D6h) n - 1
REM
REM in /home/nfs/bkarasulu/CARBON/AIRSS/Generating-Clusters/TERSOFF/Higher-Symm/Only-C60
REM
REM
REM
REM
REM
REM ./C.cell (28575a23ae977d3b5fae324c64b13b57)
REM
REM compiler GCC version 9.2.1 20190827 (Red Hat 9.2.1-1)
REM options -cpp -mtune=generic -march=x86-64 -g -O0 -fpre-include=/usr/include/finclude/math-vector-fortran.h
REM seed -1591841020 -1703847440 1982261715 1389308818 -1135867173 -291384379 842317281 -1198485811 961117680 1308556277 -1725603707 -336057538 -3435419 1886963181 1073227136 -1213566355 1463073475 441991901 1828644819 -798930498 -2097074241 -1449258356 -480553390 -1124682888 -1604310584 50873332 263017636 1781311126 1145130820 103189831 14202073 -1578635010 -1028089368
REM
CELL 1.54180   50.00000   50.00000   50.00000   90.00000   90.00000   90.00000
LATT -1
SFAC C  
C      1  0.4495900000000  0.5285080000000  0.5000500000000 1.0
C      1  0.4747490000000  0.5285020000000  0.4563670000000 1.0
C      1  0.5251590000000  0.5285020000000  0.4563130000000 1.0
C      1  0.5504100000000  0.5285080000000  0.4999430000000 1.0
C      1  0.5252510000000  0.5285130000000  0.5436260000000 1.0
C      1  0.4748410000000  0.5285140000000  0.5436790000000 1.0
C      1  0.4495900000000  0.4714920000000  0.5000570000000 1.0
C      1  0.4747490000000  0.4714870000000  0.4563740000000 1.0
C      1  0.5251590000000  0.4714860000000  0.4563210000000 1.0
C      1  0.5504100000000  0.4714920000000  0.4999500000000 1.0
C      1  0.5252510000000  0.4714980000000  0.5436330000000 1.0
C      1  0.4748410000000  0.4714980000000  0.5436870000000 1.0
C      1  0.4579790000000  0.4272970000000  0.5243300000000 1.0
C      1  0.4579270000000  0.4272900000000  0.4757780000000 1.0
C      1  0.4999490000000  0.4272870000000  0.4514580000000 1.0
C      1  0.5420210000000  0.4272900000000  0.4756890000000 1.0
C      1  0.5420730000000  0.4272970000000  0.5242410000000 1.0
C      1  0.5000510000000  0.4273000000000  0.5485610000000 1.0
C      1  0.4579790000000  0.5727100000000  0.5243110000000 1.0
C      1  0.4579270000000  0.5727030000000  0.4757590000000 1.0
C      1  0.4999490000000  0.5727000000000  0.4514390000000 1.0
C      1  0.5420210000000  0.5727030000000  0.4756700000000 1.0
C      1  0.5420730000000  0.5727100000000  0.5242220000000 1.0
C      1  0.5000510000000  0.5727130000000  0.5485420000000 1.0
C      1  0.5435550000000  0.5147030000000  0.5250830000000 1.0
C      1  0.5000530000000  0.5147070000000  0.5502600000000 1.0
C      1  0.4564980000000  0.5147030000000  0.5251750000000 1.0
C      1  0.4564450000000  0.5146970000000  0.4749130000000 1.0
C      1  0.4999470000000  0.5146930000000  0.4497360000000 1.0
C      1  0.5435020000000  0.5146970000000  0.4748210000000 1.0
C      1  0.5435550000000  0.4853030000000  0.5250870000000 1.0
C      1  0.5000530000000  0.4853070000000  0.5502640000000 1.0
C      1  0.4564980000000  0.4853030000000  0.5251790000000 1.0
C      1  0.4564450000000  0.4852970000000  0.4749170000000 1.0
C      1  0.4999470000000  0.4852930000000  0.4497400000000 1.0
C      1  0.5435020000000  0.4852970000000  0.4748250000000 1.0
C      1  0.4999680000000  0.5971310000000  0.4699080000000 1.0
C      1  0.5260340000000  0.5971330000000  0.4849200000000 1.0
C      1  0.5260660000000  0.5971370000000  0.5149990000000 1.0
C      1  0.5000320000000  0.5971390000000  0.5300670000000 1.0
C      1  0.4739660000000  0.5971370000000  0.5150540000000 1.0
C      1  0.4739350000000  0.5971330000000  0.4849750000000 1.0
C      1  0.4999680000000  0.4028610000000  0.4699330000000 1.0
C      1  0.5260340000000  0.4028630000000  0.4849460000000 1.0
C      1  0.5260650000000  0.4028670000000  0.5150250000000 1.0
C      1  0.5000320000000  0.4028690000000  0.5300920000000 1.0
C      1  0.4739660000000  0.4028670000000  0.5150800000000 1.0
C      1  0.4739340000000  0.4028630000000  0.4850010000000 1.0
C      1  0.5256810000000  0.5578090000000  0.4554030000000 1.0
C      1  0.5514560000000  0.5578150000000  0.4999380000000 1.0
C      1  0.5257750000000  0.5578210000000  0.5445270000000 1.0
C      1  0.4743190000000  0.5578210000000  0.5445820000000 1.0
C      1  0.4485440000000  0.5578150000000  0.5000470000000 1.0
C      1  0.4742250000000  0.5578090000000  0.4554570000000 1.0
C      1  0.5256810000000  0.4421790000000  0.4554180000000 1.0
C      1  0.5514560000000  0.4421850000000  0.4999530000000 1.0
C      1  0.5257750000000  0.4421910000000  0.5445430000000 1.0
C      1  0.4743190000000  0.4421910000000  0.5445970000000 1.0
C      1  0.4485440000000  0.4421850000000  0.5000620000000 1.0
C      1  0.4742250000000  0.4421790000000  0.4554730000000 1.0
END
