TITL C-3985255-5397-31 0.00142385050982469 125000 -315.753567349746 0 0 60 (C1) n - 1
REM
REM in /home/nfs/bkarasulu/CARBON/AIRSS/Generating-Clusters/TERSOFF/Higher-Symm/Only-C60
REM
REM
REM
REM
REM
REM ./C.cell (28575a23ae977d3b5fae324c64b13b57)
REM
REM compiler GCC version 9.2.1 20190827 (Red Hat 9.2.1-1)
REM options -cpp -mtune=generic -march=x86-64 -g -O0 -fpre-include=/usr/include/finclude/math-vector-fortran.h
REM seed 1665550287 199427187 -1745706499 858760242 -770971414 1148993143 -1113931467 -510751959 343971283 -1803285339 2003607901 -2019244520 484240209 1981432877 -412063409 -1245645067 -2087706210 -1925862786 1944952426 1513526037 625899634 -2105223087 -530738010 -493380880 1658431596 1139349837 -494936559 -849089619 -2000387444 1194977430 -260569664 2136857601 1258977553
REM
CELL 1.54180   50.00000   50.00000   50.00000   90.00000   90.00000   90.00000
LATT -1
SFAC C  
C      1  0.5022670000000  0.5315710000000  0.5713390000000 1.0
C      1  0.5646370000000  0.5314660000000  0.5128860000000 1.0
C      1  0.5356390000000  0.5304220000000  0.4374730000000 1.0
C      1  0.4532400000000  0.5316170000000  0.4529950000000 1.0
C      1  0.4380920000000  0.5273470000000  0.5278440000000 1.0
C      1  0.4806090000000  0.4603200000000  0.5231780000000 1.0
C      1  0.5113830000000  0.4614620000000  0.5248850000000 1.0
C      1  0.5253120000000  0.4570530000000  0.4930830000000 1.0
C      1  0.4962010000000  0.4552640000000  0.4739110000000 1.0
C      1  0.4720000000000  0.4583730000000  0.4929130000000 1.0
C      1  0.4524390000000  0.4330850000000  0.5007540000000 1.0
C      1  0.4829290000000  0.4342290000000  0.5435370000000 1.0
C      1  0.5320420000000  0.4375420000000  0.5359240000000 1.0
C      1  0.5357210000000  0.4332460000000  0.4677460000000 1.0
C      1  0.4859830000000  0.4343140000000  0.4515820000000 1.0
C      1  0.5342010000000  0.4768150000000  0.4408830000000 1.0
C      1  0.4548190000000  0.4795670000000  0.4491990000000 1.0
C      1  0.4328290000000  0.4751990000000  0.5290630000000 1.0
C      1  0.5025210000000  0.4774600000000  0.5710790000000 1.0
C      1  0.5609230000000  0.4806030000000  0.5180370000000 1.0
C      1  0.4962610000000  0.5251960000000  0.5236480000000 1.0
C      1  0.5268750000000  0.5489690000000  0.5076400000000 1.0
C      1  0.5105110000000  0.5312390000000  0.4724630000000 1.0
C      1  0.4915250000000  0.5556570000000  0.4788430000000 1.0
C      1  0.4780790000000  0.5430990000000  0.5029860000000 1.0
C      1  0.5220650000000  0.4815390000000  0.5484890000000 1.0
C      1  0.5572040000000  0.4742240000000  0.4868410000000 1.0
C      1  0.5048790000000  0.4788090000000  0.4481760000000 1.0
C      1  0.4434960000000  0.4755150000000  0.4784850000000 1.0
C      1  0.4582530000000  0.4753560000000  0.5473730000000 1.0
C      1  0.4317490000000  0.4561270000000  0.5044990000000 1.0
C      1  0.4797220000000  0.4568190000000  0.5650010000000 1.0
C      1  0.5499330000000  0.4630070000000  0.5413920000000 1.0
C      1  0.5496000000000  0.4585340000000  0.4588900000000 1.0
C      1  0.4773330000000  0.4608810000000  0.4368690000000 1.0
C      1  0.5448560000000  0.5506060000000  0.5323150000000 1.0
C      1  0.5396420000000  0.5420270000000  0.4658590000000 1.0
C      1  0.4798030000000  0.5491440000000  0.4501200000000 1.0
C      1  0.4492940000000  0.5406180000000  0.5035090000000 1.0
C      1  0.4830180000000  0.5379210000000  0.5488240000000 1.0
C      1  0.5256570000000  0.5103530000000  0.5391960000000 1.0
C      1  0.5628580000000  0.5016610000000  0.4696240000000 1.0
C      1  0.4955230000000  0.5078270000000  0.4495200000000 1.0
C      1  0.4291640000000  0.5016870000000  0.4882430000000 1.0
C      1  0.4620990000000  0.5013040000000  0.5642400000000 1.0
C      1  0.5620550000000  0.5290400000000  0.4826830000000 1.0
C      1  0.5052910000000  0.5324050000000  0.4308310000000 1.0
C      1  0.4381560000000  0.5289860000000  0.4783530000000 1.0
C      1  0.4551000000000  0.5270780000000  0.5515410000000 1.0
C      1  0.5314690000000  0.5340650000000  0.5592760000000 1.0
C      1  0.5491900000000  0.5028430000000  0.4422780000000 1.0
C      1  0.4665390000000  0.5066830000000  0.4460200000000 1.0
C      1  0.4250470000000  0.5019790000000  0.5181180000000 1.0
C      1  0.4891190000000  0.5035340000000  0.5785410000000 1.0
C      1  0.5518900000000  0.5075480000000  0.5244880000000 1.0
C      1  0.5168070000000  0.5187190000000  0.4991100000000 1.0
C      1  0.5078890000000  0.5974240000000  0.5071360000000 1.0
C      1  0.5131230000000  0.5718370000000  0.4943170000000 1.0
C      1  0.5125770000000  0.4887700000000  0.4930340000000 1.0
C      1  0.5111200000000  0.4268880000000  0.5011160000000 1.0
END
