TITL C-3985245-9316-1221 0.000407013193359457 125000 -318.704735789167 0 0 60 (C4) n - 1
REM
REM in /home/nfs/bkarasulu/CARBON/AIRSS/Generating-Clusters/TERSOFF/Higher-Symm/Only-C60
REM
REM
REM
REM
REM
REM ./C.cell (28575a23ae977d3b5fae324c64b13b57)
REM
REM compiler GCC version 9.2.1 20190827 (Red Hat 9.2.1-1)
REM options -cpp -mtune=generic -march=x86-64 -g -O0 -fpre-include=/usr/include/finclude/math-vector-fortran.h
REM seed 205473332 -2083635227 683035258 -1465261864 505613358 -1010682151 1585360903 -1801856513 -1440295763 -970101108 961240676 1722715400 1526693866 503648904 -1019168067 1932694124 -1574566468 -430996211 -868585060 413606138 -1346327876 411853696 443395982 -1074887117 -1450670957 -1975969864 626401212 1658023557 -2019755904 2106276228 1553304326 -1459625547 417563834
REM
CELL 1.54180   50.00000   50.00000   50.00000   90.00000   90.00000   90.00000
LATT -1
SFAC C  
C      1  0.5621150000000  0.4708960000000  0.4926780000000 1.0
C      1  0.4708960000000  0.4378850000000  0.4926780000000 1.0
C      1  0.4378850000000  0.5291040000000  0.4926780000000 1.0
C      1  0.5291040000000  0.5621150000000  0.4926780000000 1.0
C      1  0.4825020000000  0.4848140000000  0.4346400000000 1.0
C      1  0.4848140000000  0.5174980000000  0.4346400000000 1.0
C      1  0.5174980000000  0.5151860000000  0.4346400000000 1.0
C      1  0.5151860000000  0.4825020000000  0.4346400000000 1.0
C      1  0.5337140000000  0.4648490000000  0.4507870000000 1.0
C      1  0.4648490000000  0.4662860000000  0.4507870000000 1.0
C      1  0.4662860000000  0.5351510000000  0.4507870000000 1.0
C      1  0.5351510000000  0.5337140000000  0.4507870000000 1.0
C      1  0.4935090000000  0.4563280000000  0.5414630000000 1.0
C      1  0.4563280000000  0.5064910000000  0.5414630000000 1.0
C      1  0.5064910000000  0.5436720000000  0.5414630000000 1.0
C      1  0.5436720000000  0.4935090000000  0.5414630000000 1.0
C      1  0.5417200000000  0.5358280000000  0.5014870000000 1.0
C      1  0.5358280000000  0.4582800000000  0.5014870000000 1.0
C      1  0.4582800000000  0.4641720000000  0.5014870000000 1.0
C      1  0.4641720000000  0.5417200000000  0.5014870000000 1.0
C      1  0.5051650000000  0.5246050000000  0.4787570000000 1.0
C      1  0.5246050000000  0.4948350000000  0.4787570000000 1.0
C      1  0.4948350000000  0.4753950000000  0.4787570000000 1.0
C      1  0.4753950000000  0.5051650000000  0.4787570000000 1.0
C      1  0.5248820000000  0.5057010000000  0.5131060000000 1.0
C      1  0.5057010000000  0.4751180000000  0.5131060000000 1.0
C      1  0.4751180000000  0.4942990000000  0.5131060000000 1.0
C      1  0.4942990000000  0.5248820000000  0.5131060000000 1.0
C      1  0.5052740000000  0.5789260000000  0.5045390000000 1.0
C      1  0.5789260000000  0.4947260000000  0.5045390000000 1.0
C      1  0.4947260000000  0.4210740000000  0.5045390000000 1.0
C      1  0.4210740000000  0.5052740000000  0.5045390000000 1.0
C      1  0.4428900000000  0.4634860000000  0.5273840000000 1.0
C      1  0.4634860000000  0.5571100000000  0.5273840000000 1.0
C      1  0.5571100000000  0.5365140000000  0.5273840000000 1.0
C      1  0.5365140000000  0.4428900000000  0.5273840000000 1.0
C      1  0.4718060000000  0.5536500000000  0.4748340000000 1.0
C      1  0.5536500000000  0.5281940000000  0.4748340000000 1.0
C      1  0.5281940000000  0.4463500000000  0.4748340000000 1.0
C      1  0.4463500000000  0.4718060000000  0.4748340000000 1.0
C      1  0.4929150000000  0.5733110000000  0.4746190000000 1.0
C      1  0.5733110000000  0.5070850000000  0.4746190000000 1.0
C      1  0.5070850000000  0.4266890000000  0.4746190000000 1.0
C      1  0.4266890000000  0.4929150000000  0.4746190000000 1.0
C      1  0.4925080000000  0.5688960000000  0.5287690000000 1.0
C      1  0.5688960000000  0.5074920000000  0.5287690000000 1.0
C      1  0.5074920000000  0.4311040000000  0.5287690000000 1.0
C      1  0.4311040000000  0.4925080000000  0.5287690000000 1.0
C      1  0.5544520000000  0.4835330000000  0.4645970000000 1.0
C      1  0.4835330000000  0.4455480000000  0.4645970000000 1.0
C      1  0.4455480000000  0.5164670000000  0.4645970000000 1.0
C      1  0.5164670000000  0.5544520000000  0.4645970000000 1.0
C      1  0.5382840000000  0.5142590000000  0.5627530000000 1.0
C      1  0.5142590000000  0.4617160000000  0.5627530000000 1.0
C      1  0.4617160000000  0.4857410000000  0.5627530000000 1.0
C      1  0.4857410000000  0.5382840000000  0.5627530000000 1.0
C      1  0.5406100000000  0.4644830000000  0.5495870000000 1.0
C      1  0.4644830000000  0.4593900000000  0.5495870000000 1.0
C      1  0.4593900000000  0.5355170000000  0.5495870000000 1.0
C      1  0.5355170000000  0.5406100000000  0.5495870000000 1.0
END
