TITL C-3985253-1688-916 -0.00190160310805986 125000 -332.169560859668 0 0 60 (S4) n - 1
REM
REM in /home/nfs/bkarasulu/CARBON/AIRSS/Generating-Clusters/TERSOFF/Higher-Symm/Only-C60
REM
REM
REM
REM
REM
REM ./C.cell (28575a23ae977d3b5fae324c64b13b57)
REM
REM compiler GCC version 9.2.1 20190827 (Red Hat 9.2.1-1)
REM options -cpp -mtune=generic -march=x86-64 -g -O0 -fpre-include=/usr/include/finclude/math-vector-fortran.h
REM seed -392893923 1208605608 1813327890 -1737463177 -157880687 2138654385 -271745068 2095086020 -2014140176 2037342652 -74474330 -214652112 -2139891205 1958379242 2064830939 1569603260 1267927179 1736207084 1647170034 477626360 -1647269077 440413744 -1576856366 -167312248 -664087298 122920749 -496883325 -183130345 139564741 1837682987 1594388669 1876999608 268816840
REM
CELL 1.54180   50.00000   50.00000   50.00000   90.00000   90.00000   90.00000
LATT -1
SFAC C  
C      1  0.5124610000000  0.4835720000000  0.5202480000000 1.0
C      1  0.4875390000000  0.4797520000000  0.4835720000000 1.0
C      1  0.5124610000000  0.5164280000000  0.4797520000000 1.0
C      1  0.4875390000000  0.5202480000000  0.5164280000000 1.0
C      1  0.5405370000000  0.5580270000000  0.4761250000000 1.0
C      1  0.4594630000000  0.5238750000000  0.5580270000000 1.0
C      1  0.5405370000000  0.4419730000000  0.5238750000000 1.0
C      1  0.4594630000000  0.4761250000000  0.4419730000000 1.0
C      1  0.5195890000000  0.5058920000000  0.4350110000000 1.0
C      1  0.4804110000000  0.5649890000000  0.5058920000000 1.0
C      1  0.5195890000000  0.4941080000000  0.5649890000000 1.0
C      1  0.4804110000000  0.4350110000000  0.4941080000000 1.0
C      1  0.4605290000000  0.5259420000000  0.4992840000000 1.0
C      1  0.5394710000000  0.5007160000000  0.5259420000000 1.0
C      1  0.4605290000000  0.4740580000000  0.5007160000000 1.0
C      1  0.5394710000000  0.4992840000000  0.4740580000000 1.0
C      1  0.5470310000000  0.4816520000000  0.5552830000000 1.0
C      1  0.4529690000000  0.4447170000000  0.4816520000000 1.0
C      1  0.5470310000000  0.5183480000000  0.4447170000000 1.0
C      1  0.4529690000000  0.5552830000000  0.5183480000000 1.0
C      1  0.4822770000000  0.4916930000000  0.5235790000000 1.0
C      1  0.5177230000000  0.4764210000000  0.4916930000000 1.0
C      1  0.4822770000000  0.5083070000000  0.4764210000000 1.0
C      1  0.5177230000000  0.5235790000000  0.5083070000000 1.0
C      1  0.5519910000000  0.4738370000000  0.4568310000000 1.0
C      1  0.4480090000000  0.5431690000000  0.4738370000000 1.0
C      1  0.5519910000000  0.5261630000000  0.5431690000000 1.0
C      1  0.4480090000000  0.4568310000000  0.5261630000000 1.0
C      1  0.4959420000000  0.5498820000000  0.4546140000000 1.0
C      1  0.5040580000000  0.5453860000000  0.5498820000000 1.0
C      1  0.4959420000000  0.4501180000000  0.5453860000000 1.0
C      1  0.5040580000000  0.4546140000000  0.4501180000000 1.0
C      1  0.4412610000000  0.4680640000000  0.4639300000000 1.0
C      1  0.5587390000000  0.5360700000000  0.4680640000000 1.0
C      1  0.4412610000000  0.5319360000000  0.5360700000000 1.0
C      1  0.5587390000000  0.4639300000000  0.5319360000000 1.0
C      1  0.4356380000000  0.4938850000000  0.4831870000000 1.0
C      1  0.5643620000000  0.5168130000000  0.4938850000000 1.0
C      1  0.4356380000000  0.5061150000000  0.5168130000000 1.0
C      1  0.5643620000000  0.4831870000000  0.5061150000000 1.0
C      1  0.5564910000000  0.5377550000000  0.5159470000000 1.0
C      1  0.4435090000000  0.4840530000000  0.5377550000000 1.0
C      1  0.5564910000000  0.4622450000000  0.4840530000000 1.0
C      1  0.4435090000000  0.5159470000000  0.4622450000000 1.0
C      1  0.5247650000000  0.4749210000000  0.4430160000000 1.0
C      1  0.4752350000000  0.5569840000000  0.4749210000000 1.0
C      1  0.5247650000000  0.5250790000000  0.5569840000000 1.0
C      1  0.4752350000000  0.4430160000000  0.5250790000000 1.0
C      1  0.4794200000000  0.4565310000000  0.4356260000000 1.0
C      1  0.5205800000000  0.5643740000000  0.4565310000000 1.0
C      1  0.4794200000000  0.5434690000000  0.5643740000000 1.0
C      1  0.5205800000000  0.4356260000000  0.5434690000000 1.0
C      1  0.5320090000000  0.4459530000000  0.4942200000000 1.0
C      1  0.4679910000000  0.5057800000000  0.4459530000000 1.0
C      1  0.5320090000000  0.5540470000000  0.5057800000000 1.0
C      1  0.4679910000000  0.4942200000000  0.5540470000000 1.0
C      1  0.5057210000000  0.5612230000000  0.5223350000000 1.0
C      1  0.4942790000000  0.4776650000000  0.5612230000000 1.0
C      1  0.5057210000000  0.4387770000000  0.4776650000000 1.0
C      1  0.4942790000000  0.5223350000000  0.4387770000000 1.0
END
