TITL C-3985250-725-908 -0.000102297761680345 125000 -332.201844025526 0 0 60 (C2) n - 1
REM
REM in /home/nfs/bkarasulu/CARBON/AIRSS/Generating-Clusters/TERSOFF/Higher-Symm/Only-C60
REM
REM
REM
REM
REM
REM ./C.cell (28575a23ae977d3b5fae324c64b13b57)
REM
REM compiler GCC version 9.2.1 20190827 (Red Hat 9.2.1-1)
REM options -cpp -mtune=generic -march=x86-64 -g -O0 -fpre-include=/usr/include/finclude/math-vector-fortran.h
REM seed -1741303521 232443571 788597891 -1908066105 1222153924 -1499220316 1525232738 889806499 1811384016 -845603276 1669252481 364596652 -762841485 -2055232267 -1010010775 994472810 -313479594 -2099997226 -796249043 -623899031 -1727412134 -1194591660 -120140959 -2062763418 1666657577 235485781 784200693 1299947362 1735410678 -1626592019 -871452882 1031437433 1544135491
REM
CELL 1.54180   50.00000   50.00000   50.00000   90.00000   90.00000   90.00000
LATT -1
SFAC C  
C      1  0.4638060000000  0.5427350000000  0.4685420000000 1.0
C      1  0.5361940000000  0.5427360000000  0.5314580000000 1.0
C      1  0.5001660000000  0.4939560000000  0.4484510000000 1.0
C      1  0.4998340000000  0.4939560000000  0.5515490000000 1.0
C      1  0.5363600000000  0.4758440000000  0.5138660000000 1.0
C      1  0.4636400000000  0.4758440000000  0.4861340000000 1.0
C      1  0.5281970000000  0.4989050000000  0.4797380000000 1.0
C      1  0.4718030000000  0.4989050000000  0.5202620000000 1.0
C      1  0.5618130000000  0.4817310000000  0.5010850000000 1.0
C      1  0.4381870000000  0.4817310000000  0.4989150000000 1.0
C      1  0.5031860000000  0.5580130000000  0.4502400000000 1.0
C      1  0.4968140000000  0.5580130000000  0.5497600000000 1.0
C      1  0.4719130000000  0.5254580000000  0.4230320000000 1.0
C      1  0.5280870000000  0.5254580000000  0.5769680000000 1.0
C      1  0.5169780000000  0.5451120000000  0.4877300000000 1.0
C      1  0.4830220000000  0.5451120000000  0.5122700000000 1.0
C      1  0.4963840000000  0.4258750000000  0.5267720000000 1.0
C      1  0.5036160000000  0.4258750000000  0.4732280000000 1.0
C      1  0.5492760000000  0.4466830000000  0.4745960000000 1.0
C      1  0.4507240000000  0.4466830000000  0.5254040000000 1.0
C      1  0.5581980000000  0.5021210000000  0.4814090000000 1.0
C      1  0.4418020000000  0.5021210000000  0.5185910000000 1.0
C      1  0.5108960000000  0.4666190000000  0.4592470000000 1.0
C      1  0.4891040000000  0.4666190000000  0.5407530000000 1.0
C      1  0.5476710000000  0.4902860000000  0.4409480000000 1.0
C      1  0.4523290000000  0.4902860000000  0.5590520000000 1.0
C      1  0.4599120000000  0.4628620000000  0.5489480000000 1.0
C      1  0.5400880000000  0.4628620000000  0.4510520000000 1.0
C      1  0.5643310000000  0.5284880000000  0.4917710000000 1.0
C      1  0.4356690000000  0.5284880000000  0.5082290000000 1.0
C      1  0.4716330000000  0.5386490000000  0.5521500000000 1.0
C      1  0.5283670000000  0.5386490000000  0.4478500000000 1.0
C      1  0.4719170000000  0.4319780000000  0.5108840000000 1.0
C      1  0.5280830000000  0.4319780000000  0.4891160000000 1.0
C      1  0.4858800000000  0.5299310000000  0.4835490000000 1.0
C      1  0.5141200000000  0.5299310000000  0.5164510000000 1.0
C      1  0.5480580000000  0.4848880000000  0.5531360000000 1.0
C      1  0.4519420000000  0.4848880000000  0.4468640000000 1.0
C      1  0.5397940000000  0.4556170000000  0.5366820000000 1.0
C      1  0.4602060000000  0.4556170000000  0.4633180000000 1.0
C      1  0.4388980000000  0.5285560000000  0.4766970000000 1.0
C      1  0.5611020000000  0.5285560000000  0.5233030000000 1.0
C      1  0.5249340000000  0.5480950000000  0.5585440000000 1.0
C      1  0.4750660000000  0.5480950000000  0.4414560000000 1.0
C      1  0.5444480000000  0.5443320000000  0.4748220000000 1.0
C      1  0.4555520000000  0.5443320000000  0.5251780000000 1.0
C      1  0.4873500000000  0.4726580000000  0.5079520000000 1.0
C      1  0.5126500000000  0.4726580000000  0.4920470000000 1.0
C      1  0.4748340000000  0.4977260000000  0.4324390000000 1.0
C      1  0.5251660000000  0.4977260000000  0.5675610000000 1.0
C      1  0.5041130000000  0.5741600000000  0.4824660000000 1.0
C      1  0.4958870000000  0.5741600000000  0.5175340000000 1.0
C      1  0.4763970000000  0.4341860000000  0.4810780000000 1.0
C      1  0.5236030000000  0.4341860000000  0.5189220000000 1.0
C      1  0.5683720000000  0.5036290000000  0.5395830000000 1.0
C      1  0.4316290000000  0.5036290000000  0.4604170000000 1.0
C      1  0.5138930000000  0.5006770000000  0.5244990000000 1.0
C      1  0.4861070000000  0.5006770000000  0.4755010000000 1.0
C      1  0.5250270000000  0.5102300000000  0.4394640000000 1.0
C      1  0.4749730000000  0.5102300000000  0.5605360000000 1.0
END
