TITL C-3985246-2097-153 6.03256613637036e-08 125000 -292.411017163711 0 0 60 (Td) n - 1
REM
REM in /home/nfs/bkarasulu/CARBON/AIRSS/Generating-Clusters/TERSOFF/Higher-Symm/Only-C60
REM
REM
REM
REM
REM
REM ./C.cell (28575a23ae977d3b5fae324c64b13b57)
REM
REM compiler GCC version 9.2.1 20190827 (Red Hat 9.2.1-1)
REM options -cpp -mtune=generic -march=x86-64 -g -O0 -fpre-include=/usr/include/finclude/math-vector-fortran.h
REM seed -1951225437 1468371419 -621273670 717607021 1959534774 14652089 -941920567 1186427859 1529984064 624485375 837061588 236707294 800942653 1223332639 -1973978479 641719377 2140509958 -156988584 -358697940 307416870 1675541868 -379370816 -932282714 2040898093 -33592970 1361637843 -237654242 -106601183 1604380224 -1369831475 -1706048782 -1063171408 -394866628
REM
CELL 1.54180   50.00000   50.00000   50.00000   90.00000   90.00000   90.00000
LATT -1
SFAC C  
C      1  0.4351160000000  0.5217050000000  0.5424790000000 1.0
C      1  0.5217050000000  0.5424790000000  0.4351160000000 1.0
C      1  0.5424790000000  0.4351160000000  0.5217050000000 1.0
C      1  0.5648840000000  0.5217050000000  0.4575210000000 1.0
C      1  0.5648840000000  0.4782950000000  0.5424790000000 1.0
C      1  0.4351160000000  0.4782950000000  0.4575210000000 1.0
C      1  0.4782950000000  0.5424790000000  0.5648840000000 1.0
C      1  0.4782950000000  0.4575210000000  0.4351160000000 1.0
C      1  0.5217050000000  0.4575210000000  0.5648840000000 1.0
C      1  0.4575210000000  0.4351160000000  0.4782950000000 1.0
C      1  0.4575210000000  0.5648840000000  0.5217050000000 1.0
C      1  0.5424790000000  0.5648840000000  0.4782950000000 1.0
C      1  0.5424790000000  0.5217050000000  0.4351160000000 1.0
C      1  0.4351160000000  0.5424790000000  0.5217050000000 1.0
C      1  0.5217050000000  0.4351160000000  0.5424790000000 1.0
C      1  0.4575210000000  0.5217050000000  0.5648840000000 1.0
C      1  0.5424790000000  0.4782950000000  0.5648840000000 1.0
C      1  0.4575210000000  0.4782950000000  0.4351160000000 1.0
C      1  0.5648840000000  0.5424790000000  0.4782950000000 1.0
C      1  0.4351160000000  0.4575210000000  0.4782950000000 1.0
C      1  0.5648840000000  0.4575210000000  0.5217050000000 1.0
C      1  0.4782950000000  0.4351160000000  0.4575210000000 1.0
C      1  0.5217050000000  0.5648840000000  0.4575210000000 1.0
C      1  0.4782950000000  0.5648840000000  0.5424790000000 1.0
C      1  0.5085700000000  0.4676600000000  0.4440580000000 1.0
C      1  0.4676600000000  0.4440580000000  0.5085700000000 1.0
C      1  0.4440580000000  0.5085700000000  0.4676600000000 1.0
C      1  0.4914300000000  0.4676600000000  0.5559420000000 1.0
C      1  0.4914300000000  0.5323400000000  0.4440580000000 1.0
C      1  0.5085700000000  0.5323400000000  0.5559420000000 1.0
C      1  0.5323400000000  0.4440580000000  0.4914300000000 1.0
C      1  0.5323400000000  0.5559420000000  0.5085700000000 1.0
C      1  0.4676600000000  0.5559420000000  0.4914300000000 1.0
C      1  0.5559420000000  0.5085700000000  0.5323400000000 1.0
C      1  0.5559420000000  0.4914300000000  0.4676600000000 1.0
C      1  0.4440580000000  0.4914300000000  0.5323400000000 1.0
C      1  0.4440580000000  0.4676600000000  0.5085700000000 1.0
C      1  0.5085700000000  0.4440580000000  0.4676600000000 1.0
C      1  0.4676600000000  0.5085700000000  0.4440580000000 1.0
C      1  0.5559420000000  0.4676600000000  0.4914300000000 1.0
C      1  0.4440580000000  0.5323400000000  0.4914300000000 1.0
C      1  0.5559420000000  0.5323400000000  0.5085700000000 1.0
C      1  0.4914300000000  0.4440580000000  0.5323400000000 1.0
C      1  0.5085700000000  0.5559420000000  0.5323400000000 1.0
C      1  0.4914300000000  0.5559420000000  0.4676600000000 1.0
C      1  0.5323400000000  0.5085700000000  0.5559420000000 1.0
C      1  0.4676600000000  0.4914300000000  0.5559420000000 1.0
C      1  0.5323400000000  0.4914300000000  0.4440580000000 1.0
C      1  0.4632050000000  0.5111730000000  0.5111730000000 1.0
C      1  0.5111730000000  0.4888270000000  0.5367950000000 1.0
C      1  0.4888270000000  0.5367950000000  0.5111730000000 1.0
C      1  0.5367950000000  0.5111730000000  0.4888270000000 1.0
C      1  0.5111730000000  0.5111730000000  0.4632050000000 1.0
C      1  0.5111730000000  0.4632050000000  0.5111730000000 1.0
C      1  0.5367950000000  0.4888270000000  0.5111730000000 1.0
C      1  0.5111730000000  0.5367950000000  0.4888270000000 1.0
C      1  0.4888270000000  0.4888270000000  0.4632050000000 1.0
C      1  0.4888270000000  0.5111730000000  0.5367950000000 1.0
C      1  0.4888270000000  0.4632050000000  0.4888270000000 1.0
C      1  0.4632050000000  0.4888270000000  0.4888270000000 1.0
END
