TITL C-3985254-1270-1964 2.23389655522373e-08 125000 -330.011828748543 0 0 60 (C5) n - 1
REM
REM in /home/nfs/bkarasulu/CARBON/AIRSS/Generating-Clusters/TERSOFF/Higher-Symm/Only-C60
REM
REM
REM
REM
REM
REM ./C.cell (28575a23ae977d3b5fae324c64b13b57)
REM
REM compiler GCC version 9.2.1 20190827 (Red Hat 9.2.1-1)
REM options -cpp -mtune=generic -march=x86-64 -g -O0 -fpre-include=/usr/include/finclude/math-vector-fortran.h
REM seed 1423184727 -1526207773 -1317059187 1273693244 1833862291 1862029325 -1693945554 -45196448 764714867 -1232236649 -408256335 1046938884 2137789668 465084664 -2080748021 989482425 1654387372 -1513662090 -467481654 -322207416 55537841 -304423058 -497225425 803955182 1096616961 -1682620531 -206993591 146976182 179991167 1047046143 -848213494 1626424722 2104033302
REM
CELL 1.54180   50.00000   50.00000   50.00000   90.00000   90.00000   90.00000
LATT -1
SFAC C  
C      1  0.4629660000000  0.4960760000000  0.5691880000000 1.0
C      1  0.4629680000000  0.5645980000000  0.5250930000000 1.0
C      1  0.4630060000000  0.5438350000000  0.4462990000000 1.0
C      1  0.4630270000000  0.4624810000000  0.4416970000000 1.0
C      1  0.4630030000000  0.4329650000000  0.5176470000000 1.0
C      1  0.4425600000000  0.5251920000000  0.5010190000000 1.0
C      1  0.4425740000000  0.5087670000000  0.4763270000000 1.0
C      1  0.4425780000000  0.4802080000000  0.4843170000000 1.0
C      1  0.4425660000000  0.4789810000000  0.5139480000000 1.0
C      1  0.4425550000000  0.5067830000000  0.5242700000000 1.0
C      1  0.4613970000000  0.5127140000000  0.5454780000000 1.0
C      1  0.4614070000000  0.5471900000000  0.5019420000000 1.0
C      1  0.4614330000000  0.5164380000000  0.4557000000000 1.0
C      1  0.4614400000000  0.4629560000000  0.4706570000000 1.0
C      1  0.4614170000000  0.4606550000000  0.5261430000000 1.0
C      1  0.5397510000000  0.4599610000000  0.4908400000000 1.0
C      1  0.5397270000000  0.4789060000000  0.5352690000000 1.0
C      1  0.5397180000000  0.5270160000000  0.5309810000000 1.0
C      1  0.5397350000000  0.5378040000000  0.4839010000000 1.0
C      1  0.5397550000000  0.4963620000000  0.4590920000000 1.0
C      1  0.5321470000000  0.4654180000000  0.5597080000000 1.0
C      1  0.5321310000000  0.5460920000000  0.5513570000000 1.0
C      1  0.5321600000000  0.5630790000000  0.4720510000000 1.0
C      1  0.5321940000000  0.4929040000000  0.4313880000000 1.0
C      1  0.5321860000000  0.4325460000000  0.4855630000000 1.0
C      1  0.4918880000000  0.5796290000000  0.4841110000000 1.0
C      1  0.4919310000000  0.5094970000000  0.4193540000000 1.0
C      1  0.4919320000000  0.4262370000000  0.4660420000000 1.0
C      1  0.4918890000000  0.4449120000000  0.5596550000000 1.0
C      1  0.4918610000000  0.5397140000000  0.5708220000000 1.0
C      1  0.4863720000000  0.4999730000000  0.4516140000000 1.0
C      1  0.4863690000000  0.4539770000000  0.4850660000000 1.0
C      1  0.4863420000000  0.4715780000000  0.5391480000000 1.0
C      1  0.4863280000000  0.5284530000000  0.5391210000000 1.0
C      1  0.4863470000000  0.5460020000000  0.4850220000000 1.0
C      1  0.4866420000000  0.4747990000000  0.4277080000000 1.0
C      1  0.4866240000000  0.4234610000000  0.5016210000000 1.0
C      1  0.4865810000000  0.4778930000000  0.5732860000000 1.0
C      1  0.4865730000000  0.5628710000000  0.5436650000000 1.0
C      1  0.4866110000000  0.5609590000000  0.4536920000000 1.0
C      1  0.5186580000000  0.4363560000000  0.4539410000000 1.0
C      1  0.5186200000000  0.4365240000000  0.5463060000000 1.0
C      1  0.5185860000000  0.5244200000000  0.5746880000000 1.0
C      1  0.5186050000000  0.5785740000000  0.4998650000000 1.0
C      1  0.5186490000000  0.5241480000000  0.4252390000000 1.0
C      1  0.5152760000000  0.4637400000000  0.4324330000000 1.0
C      1  0.5152520000000  0.4245310000000  0.5136140000000 1.0
C      1  0.5152110000000  0.4896230000000  0.5759900000000 1.0
C      1  0.5152090000000  0.5690600000000  0.5333590000000 1.0
C      1  0.5152500000000  0.5530640000000  0.4446360000000 1.0
C      1  0.5529200000000  0.5036610000000  0.5403830000000 1.0
C      1  0.5529250000000  0.5395260000000  0.5090250000000 1.0
C      1  0.5529470000000  0.5207850000000  0.4652250000000 1.0
C      1  0.5529570000000  0.4733380000000  0.4695140000000 1.0
C      1  0.5529400000000  0.4627540000000  0.5159640000000 1.0
C      1  0.5094730000000  0.4993140000000  0.4729300000000 1.0
C      1  0.5094710000000  0.4740410000000  0.4922920000000 1.0
C      1  0.5094560000000  0.4846450000000  0.5223110000000 1.0
C      1  0.5094480000000  0.5164720000000  0.5215030000000 1.0
C      1  0.5094590000000  0.5255380000000  0.4909830000000 1.0
END
