TITL C-3985250-725-1069 -1.76258946300674e-07 125000 -334.824508055702 0 0 60 (C5) n - 1
REM
REM in /home/nfs/bkarasulu/CARBON/AIRSS/Generating-Clusters/TERSOFF/Higher-Symm/Only-C60
REM
REM
REM
REM
REM
REM ./C.cell (28575a23ae977d3b5fae324c64b13b57)
REM
REM compiler GCC version 9.2.1 20190827 (Red Hat 9.2.1-1)
REM options -cpp -mtune=generic -march=x86-64 -g -O0 -fpre-include=/usr/include/finclude/math-vector-fortran.h
REM seed 303862288 -1664753996 1177432912 -380071291 33076857 -627657961 -370774790 -866169084 -1488969227 -780180901 220054729 -1350751605 -1140554389 10331801 -1680236755 -1108440428 -904762136 -24932418 -1714418791 1460180430 1914892360 1564097339 -27077511 1649756146 679438754 320677095 -2056863463 861665745 -171968758 1079561778 705762034 -1370879342 1437080768
REM
CELL 1.54180   50.00000   50.00000   50.00000   90.00000   90.00000   90.00000
LATT -1
SFAC C  
C      1  0.4776200000000  0.4885210000000  0.4856750000000 1.0
C      1  0.5067080000000  0.4885210000000  0.4742890000000 1.0
C      1  0.5265250000000  0.4885210000000  0.4984340000000 1.0
C      1  0.5096860000000  0.4885210000000  0.5247430000000 1.0
C      1  0.4794610000000  0.4885210000000  0.5168580000000 1.0
C      1  0.5530570000000  0.4731630000000  0.4953090000000 1.0
C      1  0.5208570000000  0.4731630000000  0.5490110000000 1.0
C      1  0.4598330000000  0.4731620000000  0.5349820000000 1.0
C      1  0.4543180000000  0.4731620000000  0.4726090000000 1.0
C      1  0.5119340000000  0.4731630000000  0.4480900000000 1.0
C      1  0.4487290000000  0.5241910000000  0.5545950000000 1.0
C      1  0.4322340000000  0.5241910000000  0.4681090000000 1.0
C      1  0.5093890000000  0.5241920000000  0.4256960000000 1.0
C      1  0.5735690000000  0.5241920000000  0.4859690000000 1.0
C      1  0.5360790000000  0.5241920000000  0.5656320000000 1.0
C      1  0.4257520000000  0.5039050000000  0.5122240000000 1.0
C      1  0.4654310000000  0.5039050000000  0.4331630000000 1.0
C      1  0.5528840000000  0.5039050000000  0.4464690000000 1.0
C      1  0.5672530000000  0.5039050000000  0.5337530000000 1.0
C      1  0.4886810000000  0.5039050000000  0.5743920000000 1.0
C      1  0.5034090000000  0.5215780000000  0.5265630000000 1.0
C      1  0.4757900000000  0.5215780000000  0.5114510000000 1.0
C      1  0.4816280000000  0.5215780000000  0.4805140000000 1.0
C      1  0.5128550000000  0.5215780000000  0.4765060000000 1.0
C      1  0.5263170000000  0.5215780000000  0.5049660000000 1.0
C      1  0.4751140000000  0.5438470000000  0.4603980000000 1.0
C      1  0.5299730000000  0.5438470000000  0.4640940000000 1.0
C      1  0.5434110000000  0.5438470000000  0.5174110000000 1.0
C      1  0.4968560000000  0.5438470000000  0.5466670000000 1.0
C      1  0.4546460000000  0.5438470000000  0.5114310000000 1.0
C      1  0.5188780000000  0.5003760000000  0.5696630000000 1.0
C      1  0.4395800000000  0.5003750000000  0.5394810000000 1.0
C      1  0.4437810000000  0.5003760000000  0.4547370000000 1.0
C      1  0.5256750000000  0.5003760000000  0.4325450000000 1.0
C      1  0.5720870000000  0.5003760000000  0.5035740000000 1.0
C      1  0.5535470000000  0.5283760000000  0.5423360000000 1.0
C      1  0.4762830000000  0.5283760000000  0.5640080000000 1.0
C      1  0.4317960000000  0.5283760000000  0.4972240000000 1.0
C      1  0.4815640000000  0.5283760000000  0.4342760000000 1.0
C      1  0.5568100000000  0.5283760000000  0.4621570000000 1.0
C      1  0.4410340000000  0.4779230000000  0.5036940000000 1.0
C      1  0.4782650000000  0.4779230000000  0.4450610000000 1.0
C      1  0.5455340000000  0.4779230000000  0.4623520000000 1.0
C      1  0.5498760000000  0.4779230000000  0.5316710000000 1.0
C      1  0.4852910000000  0.4779230000000  0.5572220000000 1.0
C      1  0.4573700000000  0.4425870000000  0.4720210000000 1.0
C      1  0.5134360000000  0.4425870000000  0.4508110000000 1.0
C      1  0.5509340000000  0.4425870000000  0.4975780000000 1.0
C      1  0.5180430000000  0.4425870000000  0.5476930000000 1.0
C      1  0.4602170000000  0.4425870000000  0.5318970000000 1.0
C      1  0.5174900000000  0.5674070000000  0.4802850000000 1.0
C      1  0.5241550000000  0.5674070000000  0.5105420000000 1.0
C      1  0.4974380000000  0.5674070000000  0.5262310000000 1.0
C      1  0.4742620000000  0.5674070000000  0.5056700000000 1.0
C      1  0.4866540000000  0.5674070000000  0.4772730000000 1.0
C      1  0.4799710000000  0.4281260000000  0.5160340000000 1.0
C      1  0.4785610000000  0.4281260000000  0.4859060000000 1.0
C      1  0.5067790000000  0.4281260000000  0.4752550000000 1.0
C      1  0.5256280000000  0.4281260000000  0.4988010000000 1.0
C      1  0.5090600000000  0.4281260000000  0.5240030000000 1.0
END
