TITL C-3985248-2097-83 -6.20789969316643e-05 125000 -355.984222526424 0 0 60 (Cs) n - 1
REM
REM in /home/nfs/bkarasulu/CARBON/AIRSS/Generating-Clusters/TERSOFF/Higher-Symm/Only-C60
REM
REM
REM
REM
REM
REM ./C.cell (28575a23ae977d3b5fae324c64b13b57)
REM
REM compiler GCC version 9.2.1 20190827 (Red Hat 9.2.1-1)
REM options -cpp -mtune=generic -march=x86-64 -g -O0 -fpre-include=/usr/include/finclude/math-vector-fortran.h
REM seed -1500453355 1667709949 -1557069670 1411351950 -1896101775 -11143811 2005357008 2048024118 859204135 37067334 208249728 1489452711 -1149135385 -807256207 635450188 -664046703 -2114857739 388802974 -1532410333 -130999853 1308771667 -1813071627 -1839273926 -852298422 1571867751 -1672253963 -1145484905 2035380362 280654128 -882096643 -1858605890 1464645966 925195044
REM
CELL 1.54180   50.00000   50.00000   50.00000   90.00000   90.00000   90.00000
LATT -1
SFAC C  
C      1  0.4747800000000  0.5687110000000  0.4860060000000 1.0
C      1  0.5032980000000  0.5675260000000  0.5294790000000 1.0
C      1  0.5260220000000  0.5698630000000  0.4815030000000 1.0
C      1  0.4747730000000  0.4312920000000  0.4860060000000 1.0
C      1  0.5033110000000  0.4324680000000  0.5294910000000 1.0
C      1  0.5260200000000  0.4301330000000  0.4815010000000 1.0
C      1  0.5585630000000  0.5289980000000  0.4724580000000 1.0
C      1  0.4504510000000  0.5293840000000  0.4649590000000 1.0
C      1  0.4930720000000  0.5297750000000  0.5662580000000 1.0
C      1  0.5585620000000  0.4710020000000  0.4724580000000 1.0
C      1  0.4504500000000  0.4706160000000  0.4649580000000 1.0
C      1  0.4930750000000  0.4702180000000  0.5662630000000 1.0
C      1  0.4381580000000  0.5153690000000  0.5171830000000 1.0
C      1  0.5425680000000  0.5148400000000  0.5425680000000 1.0
C      1  0.5178220000000  0.5152720000000  0.4399760000000 1.0
C      1  0.4381570000000  0.4846310000000  0.5171810000000 1.0
C      1  0.5425700000000  0.4851610000000  0.5425710000000 1.0
C      1  0.5178220000000  0.4847280000000  0.4399700000000 1.0
C      1  0.5137330000000  0.4699650000000  0.4884750000000 1.0
C      1  0.4882330000000  0.4847740000000  0.4965540000000 1.0
C      1  0.4883620000000  0.4709730000000  0.5218880000000 1.0
C      1  0.5137200000000  0.5300420000000  0.4884840000000 1.0
C      1  0.4882490000000  0.5152170000000  0.4965390000000 1.0
C      1  0.4883530000000  0.5290310000000  0.5219030000000 1.0
C      1  0.4650850000000  0.4843040000000  0.5607250000000 1.0
C      1  0.5688330000000  0.4847730000000  0.4984960000000 1.0
C      1  0.4672600000000  0.4841410000000  0.4431660000000 1.0
C      1  0.4650850000000  0.5156970000000  0.5607270000000 1.0
C      1  0.5688320000000  0.5152280000000  0.4984950000000 1.0
C      1  0.4672590000000  0.5158590000000  0.4431670000000 1.0
C      1  0.5602850000000  0.4709830000000  0.5237900000000 1.0
C      1  0.4931120000000  0.4698070000000  0.4363860000000 1.0
C      1  0.4468000000000  0.4697800000000  0.5410780000000 1.0
C      1  0.5602840000000  0.5290160000000  0.5237920000000 1.0
C      1  0.4931120000000  0.5301920000000  0.4363830000000 1.0
C      1  0.4468010000000  0.5302180000000  0.5410780000000 1.0
C      1  0.5508900000000  0.5552420000000  0.5199120000000 1.0
C      1  0.4955450000000  0.5590370000000  0.4416320000000 1.0
C      1  0.4540330000000  0.5575710000000  0.5340900000000 1.0
C      1  0.5508860000000  0.4447540000000  0.5199120000000 1.0
C      1  0.4955440000000  0.4409630000000  0.4416320000000 1.0
C      1  0.4540360000000  0.4424290000000  0.5340900000000 1.0
C      1  0.4521800000000  0.5580700000000  0.4703980000000 1.0
C      1  0.5017590000000  0.5582990000000  0.5581930000000 1.0
C      1  0.5512570000000  0.5584900000000  0.4692960000000 1.0
C      1  0.4521840000000  0.4419260000000  0.4704000000000 1.0
C      1  0.5017550000000  0.4417140000000  0.5581790000000 1.0
C      1  0.5512580000000  0.4415100000000  0.4692970000000 1.0
C      1  0.4565380000000  0.4839950000000  0.4899880000000 1.0
C      1  0.5085250000000  0.4829260000000  0.5432410000000 1.0
C      1  0.5317680000000  0.4832660000000  0.4685920000000 1.0
C      1  0.4565330000000  0.5160080000000  0.4899840000000 1.0
C      1  0.5085200000000  0.5170790000000  0.5432400000000 1.0
C      1  0.5317800000000  0.5167300000000  0.4685820000000 1.0
C      1  0.5242240000000  0.4421560000000  0.5092680000000 1.0
C      1  0.4992340000000  0.4294350000000  0.4684720000000 1.0
C      1  0.4776070000000  0.4392570000000  0.5159710000000 1.0
C      1  0.5242240000000  0.5578480000000  0.5092620000000 1.0
C      1  0.4992280000000  0.5705640000000  0.4684750000000 1.0
C      1  0.4776250000000  0.5607450000000  0.5159790000000 1.0
END
