TITL C-3985253-1688-308 0.000155840817404224 125000 -307.222098331908 0 0 60 (C1) n - 1
REM
REM in /home/nfs/bkarasulu/CARBON/AIRSS/Generating-Clusters/TERSOFF/Higher-Symm/Only-C60
REM
REM
REM
REM
REM
REM ./C.cell (28575a23ae977d3b5fae324c64b13b57)
REM
REM compiler GCC version 9.2.1 20190827 (Red Hat 9.2.1-1)
REM options -cpp -mtune=generic -march=x86-64 -g -O0 -fpre-include=/usr/include/finclude/math-vector-fortran.h
REM seed -1912191597 1359794928 870520275 -1984981934 -500276071 -1977132360 1885155499 -163850023 -771799280 -1778306125 -452717188 -1630398878 1858170727 -81150914 2030210048 1698985026 848799886 973038297 1751947986 757033719 176800606 954542554 1058137821 -403584879 -1483667788 -387430144 -1357085456 -1275749852 1985435742 -1295980377 1048712370 -1909928829 -1405210562
REM
CELL 1.54180   50.00000   50.00000   50.00000   90.00000   90.00000   90.00000
LATT -1
SFAC C  
C      1  0.5395940000000  0.5433440000000  0.4531760000000 1.0
C      1  0.5411220000000  0.4556790000000  0.5479430000000 1.0
C      1  0.5411230000000  0.5440820000000  0.5480850000000 1.0
C      1  0.5396230000000  0.4566150000000  0.4530310000000 1.0
C      1  0.4540280000000  0.5705890000000  0.4622340000000 1.0
C      1  0.4490880000000  0.4276180000000  0.5421520000000 1.0
C      1  0.4498280000000  0.5725860000000  0.5424070000000 1.0
C      1  0.4547600000000  0.4287950000000  0.4625920000000 1.0
C      1  0.5577050000000  0.5425230000000  0.5238310000000 1.0
C      1  0.5575840000000  0.4574550000000  0.4764450000000 1.0
C      1  0.5575950000000  0.5424280000000  0.4765690000000 1.0
C      1  0.5577670000000  0.4571570000000  0.5237170000000 1.0
C      1  0.5195000000000  0.5234970000000  0.5490080000000 1.0
C      1  0.5179400000000  0.4772560000000  0.4532530000000 1.0
C      1  0.5177760000000  0.5227830000000  0.4532700000000 1.0
C      1  0.5194710000000  0.4762090000000  0.5489410000000 1.0
C      1  0.5779300000000  0.4826790000000  0.4841170000000 1.0
C      1  0.5779280000000  0.5170790000000  0.5167790000000 1.0
C      1  0.5779990000000  0.4823100000000  0.5161810000000 1.0
C      1  0.5778200000000  0.5171120000000  0.4843590000000 1.0
C      1  0.4697140000000  0.4740520000000  0.5433300000000 1.0
C      1  0.4679230000000  0.5247580000000  0.4527670000000 1.0
C      1  0.4684430000000  0.4745770000000  0.4525940000000 1.0
C      1  0.4697160000000  0.5258200000000  0.5433330000000 1.0
C      1  0.4594450000000  0.4382310000000  0.4896780000000 1.0
C      1  0.4396000000000  0.5679840000000  0.5155230000000 1.0
C      1  0.4391530000000  0.4322220000000  0.5152330000000 1.0
C      1  0.4592270000000  0.5616220000000  0.4893440000000 1.0
C      1  0.4598690000000  0.5497870000000  0.5568840000000 1.0
C      1  0.4569740000000  0.4496390000000  0.4429750000000 1.0
C      1  0.4561040000000  0.5494660000000  0.4428740000000 1.0
C      1  0.4597120000000  0.4500800000000  0.5566680000000 1.0
C      1  0.4348110000000  0.5375840000000  0.5135130000000 1.0
C      1  0.4563350000000  0.4731210000000  0.4927450000000 1.0
C      1  0.4565500000000  0.5267980000000  0.4931150000000 1.0
C      1  0.4336830000000  0.4627770000000  0.5118810000000 1.0
C      1  0.4935370000000  0.5266330000000  0.4715140000000 1.0
C      1  0.4966280000000  0.4736420000000  0.5292850000000 1.0
C      1  0.4966470000000  0.5261470000000  0.5293770000000 1.0
C      1  0.4937710000000  0.4733180000000  0.4715070000000 1.0
C      1  0.5629350000000  0.5647260000000  0.5002040000000 1.0
C      1  0.5628630000000  0.4350720000000  0.5000410000000 1.0
C      1  0.5149890000000  0.4998460000000  0.5704690000000 1.0
C      1  0.5140760000000  0.5000000000000  0.4312470000000 1.0
C      1  0.5621000000000  0.5000940000000  0.4493340000000 1.0
C      1  0.5633940000000  0.5001220000000  0.5524460000000 1.0
C      1  0.4539980000000  0.4999660000000  0.5417240000000 1.0
C      1  0.4526330000000  0.4994380000000  0.4553030000000 1.0
C      1  0.5372260000000  0.5000190000000  0.4663420000000 1.0
C      1  0.5383710000000  0.4998840000000  0.5356210000000 1.0
C      1  0.5377090000000  0.4686570000000  0.5001620000000 1.0
C      1  0.5377130000000  0.5311900000000  0.5002240000000 1.0
C      1  0.4268240000000  0.4998950000000  0.5302600000000 1.0
C      1  0.4261680000000  0.4988690000000  0.4690340000000 1.0
C      1  0.5073180000000  0.5372490000000  0.5004870000000 1.0
C      1  0.5073390000000  0.4625820000000  0.5003790000000 1.0
C      1  0.4777430000000  0.4999390000000  0.4896060000000 1.0
C      1  0.4920500000000  0.4999150000000  0.5153670000000 1.0
C      1  0.4202900000000  0.5007980000000  0.4995730000000 1.0
C      1  0.5412840000000  0.4999220000000  0.5009540000000 1.0
END
