TITL C-3985246-2097-20 -1.7394071850952e-07 125000 -327.990393465025 0 0 60 (C4) n - 1
REM
REM in /home/nfs/bkarasulu/CARBON/AIRSS/Generating-Clusters/TERSOFF/Higher-Symm/Only-C60
REM
REM
REM
REM
REM
REM ./C.cell (28575a23ae977d3b5fae324c64b13b57)
REM
REM compiler GCC version 9.2.1 20190827 (Red Hat 9.2.1-1)
REM options -cpp -mtune=generic -march=x86-64 -g -O0 -fpre-include=/usr/include/finclude/math-vector-fortran.h
REM seed -51828619 -729092996 -1861440324 -1693751359 1200100003 -140692228 1603415546 -870891885 -1997117757 1789788884 -1753767825 -2092774336 -979700714 -891617413 1455731231 -1510615116 -1929835717 -1370639715 -151722276 -1660537006 1121015568 -2097038053 1209518628 -295326822 736821837 -1112232610 -283733307 1749961888 -999994885 389695506 -1138782711 -559249807 -827169198
REM
CELL 1.54180   50.00000   50.00000   50.00000   90.00000   90.00000   90.00000
LATT -1
SFAC C  
C      1  0.5280210000000  0.4662470000000  0.5118650000000 1.0
C      1  0.5337530000000  0.5280210000000  0.5118650000000 1.0
C      1  0.4719790000000  0.5337530000000  0.5118650000000 1.0
C      1  0.4662470000000  0.4719790000000  0.5118650000000 1.0
C      1  0.4642450000000  0.4332970000000  0.4880240000000 1.0
C      1  0.5667030000000  0.4642450000000  0.4880240000000 1.0
C      1  0.5357550000000  0.5667030000000  0.4880240000000 1.0
C      1  0.4332970000000  0.5357550000000  0.4880240000000 1.0
C      1  0.5190020000000  0.4771940000000  0.5371990000000 1.0
C      1  0.5228060000000  0.5190020000000  0.5371990000000 1.0
C      1  0.4809980000000  0.5228060000000  0.5371990000000 1.0
C      1  0.4771940000000  0.4809980000000  0.5371990000000 1.0
C      1  0.5376790000000  0.4898540000000  0.4539160000000 1.0
C      1  0.5101460000000  0.5376790000000  0.4539160000000 1.0
C      1  0.4623210000000  0.5101460000000  0.4539160000000 1.0
C      1  0.4898540000000  0.4623210000000  0.4539160000000 1.0
C      1  0.4661410000000  0.4797700000000  0.4474300000000 1.0
C      1  0.5202300000000  0.4661410000000  0.4474300000000 1.0
C      1  0.5338590000000  0.5202300000000  0.4474300000000 1.0
C      1  0.4797700000000  0.5338590000000  0.4474300000000 1.0
C      1  0.5619150000000  0.4982280000000  0.5285850000000 1.0
C      1  0.5017720000000  0.5619150000000  0.5285850000000 1.0
C      1  0.4380850000000  0.5017720000000  0.5285850000000 1.0
C      1  0.4982280000000  0.4380850000000  0.5285850000000 1.0
C      1  0.4495420000000  0.5597940000000  0.4832760000000 1.0
C      1  0.4402060000000  0.4495420000000  0.4832760000000 1.0
C      1  0.5504580000000  0.4402060000000  0.4832760000000 1.0
C      1  0.5597940000000  0.5504580000000  0.4832760000000 1.0
C      1  0.5608940000000  0.5329270000000  0.4571750000000 1.0
C      1  0.4670730000000  0.5608940000000  0.4571750000000 1.0
C      1  0.4391060000000  0.4670730000000  0.4571750000000 1.0
C      1  0.5329270000000  0.4391060000000  0.4571750000000 1.0
C      1  0.4362570000000  0.5142840000000  0.4688620000000 1.0
C      1  0.4857160000000  0.4362570000000  0.4688620000000 1.0
C      1  0.5637430000000  0.4857160000000  0.4688620000000 1.0
C      1  0.5142840000000  0.5637430000000  0.4688620000000 1.0
C      1  0.4428280000000  0.5275630000000  0.5145130000000 1.0
C      1  0.4724370000000  0.4428280000000  0.5145130000000 1.0
C      1  0.5571720000000  0.4724370000000  0.5145130000000 1.0
C      1  0.5275630000000  0.5571720000000  0.5145130000000 1.0
C      1  0.5236940000000  0.4343260000000  0.5071140000000 1.0
C      1  0.5656740000000  0.5236940000000  0.5071140000000 1.0
C      1  0.4763060000000  0.5656740000000  0.5071140000000 1.0
C      1  0.4343260000000  0.4763060000000  0.5071140000000 1.0
C      1  0.4610590000000  0.5011440000000  0.5564130000000 1.0
C      1  0.4988560000000  0.4610590000000  0.5564130000000 1.0
C      1  0.5389410000000  0.4988560000000  0.5564130000000 1.0
C      1  0.5011440000000  0.5389410000000  0.5564130000000 1.0
C      1  0.5144040000000  0.4826270000000  0.4907440000000 1.0
C      1  0.5173730000000  0.5144040000000  0.4907440000000 1.0
C      1  0.4855960000000  0.5173730000000  0.4907440000000 1.0
C      1  0.4826270000000  0.4855960000000  0.4907440000000 1.0
C      1  0.5238930000000  0.4746820000000  0.5786620000000 1.0
C      1  0.5253180000000  0.5238930000000  0.5786620000000 1.0
C      1  0.4761070000000  0.5253180000000  0.5786620000000 1.0
C      1  0.4746820000000  0.4761070000000  0.5786620000000 1.0
C      1  0.4256030000000  0.4882240000000  0.4762230000000 1.0
C      1  0.5117760000000  0.4256030000000  0.4762230000000 1.0
C      1  0.5743970000000  0.5117760000000  0.4762230000000 1.0
C      1  0.4882240000000  0.5743970000000  0.4762230000000 1.0
END
