TITL C-3985254-1270-951 -8.0583092727691e-06 125000 -314.116306709291 0 0 60 (Ci) n - 1
REM
REM in /home/nfs/bkarasulu/CARBON/AIRSS/Generating-Clusters/TERSOFF/Higher-Symm/Only-C60
REM
REM
REM
REM
REM
REM ./C.cell (28575a23ae977d3b5fae324c64b13b57)
REM
REM compiler GCC version 9.2.1 20190827 (Red Hat 9.2.1-1)
REM options -cpp -mtune=generic -march=x86-64 -g -O0 -fpre-include=/usr/include/finclude/math-vector-fortran.h
REM seed -1522772888 -172572823 2072090284 -1655325854 -327443755 119854910 -1305917510 132445667 -1679226721 -1793995140 1434711019 -964352516 64648762 1639342427 -234813815 23958668 -322236857 295867304 1595048727 -157097715 -334330056 2125847816 2133816769 214966383 2135212907 1080107831 -1029231850 -1674368858 -143112525 533116826 760783802 -2131024273 685207470
REM
CELL 1.54180   50.00000   50.00000   50.00000   90.00000   90.00000   90.00000
LATT -1
SFAC C  
C      1  0.4899970000000  0.5685980000000  0.5022610000000 1.0
C      1  0.5100030000000  0.4314020000000  0.4977390000000 1.0
C      1  0.4849180000000  0.5242740000000  0.5178610000000 1.0
C      1  0.5150820000000  0.4757260000000  0.4821390000000 1.0
C      1  0.5083620000000  0.5370230000000  0.5504090000000 1.0
C      1  0.4916380000000  0.4629780000000  0.4495910000000 1.0
C      1  0.5154890000000  0.5678550000000  0.4797490000000 1.0
C      1  0.4845110000000  0.4321450000000  0.5202510000000 1.0
C      1  0.4753750000000  0.4362320000000  0.4874490000000 1.0
C      1  0.5246250000000  0.5637680000000  0.5125510000000 1.0
C      1  0.5667540000000  0.4816370000000  0.4691460000000 1.0
C      1  0.4332460000000  0.5183630000000  0.5308540000000 1.0
C      1  0.5858920000000  0.4865360000000  0.4941990000000 1.0
C      1  0.4141080000000  0.5134640000000  0.5058010000000 1.0
C      1  0.5491150000000  0.5269020000000  0.5510580000000 1.0
C      1  0.4508850000000  0.4730980000000  0.4489420000000 1.0
C      1  0.5320190000000  0.4367020000000  0.4749430000000 1.0
C      1  0.4679810000000  0.5632980000000  0.5250570000000 1.0
C      1  0.5574890000000  0.5206220000000  0.5069170000000 1.0
C      1  0.4425110000000  0.4793780000000  0.4930830000000 1.0
C      1  0.4890110000000  0.4933400000000  0.5553440000000 1.0
C      1  0.5109890000000  0.5066600000000  0.4446560000000 1.0
C      1  0.4548290000000  0.5268440000000  0.5523470000000 1.0
C      1  0.5451710000000  0.4731560000000  0.4476530000000 1.0
C      1  0.4426090000000  0.4851050000000  0.5242480000000 1.0
C      1  0.5573910000000  0.5148950000000  0.4757520000000 1.0
C      1  0.5339280000000  0.5372140000000  0.5245510000000 1.0
C      1  0.4660720000000  0.4627860000000  0.4754490000000 1.0
C      1  0.4759640000000  0.5388230000000  0.4918790000000 1.0
C      1  0.5240360000000  0.4611770000000  0.5081210000000 1.0
C      1  0.4852320000000  0.5143470000000  0.4770560000000 1.0
C      1  0.5147680000000  0.4856530000000  0.5229440000000 1.0
C      1  0.4839700000000  0.4918420000000  0.5235810000000 1.0
C      1  0.5160300000000  0.5081580000000  0.4764190000000 1.0
C      1  0.5084150000000  0.5124460000000  0.5669570000000 1.0
C      1  0.4915850000000  0.4875540000000  0.4330430000000 1.0
C      1  0.5425580000000  0.5324470000000  0.4547530000000 1.0
C      1  0.4574420000000  0.4675530000000  0.5452470000000 1.0
C      1  0.5402260000000  0.4788180000000  0.5556050000000 1.0
C      1  0.4597740000000  0.5211820000000  0.4443950000000 1.0
C      1  0.4393310000000  0.5245790000000  0.4658470000000 1.0
C      1  0.5606680000000  0.4754210000000  0.5341530000000 1.0
C      1  0.5578790000000  0.4507880000000  0.4856140000000 1.0
C      1  0.4421210000000  0.5492120000000  0.5143860000000 1.0
C      1  0.5736860000000  0.4975930000000  0.5190930000000 1.0
C      1  0.4263140000000  0.5024070000000  0.4809070000000 1.0
C      1  0.4844960000000  0.4530520000000  0.5405050000000 1.0
C      1  0.5155040000000  0.5469480000000  0.4594950000000 1.0
C      1  0.5207870000000  0.4583340000000  0.4572430000000 1.0
C      1  0.4792130000000  0.5416660000000  0.5427570000000 1.0
C      1  0.4635150000000  0.4949910000000  0.4334450000000 1.0
C      1  0.5364850000000  0.5050090000000  0.5665550000000 1.0
C      1  0.5146550000000  0.4566060000000  0.5547840000000 1.0
C      1  0.4853450000000  0.5433940000000  0.4452160000000 1.0
C      1  0.5537940000000  0.4512930000000  0.5177290000000 1.0
C      1  0.4462060000000  0.5487070000000  0.4822710000000 1.0
C      1  0.4642560000000  0.5624280000000  0.4592230000000 1.0
C      1  0.5357440000000  0.4375720000000  0.5407770000000 1.0
C      1  0.4840630000000  0.4846430000000  0.4899850000000 1.0
C      1  0.5159370000000  0.5153570000000  0.5100150000000 1.0
END
