TITL C-3985258-5380-103 -0.000115283681920613 125000 -329.436316168795 0 0 60 (C1) n - 1
REM
REM in /home/nfs/bkarasulu/CARBON/AIRSS/Generating-Clusters/TERSOFF/Higher-Symm/Only-C60
REM
REM
REM
REM
REM
REM ./C.cell (28575a23ae977d3b5fae324c64b13b57)
REM
REM compiler GCC version 9.2.1 20190827 (Red Hat 9.2.1-1)
REM options -cpp -mtune=generic -march=x86-64 -g -O0 -fpre-include=/usr/include/finclude/math-vector-fortran.h
REM seed 1597749096 909120471 -1181645537 -1484967718 75614488 711565304 1185489131 549720363 172774350 603523866 -1055822020 490766408 -642982416 523361232 714255710 523027725 533109325 833685831 1520297924 -1438754433 911351030 1483977613 404316792 -1418379928 -1820810650 -585861836 1671046847 -913945265 -836513112 -1245622502 448409772 -258752639 1260672707
REM
CELL 1.54180   50.00000   50.00000   50.00000   90.00000   90.00000   90.00000
LATT -1
SFAC C  
C      1  0.5400640000000  0.5236640000000  0.4477150000000 1.0
C      1  0.4275610000000  0.4918000000000  0.5009720000000 1.0
C      1  0.4635970000000  0.5592760000000  0.4866250000000 1.0
C      1  0.5098530000000  0.5626460000000  0.5123230000000 1.0
C      1  0.5315520000000  0.4601810000000  0.4589860000000 1.0
C      1  0.5507020000000  0.4900770000000  0.4520140000000 1.0
C      1  0.4475150000000  0.4706870000000  0.5398330000000 1.0
C      1  0.4826940000000  0.4864980000000  0.5170860000000 1.0
C      1  0.5363060000000  0.5137540000000  0.4882270000000 1.0
C      1  0.4441680000000  0.5049380000000  0.4784110000000 1.0
C      1  0.5634600000000  0.4843590000000  0.5425320000000 1.0
C      1  0.4921640000000  0.5671980000000  0.4862700000000 1.0
C      1  0.5160130000000  0.4616850000000  0.5434660000000 1.0
C      1  0.4785740000000  0.5149740000000  0.4841360000000 1.0
C      1  0.5237600000000  0.4849470000000  0.5249330000000 1.0
C      1  0.4497220000000  0.4844160000000  0.4571560000000 1.0
C      1  0.4600350000000  0.5010650000000  0.4325970000000 1.0
C      1  0.5432830000000  0.4998390000000  0.5642900000000 1.0
C      1  0.4963700000000  0.5509830000000  0.5376900000000 1.0
C      1  0.5111560000000  0.5117770000000  0.5693250000000 1.0
C      1  0.4393820000000  0.4992710000000  0.5457990000000 1.0
C      1  0.4490880000000  0.5384830000000  0.4659470000000 1.0
C      1  0.5371310000000  0.5224440000000  0.5381800000000 1.0
C      1  0.5460040000000  0.4435750000000  0.4807250000000 1.0
C      1  0.5590020000000  0.5326000000000  0.5179450000000 1.0
C      1  0.5357600000000  0.5507790000000  0.4685430000000 1.0
C      1  0.5071440000000  0.5610210000000  0.4614960000000 1.0
C      1  0.4826620000000  0.4641640000000  0.5415030000000 1.0
C      1  0.5149420000000  0.4797460000000  0.4764700000000 1.0
C      1  0.4309600000000  0.5344450000000  0.5117620000000 1.0
C      1  0.5613210000000  0.4546640000000  0.5398620000000 1.0
C      1  0.4856390000000  0.4862350000000  0.4354700000000 1.0
C      1  0.5115890000000  0.5207110000000  0.4424090000000 1.0
C      1  0.4214580000000  0.5100160000000  0.5235500000000 1.0
C      1  0.5355310000000  0.4418280000000  0.5314070000000 1.0
C      1  0.5396820000000  0.4843600000000  0.4985560000000 1.0
C      1  0.4989580000000  0.5001600000000  0.4582520000000 1.0
C      1  0.4666670000000  0.4613900000000  0.4715420000000 1.0
C      1  0.4369120000000  0.4654160000000  0.5122180000000 1.0
C      1  0.5298060000000  0.4340120000000  0.5035620000000 1.0
C      1  0.5080920000000  0.5232460000000  0.4978910000000 1.0
C      1  0.5016390000000  0.4348780000000  0.4944690000000 1.0
C      1  0.4596400000000  0.5368250000000  0.5065590000000 1.0
C      1  0.5657060000000  0.5266400000000  0.4853030000000 1.0
C      1  0.4982990000000  0.4443130000000  0.4615790000000 1.0
C      1  0.4933880000000  0.5439060000000  0.4395120000000 1.0
C      1  0.4642720000000  0.5321810000000  0.4405630000000 1.0
C      1  0.5635390000000  0.4983070000000  0.5162450000000 1.0
C      1  0.5376850000000  0.5535950000000  0.5011290000000 1.0
C      1  0.4863490000000  0.4956260000000  0.5593860000000 1.0
C      1  0.5276590000000  0.4731860000000  0.5681660000000 1.0
C      1  0.5726910000000  0.5009730000000  0.4699790000000 1.0
C      1  0.4644140000000  0.5138960000000  0.5510640000000 1.0
C      1  0.5092440000000  0.5416250000000  0.5629430000000 1.0
C      1  0.5065460000000  0.5118630000000  0.5263540000000 1.0
C      1  0.4719260000000  0.5362850000000  0.5330430000000 1.0
C      1  0.4877700000000  0.4576470000000  0.4353830000000 1.0
C      1  0.4790350000000  0.4413940000000  0.5137280000000 1.0
C      1  0.4886450000000  0.4745780000000  0.4898470000000 1.0
C      1  0.4552740000000  0.4489490000000  0.4970750000000 1.0
END
