TITL C-3985251-913-171 -1.61241539766098e-07 125000 -329.705241800016 0 0 60 (C3h) n - 1
REM
REM in /home/nfs/bkarasulu/CARBON/AIRSS/Generating-Clusters/TERSOFF/Higher-Symm/Only-C60
REM
REM
REM
REM
REM
REM ./C.cell (28575a23ae977d3b5fae324c64b13b57)
REM
REM compiler GCC version 9.2.1 20190827 (Red Hat 9.2.1-1)
REM options -cpp -mtune=generic -march=x86-64 -g -O0 -fpre-include=/usr/include/finclude/math-vector-fortran.h
REM seed -1286205640 637735934 -1755208946 693473816 -785688954 -310635372 1386700433 1872904493 -1214292917 646566493 -1753073233 681306704 -1909487249 1915362645 -1427729931 -312583279 -743252624 268265030 1857331318 -1073475454 1781582361 1861618491 -1491585342 -2084484766 660149474 -2029896314 1306276247 82913105 1096581955 -976907627 457540716 97678689 -533014655
REM
CELL 1.54180   50.00000   50.00000   50.00000   90.00000   90.00000   90.00000
LATT -1
SFAC C  
C      1  0.5811040000000  0.4876760000000  0.5148420000000 1.0
C      1  0.4701210000000  0.5764000000000  0.5148420000000 1.0
C      1  0.4487750000000  0.4359240000000  0.5148420000000 1.0
C      1  0.5811040000000  0.4876760000000  0.4851580000000 1.0
C      1  0.4701210000000  0.5764000000000  0.4851580000000 1.0
C      1  0.4487750000000  0.4359240000000  0.4851580000000 1.0
C      1  0.4391360000000  0.5085880000000  0.5170220000000 1.0
C      1  0.5229950000000  0.4429960000000  0.5170220000000 1.0
C      1  0.5378690000000  0.5484160000000  0.5170220000000 1.0
C      1  0.4391360000000  0.5085880000000  0.4829780000000 1.0
C      1  0.5229950000000  0.4429960000000  0.4829780000000 1.0
C      1  0.5378690000000  0.5484160000000  0.4829780000000 1.0
C      1  0.5192690000000  0.5046480000000  0.5578940000000 1.0
C      1  0.4863400000000  0.5143630000000  0.5578940000000 1.0
C      1  0.4943910000000  0.4809890000000  0.5578940000000 1.0
C      1  0.5192690000000  0.5046480000000  0.4421060000000 1.0
C      1  0.4863400000000  0.5143630000000  0.4421060000000 1.0
C      1  0.4943910000000  0.4809890000000  0.4421060000000 1.0
C      1  0.5057980000000  0.4521890000000  0.4374390000000 1.0
C      1  0.5385060000000  0.5289270000000  0.4374390000000 1.0
C      1  0.4556960000000  0.5188840000000  0.4374390000000 1.0
C      1  0.5057980000000  0.4521890000000  0.5625610000000 1.0
C      1  0.5385060000000  0.5289270000000  0.5625610000000 1.0
C      1  0.4556960000000  0.5188840000000  0.5625610000000 1.0
C      1  0.5284940000000  0.4957130000000  0.5273230000000 1.0
C      1  0.4894650000000  0.5268190000000  0.5273230000000 1.0
C      1  0.4820410000000  0.4774670000000  0.5273230000000 1.0
C      1  0.5284940000000  0.4957130000000  0.4726770000000 1.0
C      1  0.4894650000000  0.5268190000000  0.4726770000000 1.0
C      1  0.4820410000000  0.4774670000000  0.4726770000000 1.0
C      1  0.4386810000000  0.5000450000000  0.5465350000000 1.0
C      1  0.5306200000000  0.4468740000000  0.5465350000000 1.0
C      1  0.5306980000000  0.5530810000000  0.5465350000000 1.0
C      1  0.4386810000000  0.5000450000000  0.4534650000000 1.0
C      1  0.5306200000000  0.4468740000000  0.4534650000000 1.0
C      1  0.5306980000000  0.5530810000000  0.4534650000000 1.0
C      1  0.5107000000000  0.4729990000000  0.4846100000000 1.0
C      1  0.5180330000000  0.5227660000000  0.4846100000000 1.0
C      1  0.4712670000000  0.5042340000000  0.4846100000000 1.0
C      1  0.5107000000000  0.4729990000000  0.5153900000000 1.0
C      1  0.5180330000000  0.5227660000000  0.5153900000000 1.0
C      1  0.4712670000000  0.5042340000000  0.5153900000000 1.0
C      1  0.4803690000000  0.4388140000000  0.5539320000000 1.0
C      1  0.5628040000000  0.5135920000000  0.5539320000000 1.0
C      1  0.4568270000000  0.5475940000000  0.5539320000000 1.0
C      1  0.4803690000000  0.4388140000000  0.4460680000000 1.0
C      1  0.5628040000000  0.5135920000000  0.4460680000000 1.0
C      1  0.4568270000000  0.5475940000000  0.4460680000000 1.0
C      1  0.5543430000000  0.4638110000000  0.5505500000000 1.0
C      1  0.5041680000000  0.5651570000000  0.5505500000000 1.0
C      1  0.4414880000000  0.4710310000000  0.5505500000000 1.0
C      1  0.5543430000000  0.4638110000000  0.4494500000000 1.0
C      1  0.5041680000000  0.5651570000000  0.4494500000000 1.0
C      1  0.4414880000000  0.4710310000000  0.4494500000000 1.0
C      1  0.5592510000000  0.4897430000000  0.5351400000000 1.0
C      1  0.4792570000000  0.5564410000000  0.5351400000000 1.0
C      1  0.4614920000000  0.4538160000000  0.5351400000000 1.0
C      1  0.5592510000000  0.4897430000000  0.4648600000000 1.0
C      1  0.4792570000000  0.5564410000000  0.4648600000000 1.0
C      1  0.4614920000000  0.4538160000000  0.4648600000000 1.0
END
