TITL C-3985250-725-1260 -0.000725952209802916 125000 -329.216440926794 0 0 60 (C1) n - 1
REM
REM in /home/nfs/bkarasulu/CARBON/AIRSS/Generating-Clusters/TERSOFF/Higher-Symm/Only-C60
REM
REM
REM
REM
REM
REM ./C.cell (28575a23ae977d3b5fae324c64b13b57)
REM
REM compiler GCC version 9.2.1 20190827 (Red Hat 9.2.1-1)
REM options -cpp -mtune=generic -march=x86-64 -g -O0 -fpre-include=/usr/include/finclude/math-vector-fortran.h
REM seed 1863424468 261446622 -2135967035 1036766898 -1322971626 1972190905 2057291054 -1008838266 -1797059184 -303475819 -769334401 1275442296 -336413189 -931961605 1792327090 94335884 -2035059068 -293255210 1261871290 60348819 1872884985 580250307 -287699070 -1886568811 873518540 1298173258 -899237221 -129223543 692916688 -65800037 -894274069 1048847644 1739951567
REM
CELL 1.54180   50.00000   50.00000   50.00000   90.00000   90.00000   90.00000
LATT -1
SFAC C  
C      1  0.4869330000000  0.4675390000000  0.4479590000000 1.0
C      1  0.4502880000000  0.5196070000000  0.4497230000000 1.0
C      1  0.5333200000000  0.5654620000000  0.4846920000000 1.0
C      1  0.5647810000000  0.4815270000000  0.4875040000000 1.0
C      1  0.5514450000000  0.4363770000000  0.4936060000000 1.0
C      1  0.4381280000000  0.5395950000000  0.4940560000000 1.0
C      1  0.5153530000000  0.5134150000000  0.4344380000000 1.0
C      1  0.4690630000000  0.5498170000000  0.5300110000000 1.0
C      1  0.5572040000000  0.5484150000000  0.4814260000000 1.0
C      1  0.4360900000000  0.4465420000000  0.5272450000000 1.0
C      1  0.5134640000000  0.4972450000000  0.4838520000000 1.0
C      1  0.5198180000000  0.5146720000000  0.5090620000000 1.0
C      1  0.5518360000000  0.5215860000000  0.5243970000000 1.0
C      1  0.4860870000000  0.4471750000000  0.4726950000000 1.0
C      1  0.5477220000000  0.4747220000000  0.5414320000000 1.0
C      1  0.4621640000000  0.4831760000000  0.5019830000000 1.0
C      1  0.4441970000000  0.5349640000000  0.5436810000000 1.0
C      1  0.5685780000000  0.5403400000000  0.5070900000000 1.0
C      1  0.5335950000000  0.4749940000000  0.4883800000000 1.0
C      1  0.4543010000000  0.4322810000000  0.5095230000000 1.0
C      1  0.5211160000000  0.5646020000000  0.5133220000000 1.0
C      1  0.5136620000000  0.5373450000000  0.5592290000000 1.0
C      1  0.5361120000000  0.4612070000000  0.4307540000000 1.0
C      1  0.5326350000000  0.5469030000000  0.5368230000000 1.0
C      1  0.4725700000000  0.5434910000000  0.4961460000000 1.0
C      1  0.5257040000000  0.4490930000000  0.5040220000000 1.0
C      1  0.5669790000000  0.4533200000000  0.4750680000000 1.0
C      1  0.4868980000000  0.5058910000000  0.4649980000000 1.0
C      1  0.5291910000000  0.5156020000000  0.5717860000000 1.0
C      1  0.5198890000000  0.4658100000000  0.5312710000000 1.0
C      1  0.5547420000000  0.5244870000000  0.4647310000000 1.0
C      1  0.4859420000000  0.5698000000000  0.4813050000000 1.0
C      1  0.4278380000000  0.5249010000000  0.4686740000000 1.0
C      1  0.5281730000000  0.5134810000000  0.4610260000000 1.0
C      1  0.5125960000000  0.4795530000000  0.4375180000000 1.0
C      1  0.4621530000000  0.4869770000000  0.4543450000000 1.0
C      1  0.4597000000000  0.4922740000000  0.5739970000000 1.0
C      1  0.5641600000000  0.4899270000000  0.5174400000000 1.0
C      1  0.5107130000000  0.5660310000000  0.4641930000000 1.0
C      1  0.4822620000000  0.5030830000000  0.5368950000000 1.0
C      1  0.4852290000000  0.5312250000000  0.5517810000000 1.0
C      1  0.5015710000000  0.4339940000000  0.4968890000000 1.0
C      1  0.4828290000000  0.4318930000000  0.5204490000000 1.0
C      1  0.4554860000000  0.4450730000000  0.4819130000000 1.0
C      1  0.4702420000000  0.4765730000000  0.5503800000000 1.0
C      1  0.5493530000000  0.5041350000000  0.5540430000000 1.0
C      1  0.5008320000000  0.5422680000000  0.4452350000000 1.0
C      1  0.5732490000000  0.5032650000000  0.4701500000000 1.0
C      1  0.5036860000000  0.5405550000000  0.5070980000000 1.0
C      1  0.4240110000000  0.5002840000000  0.4881740000000 1.0
C      1  0.4640490000000  0.5120970000000  0.5122620000000 1.0
C      1  0.4919820000000  0.4534800000000  0.5424770000000 1.0
C      1  0.4313380000000  0.5177390000000  0.5189050000000 1.0
C      1  0.4890380000000  0.4737250000000  0.4918470000000 1.0
C      1  0.5616190000000  0.4523110000000  0.4455750000000 1.0
C      1  0.4591830000000  0.5215940000000  0.5702900000000 1.0
C      1  0.4765530000000  0.5335890000000  0.4622630000000 1.0
C      1  0.4433510000000  0.4760860000000  0.4781560000000 1.0
C      1  0.5083410000000  0.4950720000000  0.5274790000000 1.0
C      1  0.4506570000000  0.4718100000000  0.5283370000000 1.0
END
