TITL C-3985254-1270-1222 0.000101839916165198 125000 -347.450349808831 0 0 60 (C3) n - 1
REM
REM in /home/nfs/bkarasulu/CARBON/AIRSS/Generating-Clusters/TERSOFF/Higher-Symm/Only-C60
REM
REM
REM
REM
REM
REM ./C.cell (28575a23ae977d3b5fae324c64b13b57)
REM
REM compiler GCC version 9.2.1 20190827 (Red Hat 9.2.1-1)
REM options -cpp -mtune=generic -march=x86-64 -g -O0 -fpre-include=/usr/include/finclude/math-vector-fortran.h
REM seed -1451670644 -673434237 472844531 1879631574 393181053 -1937085920 1049237520 -142019074 716452017 654796328 -427811610 -953718644 -872607920 -951028282 1590836894 -1666029107 362273827 61573708 -630851829 -871148090 -1957075015 -1210046524 -1455234263 -1588406595 -277868420 -206959136 435655921 -730950182 977769302 -830019464 -1097385570 799082327 -1174668437
REM
CELL 1.54180   50.00000   50.00000   50.00000   90.00000   90.00000   90.00000
LATT -1
SFAC C  
C      1  0.5283390000000  0.4723930000000  0.4875580000000 1.0
C      1  0.5283390000000  0.5245830000000  0.4823160000000 1.0
C      1  0.5283430000000  0.5030340000000  0.5301330000000 1.0
C      1  0.5721940000000  0.5126590000000  0.4659560000000 1.0
C      1  0.5722060000000  0.5231430000000  0.5279850000000 1.0
C      1  0.5721930000000  0.4641860000000  0.5060630000000 1.0
C      1  0.5267780000000  0.5575510000000  0.5492110000000 1.0
C      1  0.5267670000000  0.4286050000000  0.5252210000000 1.0
C      1  0.5267570000000  0.5138530000000  0.4255630000000 1.0
C      1  0.4765590000000  0.4296940000000  0.5121630000000 1.0
C      1  0.4765440000000  0.5246230000000  0.4330380000000 1.0
C      1  0.4765590000000  0.5456920000000  0.5548020000000 1.0
C      1  0.4913590000000  0.5023980000000  0.4654350000000 1.0
C      1  0.4913600000000  0.5287360000000  0.5193470000000 1.0
C      1  0.4913660000000  0.4688720000000  0.5152070000000 1.0
C      1  0.5121780000000  0.4628840000000  0.5614700000000 1.0
C      1  0.5122100000000  0.4653000000000  0.4371160000000 1.0
C      1  0.5122490000000  0.5718130000000  0.5013770000000 1.0
C      1  0.4451860000000  0.4704860000000  0.4938790000000 1.0
C      1  0.4451750000000  0.5200540000000  0.4775060000000 1.0
C      1  0.4451840000000  0.5094520000000  0.5286180000000 1.0
C      1  0.5190020000000  0.4784750000000  0.5153670000000 1.0
C      1  0.5189960000000  0.4974610000000  0.4736750000000 1.0
C      1  0.5189990000000  0.5240770000000  0.5109650000000 1.0
C      1  0.4767540000000  0.5557510000000  0.5252640000000 1.0
C      1  0.4767670000000  0.4502420000000  0.5356470000000 1.0
C      1  0.4767530000000  0.4940090000000  0.4390850000000 1.0
C      1  0.4388650000000  0.5298220000000  0.5060570000000 1.0
C      1  0.4388770000000  0.4798400000000  0.5228040000000 1.0
C      1  0.4388680000000  0.4903260000000  0.4711430000000 1.0
C      1  0.5123430000000  0.4487060000000  0.4815190000000 1.0
C      1  0.5123350000000  0.5416530000000  0.4648260000000 1.0
C      1  0.5123490000000  0.5096510000000  0.5536660000000 1.0
C      1  0.5352770000000  0.4871420000000  0.4364760000000 1.0
C      1  0.5353050000000  0.5614420000000  0.5206230000000 1.0
C      1  0.5352740000000  0.4514090000000  0.5428990000000 1.0
C      1  0.5059320000000  0.5380210000000  0.5582840000000 1.0
C      1  0.5059270000000  0.4305100000000  0.5037720000000 1.0
C      1  0.5059160000000  0.5314730000000  0.4379450000000 1.0
C      1  0.4682640000000  0.5638550000000  0.4636340000000 1.0
C      1  0.4682810000000  0.4995750000000  0.5734810000000 1.0
C      1  0.4682760000000  0.4365660000000  0.4628890000000 1.0
C      1  0.4915490000000  0.5551470000000  0.4818930000000 1.0
C      1  0.4915600000000  0.4881310000000  0.5568030000000 1.0
C      1  0.4915580000000  0.4567340000000  0.4613020000000 1.0
C      1  0.5563500000000  0.4680180000000  0.4815160000000 1.0
C      1  0.5563510000000  0.5319960000000  0.4815490000000 1.0
C      1  0.5563530000000  0.4999800000000  0.5369450000000 1.0
C      1  0.4505090000000  0.4827290000000  0.4453330000000 1.0
C      1  0.4505050000000  0.5559750000000  0.5123800000000 1.0
C      1  0.4505220000000  0.4612910000000  0.5422910000000 1.0
C      1  0.4548060000000  0.5233270000000  0.5604430000000 1.0
C      1  0.4548040000000  0.4359850000000  0.4899800000000 1.0
C      1  0.4547890000000  0.5406880000000  0.4495810000000 1.0
C      1  0.5604400000000  0.4864970000000  0.4577170000000 1.0
C      1  0.5604570000000  0.5433630000000  0.5094480000000 1.0
C      1  0.5604360000000  0.4701310000000  0.5328400000000 1.0
C      1  0.4772710000000  0.5054570000000  0.5299000000000 1.0
C      1  0.4772720000000  0.4713660000000  0.4897740000000 1.0
C      1  0.4772630000000  0.5231700000000  0.4803210000000 1.0
END
