TITL C-3985253-1688-144 5.99284722244714e-08 125000 -333.908129300426 0 0 60 (C2h) n - 1
REM
REM in /home/nfs/bkarasulu/CARBON/AIRSS/Generating-Clusters/TERSOFF/Higher-Symm/Only-C60
REM
REM
REM
REM
REM
REM ./C.cell (28575a23ae977d3b5fae324c64b13b57)
REM
REM compiler GCC version 9.2.1 20190827 (Red Hat 9.2.1-1)
REM options -cpp -mtune=generic -march=x86-64 -g -O0 -fpre-include=/usr/include/finclude/math-vector-fortran.h
REM seed -1040443383 1348615616 -1277258381 -135203234 -895022395 -18660417 826574897 771584648 -1849606073 -1711356832 2022969995 1033824987 -371129392 578377532 -126450507 -172650342 1948975341 -954801516 -1481084201 -1348556197 -1289522968 -594251356 719401827 -207325212 -91475161 -218645681 821598430 913040467 -574158204 1507230454 -1658778514 396950170 -916239866
REM
CELL 1.54180   50.00000   50.00000   50.00000   90.00000   90.00000   90.00000
LATT -1
SFAC C  
C      1  0.5141920000000  0.5189020000000  0.5914510000000 1.0
C      1  0.5141920000000  0.4810980000000  0.4085490000000 1.0
C      1  0.4858080000000  0.5189020000000  0.5914510000000 1.0
C      1  0.4858080000000  0.4810980000000  0.4085490000000 1.0
C      1  0.5551140000000  0.5013420000000  0.4703770000000 1.0
C      1  0.5551140000000  0.4986580000000  0.5296230000000 1.0
C      1  0.4448860000000  0.5013420000000  0.4703770000000 1.0
C      1  0.4448860000000  0.4986580000000  0.5296230000000 1.0
C      1  0.5252720000000  0.5487610000000  0.4604350000000 1.0
C      1  0.5252720000000  0.4512390000000  0.5395650000000 1.0
C      1  0.4747280000000  0.5487610000000  0.4604350000000 1.0
C      1  0.4747280000000  0.4512390000000  0.5395650000000 1.0
C      1  0.4819700000000  0.5267890000000  0.4403460000000 1.0
C      1  0.4819700000000  0.4732110000000  0.5596540000000 1.0
C      1  0.5180300000000  0.5267890000000  0.4403460000000 1.0
C      1  0.5180300000000  0.4732110000000  0.5596540000000 1.0
C      1  0.5166010000000  0.4355170000000  0.4707250000000 1.0
C      1  0.5166010000000  0.5644830000000  0.5292750000000 1.0
C      1  0.4833990000000  0.4355170000000  0.4707250000000 1.0
C      1  0.4833990000000  0.5644830000000  0.5292750000000 1.0
C      1  0.4841330000000  0.4460960000000  0.4407970000000 1.0
C      1  0.4841330000000  0.5539040000000  0.5592040000000 1.0
C      1  0.5158670000000  0.4460960000000  0.4407970000000 1.0
C      1  0.5158670000000  0.5539040000000  0.5592040000000 1.0
C      1  0.4718340000000  0.5412620000000  0.5130440000000 1.0
C      1  0.4718340000000  0.4587380000000  0.4869560000000 1.0
C      1  0.5281660000000  0.5412620000000  0.5130440000000 1.0
C      1  0.5281660000000  0.4587380000000  0.4869560000000 1.0
C      1  0.5263990000000  0.5045420000000  0.4850120000000 1.0
C      1  0.5263990000000  0.4954580000000  0.5149880000000 1.0
C      1  0.4736010000000  0.5045420000000  0.4850120000000 1.0
C      1  0.4736010000000  0.4954580000000  0.5149880000000 1.0
C      1  0.4716630000000  0.4753520000000  0.4342520000000 1.0
C      1  0.4716630000000  0.5246480000000  0.5657480000000 1.0
C      1  0.5283370000000  0.4753520000000  0.4342520000000 1.0
C      1  0.5283370000000  0.5246480000000  0.5657480000000 1.0
C      1  0.5679890000000  0.4768230000000  0.5129680000000 1.0
C      1  0.5679890000000  0.5231770000000  0.4870320000000 1.0
C      1  0.4320110000000  0.4768230000000  0.5129680000000 1.0
C      1  0.4320110000000  0.5231770000000  0.4870320000000 1.0
C      1  0.4433230000000  0.4724690000000  0.4857780000000 1.0
C      1  0.4433230000000  0.5275310000000  0.5142220000000 1.0
C      1  0.5566770000000  0.4724690000000  0.4857780000000 1.0
C      1  0.5566770000000  0.5275310000000  0.5142220000000 1.0
C      1  0.4610760000000  0.4962700000000  0.5571880000000 1.0
C      1  0.4610760000000  0.5037300000000  0.4428120000000 1.0
C      1  0.5389240000000  0.4962700000000  0.5571880000000 1.0
C      1  0.5389240000000  0.5037300000000  0.4428120000000 1.0
C      1  0.5145430000000  0.5199850000000  0.5326870000000 1.0
C      1  0.5145430000000  0.4800150000000  0.4673130000000 1.0
C      1  0.4854570000000  0.5199850000000  0.5326870000000 1.0
C      1  0.4854570000000  0.4800150000000  0.4673130000000 1.0
C      1  0.5155760000000  0.5339910000000  0.4854140000000 1.0
C      1  0.5155760000000  0.4660090000000  0.5145860000000 1.0
C      1  0.4844240000000  0.5339910000000  0.4854140000000 1.0
C      1  0.4844240000000  0.4660090000000  0.5145860000000 1.0
C      1  0.5144250000000  0.5755070000000  0.4557300000000 1.0
C      1  0.5144250000000  0.4244930000000  0.5442700000000 1.0
C      1  0.4855750000000  0.5755070000000  0.4557300000000 1.0
C      1  0.4855750000000  0.4244930000000  0.5442700000000 1.0
END
