TITL C-3985245-9316-1278 0.000579854233374001 125000 -310.817677119951 0 0 60 (C2) n - 1
REM
REM in /home/nfs/bkarasulu/CARBON/AIRSS/Generating-Clusters/TERSOFF/Higher-Symm/Only-C60
REM
REM
REM
REM
REM
REM ./C.cell (28575a23ae977d3b5fae324c64b13b57)
REM
REM compiler GCC version 9.2.1 20190827 (Red Hat 9.2.1-1)
REM options -cpp -mtune=generic -march=x86-64 -g -O0 -fpre-include=/usr/include/finclude/math-vector-fortran.h
REM seed -1694979959 -958110664 -1963194015 -1590033515 -1075304699 2128679900 -1053027738 1215447620 -1235668731 -932787859 -1047686402 -951326696 -300082654 1404152170 -1408152463 -442930922 -1735590745 -283277112 -670747193 1314540380 -862690074 545985552 2099241943 -2043269675 1365219015 1176513574 1613974696 1198190281 1596977962 -1096554314 586312164 61933842 -282065125
REM
CELL 1.54180   50.00000   50.00000   50.00000   90.00000   90.00000   90.00000
LATT -1
SFAC C  
C      1  0.4955220000000  0.4453540000000  0.5466520000000 1.0
C      1  0.5247770000000  0.4529270000000  0.5427120000000 1.0
C      1  0.5415070000000  0.4452830000000  0.5181790000000 1.0
C      1  0.5491260000000  0.4546560000000  0.4877250000000 1.0
C      1  0.5343020000000  0.4549770000000  0.4621870000000 1.0
C      1  0.5044660000000  0.4453260000000  0.4533410000000 1.0
C      1  0.4752180000000  0.4529350000000  0.4573080000000 1.0
C      1  0.4585000000000  0.4452500000000  0.4817920000000 1.0
C      1  0.4508350000000  0.4546600000000  0.5122530000000 1.0
C      1  0.4656830000000  0.4549920000000  0.5378110000000 1.0
C      1  0.4887900000000  0.4712450000000  0.5687860000000 1.0
C      1  0.5332470000000  0.4771810000000  0.5567490000000 1.0
C      1  0.5640160000000  0.4711270000000  0.5233570000000 1.0
C      1  0.5704660000000  0.4777540000000  0.4910390000000 1.0
C      1  0.5423210000000  0.4780260000000  0.4421460000000 1.0
C      1  0.5111700000000  0.4712250000000  0.4311440000000 1.0
C      1  0.4667080000000  0.4771860000000  0.4432710000000 1.0
C      1  0.4359570000000  0.4710810000000  0.4766580000000 1.0
C      1  0.4294780000000  0.4777570000000  0.5089610000000 1.0
C      1  0.4576810000000  0.4780230000000  0.5578680000000 1.0
C      1  0.5578980000000  0.5335110000000  0.5000470000000 1.0
C      1  0.5279310000000  0.5338800000000  0.4489350000000 1.0
C      1  0.5003630000000  0.5286030000000  0.4358130000000 1.0
C      1  0.4715200000000  0.5387270000000  0.4516410000000 1.0
C      1  0.4439750000000  0.5282590000000  0.4694450000000 1.0
C      1  0.4420650000000  0.5335160000000  0.4999690000000 1.0
C      1  0.4721390000000  0.5339350000000  0.5509650000000 1.0
C      1  0.4997760000000  0.5287470000000  0.5643180000000 1.0
C      1  0.5285230000000  0.5387250000000  0.5483620000000 1.0
C      1  0.5559610000000  0.5282120000000  0.5305540000000 1.0
C      1  0.4952380000000  0.4692690000000  0.5971270000000 1.0
C      1  0.5465010000000  0.4768780000000  0.5826210000000 1.0
C      1  0.5850960000000  0.4691810000000  0.5432120000000 1.0
C      1  0.5973190000000  0.4748030000000  0.4802610000000 1.0
C      1  0.5653810000000  0.4750670000000  0.4246820000000 1.0
C      1  0.5048240000000  0.4692400000000  0.4028690000000 1.0
C      1  0.4534580000000  0.4768560000000  0.4174040000000 1.0
C      1  0.4149990000000  0.4691630000000  0.4567680000000 1.0
C      1  0.4026950000000  0.4747880000000  0.5196680000000 1.0
C      1  0.4346280000000  0.4750440000000  0.5753750000000 1.0
C      1  0.5205220000000  0.5657330000000  0.5344360000000 1.0
C      1  0.5364950000000  0.5752290000000  0.5120430000000 1.0
C      1  0.5452420000000  0.5579790000000  0.4904230000000 1.0
C      1  0.5300870000000  0.5581190000000  0.4651470000000 1.0
C      1  0.5068380000000  0.5753790000000  0.4629390000000 1.0
C      1  0.4794940000000  0.5657350000000  0.4655870000000 1.0
C      1  0.4635060000000  0.5752150000000  0.4879820000000 1.0
C      1  0.4547570000000  0.5579700000000  0.5096040000000 1.0
C      1  0.4699590000000  0.5580720000000  0.5348120000000 1.0
C      1  0.4931650000000  0.5753360000000  0.5370810000000 1.0
C      1  0.5059560000000  0.4981350000000  0.4480770000000 1.0
C      1  0.4752820000000  0.5030470000000  0.4575050000000 1.0
C      1  0.4529420000000  0.4978270000000  0.4805190000000 1.0
C      1  0.4465890000000  0.5058780000000  0.5143160000000 1.0
C      1  0.4617120000000  0.5060140000000  0.5404370000000 1.0
C      1  0.4940780000000  0.4980810000000  0.5519940000000 1.0
C      1  0.5246590000000  0.5030470000000  0.5424770000000 1.0
C      1  0.5470160000000  0.4978430000000  0.5194800000000 1.0
C      1  0.5534020000000  0.5059230000000  0.4856230000000 1.0
C      1  0.5382380000000  0.5060670000000  0.4595400000000 1.0
END
