TITL C-3985254-1270-144 3.15486825807213e-08 125000 -331.500318251695 0 0 60 (C5) n - 1
REM
REM in /home/nfs/bkarasulu/CARBON/AIRSS/Generating-Clusters/TERSOFF/Higher-Symm/Only-C60
REM
REM
REM
REM
REM
REM ./C.cell (28575a23ae977d3b5fae324c64b13b57)
REM
REM compiler GCC version 9.2.1 20190827 (Red Hat 9.2.1-1)
REM options -cpp -mtune=generic -march=x86-64 -g -O0 -fpre-include=/usr/include/finclude/math-vector-fortran.h
REM seed -1927783769 177409815 -1793451364 -177694957 -863983018 1585992545 2102124016 401458125 -134630976 -220230596 270540939 678527405 1331948689 552593545 -1245461116 1042079274 -1104328279 -1149888810 -1758475908 2147283503 -1648807692 -1759296151 -1330662680 -2100272398 -464642870 1862959807 -540431612 1928024480 -247678662 509035236 -1242375486 -1001838679 -1675894750
REM
CELL 1.54180   50.00000   50.00000   50.00000   90.00000   90.00000   90.00000
LATT -1
SFAC C  
C      1  0.5166930000000  0.5649470000000  0.5284010000000 1.0
C      1  0.4433900000000  0.5359460000000  0.5284010000000 1.0
C      1  0.4483200000000  0.4572680000000  0.5284010000000 1.0
C      1  0.5246700000000  0.4376440000000  0.5284000000000 1.0
C      1  0.5669270000000  0.5041930000000  0.5284010000000 1.0
C      1  0.4888290000000  0.5287560000000  0.5744150000000 1.0
C      1  0.4691990000000  0.4982620000000  0.5744140000000 1.0
C      1  0.4921350000000  0.4701690000000  0.5744140000000 1.0
C      1  0.5259400000000  0.4833010000000  0.5744140000000 1.0
C      1  0.5238980000000  0.5195100000000  0.5744150000000 1.0
C      1  0.4602900000000  0.5567100000000  0.5111080000000 1.0
C      1  0.4337940000000  0.4797570000000  0.5111070000000 1.0
C      1  0.4987930000000  0.4307790000000  0.5111070000000 1.0
C      1  0.5654600000000  0.4774620000000  0.5111070000000 1.0
C      1  0.5416640000000  0.5552910000000  0.5111080000000 1.0
C      1  0.4802360000000  0.5193570000000  0.4984960000000 1.0
C      1  0.4754830000000  0.4871850000000  0.4984950000000 1.0
C      1  0.5046120000000  0.4727230000000  0.4984950000000 1.0
C      1  0.5273670000000  0.4959570000000  0.4984950000000 1.0
C      1  0.5123020000000  0.5247780000000  0.4984960000000 1.0
C      1  0.4791170000000  0.5142690000000  0.5320460000000 1.0
C      1  0.4799760000000  0.4845480000000  0.5320450000000 1.0
C      1  0.5085080000000  0.4761810000000  0.5320450000000 1.0
C      1  0.5252820000000  0.5007310000000  0.5320450000000 1.0
C      1  0.5071170000000  0.5242700000000  0.5320460000000 1.0
C      1  0.4857180000000  0.4429890000000  0.4648300000000 1.0
C      1  0.5498070000000  0.4688000000000  0.4648300000000 1.0
C      1  0.5450650000000  0.5377290000000  0.4648310000000 1.0
C      1  0.4780440000000  0.5545180000000  0.4648310000000 1.0
C      1  0.4413660000000  0.4959660000000  0.4648310000000 1.0
C      1  0.5082010000000  0.4457950000000  0.4847100000000 1.0
C      1  0.5540860000000  0.4910490000000  0.4847100000000 1.0
C      1  0.5252260000000  0.5486730000000  0.4847110000000 1.0
C      1  0.4615040000000  0.5390330000000  0.4847110000000 1.0
C      1  0.4509820000000  0.4754500000000  0.4847100000000 1.0
C      1  0.5175180000000  0.4549830000000  0.5534050000000 1.0
C      1  0.5482270000000  0.5027490000000  0.5534060000000 1.0
C      1  0.5122880000000  0.5467160000000  0.5534060000000 1.0
C      1  0.4593670000000  0.5261220000000  0.5534060000000 1.0
C      1  0.4626000000000  0.4694280000000  0.5534060000000 1.0
C      1  0.4884410000000  0.4489380000000  0.4366230000000 1.0
C      1  0.5449910000000  0.4732280000000  0.4366230000000 1.0
C      1  0.5393650000000  0.5345170000000  0.4366240000000 1.0
C      1  0.4793370000000  0.5481050000000  0.4366240000000 1.0
C      1  0.4478650000000  0.4952140000000  0.4366230000000 1.0
C      1  0.4746090000000  0.4976670000000  0.4258030000000 1.0
C      1  0.4943730000000  0.4751310000000  0.4258030000000 1.0
C      1  0.5219140000000  0.4869640000000  0.4258030000000 1.0
C      1  0.5191700000000  0.5168130000000  0.4258030000000 1.0
C      1  0.4899340000000  0.5234280000000  0.4258030000000 1.0
C      1  0.4601030000000  0.4464340000000  0.4802060000000 1.0
C      1  0.5386160000000  0.4455030000000  0.4802060000000 1.0
C      1  0.5637630000000  0.5198860000000  0.4802070000000 1.0
C      1  0.5007920000000  0.5667870000000  0.4802070000000 1.0
C      1  0.4367260000000  0.5213910000000  0.4802070000000 1.0
C      1  0.5485390000000  0.4477940000000  0.5099560000000 1.0
C      1  0.5646500000000  0.5300310000000  0.5099570000000 1.0
C      1  0.4914170000000  0.5707660000000  0.5099570000000 1.0
C      1  0.4300450000000  0.5137050000000  0.5099570000000 1.0
C      1  0.4653490000000  0.4377040000000  0.5099560000000 1.0
END
