TITL C-3985252-168-255 0.00919107565579429 125000 -307.924884575751 0 0 60 (C1) n - 1
REM
REM in /home/nfs/bkarasulu/CARBON/AIRSS/Generating-Clusters/TERSOFF/Higher-Symm/Only-C60
REM
REM
REM
REM
REM
REM ./C.cell (28575a23ae977d3b5fae324c64b13b57)
REM
REM compiler GCC version 9.2.1 20190827 (Red Hat 9.2.1-1)
REM options -cpp -mtune=generic -march=x86-64 -g -O0 -fpre-include=/usr/include/finclude/math-vector-fortran.h
REM seed -1840195820 -404940480 -811793527 -1875896720 -1764729634 931589032 1587568262 -74695860 -868253501 76637493 888517130 -1749150702 328799056 -209318990 -1682322516 -2069916534 -1834647338 -719862258 1092255945 2068571935 1002788138 2136158603 -714974210 1238956041 -607343832 -2044121783 798206817 1116983177 -1249545126 -1157783941 1484269405 71442330 2108097393
REM
CELL 1.54180   50.00000   50.00000   50.00000   90.00000   90.00000   90.00000
LATT -1
SFAC C  
C      1  0.5575900000000  0.4639990000000  0.4891110000000 1.0
C      1  0.4314150000000  0.4936630000000  0.4843590000000 1.0
C      1  0.4927130000000  0.4433160000000  0.4495630000000 1.0
C      1  0.5622930000000  0.4567010000000  0.5196000000000 1.0
C      1  0.5102060000000  0.4742620000000  0.4884160000000 1.0
C      1  0.4763000000000  0.4379400000000  0.5321650000000 1.0
C      1  0.5053640000000  0.4450210000000  0.5280360000000 1.0
C      1  0.4911320000000  0.5841330000000  0.5381280000000 1.0
C      1  0.5602540000000  0.4748500000000  0.4582510000000 1.0
C      1  0.5194350000000  0.5004950000000  0.5329610000000 1.0
C      1  0.5341540000000  0.4842560000000  0.4401460000000 1.0
C      1  0.4847220000000  0.5402150000000  0.5621900000000 1.0
C      1  0.4987900000000  0.4808320000000  0.5640630000000 1.0
C      1  0.5217060000000  0.5031520000000  0.4858310000000 1.0
C      1  0.4330450000000  0.5025850000000  0.5358300000000 1.0
C      1  0.4754100000000  0.5827040000000  0.4795620000000 1.0
C      1  0.5493890000000  0.4716100000000  0.5420230000000 1.0
C      1  0.5214650000000  0.4558990000000  0.4518230000000 1.0
C      1  0.4607620000000  0.4602550000000  0.4511800000000 1.0
C      1  0.4862740000000  0.4961780000000  0.4308110000000 1.0
C      1  0.4796140000000  0.4691720000000  0.4871790000000 1.0
C      1  0.4915850000000  0.4252440000000  0.4769990000000 1.0
C      1  0.5290920000000  0.5121320000000  0.4567130000000 1.0
C      1  0.5222540000000  0.4607490000000  0.5532390000000 1.0
C      1  0.5661710000000  0.5235260000000  0.5168900000000 1.0
C      1  0.4731220000000  0.5624100000000  0.5449130000000 1.0
C      1  0.4714500000000  0.4753110000000  0.5508970000000 1.0
C      1  0.5745920000000  0.5212260000000  0.4864190000000 1.0
C      1  0.5121120000000  0.4907310000000  0.4201110000000 1.0
C      1  0.4469250000000  0.4901560000000  0.5590130000000 1.0
C      1  0.5511300000000  0.5028050000000  0.5392790000000 1.0
C      1  0.4393490000000  0.4819200000000  0.5118590000000 1.0
C      1  0.4722210000000  0.4791910000000  0.5179210000000 1.0
C      1  0.5035480000000  0.5331710000000  0.4502740000000 1.0
C      1  0.4753470000000  0.5143990000000  0.4799340000000 1.0
C      1  0.4807710000000  0.4885960000000  0.4609810000000 1.0
C      1  0.4767400000000  0.5241710000000  0.4360760000000 1.0
C      1  0.4474020000000  0.5154760000000  0.4445080000000 1.0
C      1  0.5467950000000  0.5463430000000  0.5100950000000 1.0
C      1  0.5019280000000  0.5242800000000  0.5020590000000 1.0
C      1  0.5300620000000  0.4522660000000  0.4808580000000 1.0
C      1  0.4567060000000  0.4373290000000  0.5104980000000 1.0
C      1  0.4579890000000  0.5533740000000  0.5212180000000 1.0
C      1  0.5061830000000  0.4767520000000  0.5182310000000 1.0
C      1  0.5541270000000  0.5306940000000  0.4657130000000 1.0
C      1  0.4694500000000  0.5575980000000  0.4929230000000 1.0
C      1  0.5475620000000  0.4916650000000  0.4984340000000 1.0
C      1  0.4656210000000  0.4415210000000  0.4816240000000 1.0
C      1  0.4508690000000  0.5243820000000  0.5205980000000 1.0
C      1  0.5114210000000  0.5743430000000  0.5212770000000 1.0
C      1  0.5139700000000  0.4324120000000  0.4979540000000 1.0
C      1  0.4382860000000  0.4862370000000  0.4554600000000 1.0
C      1  0.5456010000000  0.5210920000000  0.5625800000000 1.0
C      1  0.4953670000000  0.5130280000000  0.5514770000000 1.0
C      1  0.5204610000000  0.5462210000000  0.5246320000000 1.0
C      1  0.4797340000000  0.5109450000000  0.5231290000000 1.0
C      1  0.5082440000000  0.5463320000000  0.4780090000000 1.0
C      1  0.4481040000000  0.5177330000000  0.4902120000000 1.0
C      1  0.5387680000000  0.5513260000000  0.4818210000000 1.0
C      1  0.5269080000000  0.5416730000000  0.5539440000000 1.0
END
