TITL C-3985245-9316-978 -3.19198583035195e-07 125000 -317.138460102626 0 0 60 (Td) n - 1
REM
REM in /home/nfs/bkarasulu/CARBON/AIRSS/Generating-Clusters/TERSOFF/Higher-Symm/Only-C60
REM
REM
REM
REM
REM
REM ./C.cell (28575a23ae977d3b5fae324c64b13b57)
REM
REM compiler GCC version 9.2.1 20190827 (Red Hat 9.2.1-1)
REM options -cpp -mtune=generic -march=x86-64 -g -O0 -fpre-include=/usr/include/finclude/math-vector-fortran.h
REM seed 358388057 -1980481498 -1818888954 386849642 -1291281875 -1853260253 -1003237121 758406146 -814342142 -1246074561 -812274684 567361526 1604196456 -392826239 1344161499 1728979673 491253094 1182294166 -783844153 1077920093 -914570816 361154945 1252806046 2079953251 -850766870 1443214777 1220581080 -644299421 60388900 630799035 -1727782409 -1087319134 309761542
REM
CELL 1.54180   50.00000   50.00000   50.00000   90.00000   90.00000   90.00000
LATT -1
SFAC C  
C      1  0.4510260000000  0.4734860000000  0.5714800000000 1.0
C      1  0.5714800000000  0.4510260000000  0.4734860000000 1.0
C      1  0.4734860000000  0.5714800000000  0.4510260000000 1.0
C      1  0.5489740000000  0.4734860000000  0.4285200000000 1.0
C      1  0.4510260000000  0.5265140000000  0.4285200000000 1.0
C      1  0.5489740000000  0.5265140000000  0.5714800000000 1.0
C      1  0.4285200000000  0.4510260000000  0.5265140000000 1.0
C      1  0.5714800000000  0.5489740000000  0.5265140000000 1.0
C      1  0.4285200000000  0.5489740000000  0.4734860000000 1.0
C      1  0.5265140000000  0.5714800000000  0.5489740000000 1.0
C      1  0.4734860000000  0.4285200000000  0.5489740000000 1.0
C      1  0.5265140000000  0.4285200000000  0.4510260000000 1.0
C      1  0.5714800000000  0.4734860000000  0.4510260000000 1.0
C      1  0.4734860000000  0.4510260000000  0.5714800000000 1.0
C      1  0.4510260000000  0.5714800000000  0.4734860000000 1.0
C      1  0.4285200000000  0.4734860000000  0.5489740000000 1.0
C      1  0.4285200000000  0.5265140000000  0.4510260000000 1.0
C      1  0.5714800000000  0.5265140000000  0.5489740000000 1.0
C      1  0.5265140000000  0.4510260000000  0.4285200000000 1.0
C      1  0.5265140000000  0.5489740000000  0.5714800000000 1.0
C      1  0.4734860000000  0.5489740000000  0.4285200000000 1.0
C      1  0.5489740000000  0.5714800000000  0.5265140000000 1.0
C      1  0.5489740000000  0.4285200000000  0.4734860000000 1.0
C      1  0.4510260000000  0.4285200000000  0.5265140000000 1.0
C      1  0.5297170000000  0.4931070000000  0.4475850000000 1.0
C      1  0.4475850000000  0.5297170000000  0.4931070000000 1.0
C      1  0.4931070000000  0.4475850000000  0.5297170000000 1.0
C      1  0.4702830000000  0.4931070000000  0.5524150000000 1.0
C      1  0.5297170000000  0.5068930000000  0.5524150000000 1.0
C      1  0.4702830000000  0.5068930000000  0.4475850000000 1.0
C      1  0.5524150000000  0.5297170000000  0.5068930000000 1.0
C      1  0.4475850000000  0.4702830000000  0.5068930000000 1.0
C      1  0.5524150000000  0.4702830000000  0.4931070000000 1.0
C      1  0.5068930000000  0.4475850000000  0.4702830000000 1.0
C      1  0.4931070000000  0.5524150000000  0.4702830000000 1.0
C      1  0.5068930000000  0.5524150000000  0.5297170000000 1.0
C      1  0.4475850000000  0.4931070000000  0.5297170000000 1.0
C      1  0.4931070000000  0.5297170000000  0.4475850000000 1.0
C      1  0.5297170000000  0.4475850000000  0.4931070000000 1.0
C      1  0.5524150000000  0.4931070000000  0.4702830000000 1.0
C      1  0.5524150000000  0.5068930000000  0.5297170000000 1.0
C      1  0.4475850000000  0.5068930000000  0.4702830000000 1.0
C      1  0.5068930000000  0.5297170000000  0.5524150000000 1.0
C      1  0.5068930000000  0.4702830000000  0.4475850000000 1.0
C      1  0.4931070000000  0.4702830000000  0.5524150000000 1.0
C      1  0.4702830000000  0.4475850000000  0.5068930000000 1.0
C      1  0.4702830000000  0.5524150000000  0.4931070000000 1.0
C      1  0.5297170000000  0.5524150000000  0.5068930000000 1.0
C      1  0.4806310000000  0.5193690000000  0.5605520000000 1.0
C      1  0.5605520000000  0.4806310000000  0.5193690000000 1.0
C      1  0.5193690000000  0.5605520000000  0.4806310000000 1.0
C      1  0.5193690000000  0.5193690000000  0.4394480000000 1.0
C      1  0.4806310000000  0.4806310000000  0.4394480000000 1.0
C      1  0.5193690000000  0.4806310000000  0.5605520000000 1.0
C      1  0.4394480000000  0.4806310000000  0.4806310000000 1.0
C      1  0.5605520000000  0.5193690000000  0.4806310000000 1.0
C      1  0.4394480000000  0.5193690000000  0.5193690000000 1.0
C      1  0.4806310000000  0.5605520000000  0.5193690000000 1.0
C      1  0.5193690000000  0.4394480000000  0.5193690000000 1.0
C      1  0.4806310000000  0.4394480000000  0.4806310000000 1.0
END
