TITL C-3985250-725-511 1.5832290990039e-07 125000 -344.687557069323 0 0 60 (C4) n - 1
REM
REM in /home/nfs/bkarasulu/CARBON/AIRSS/Generating-Clusters/TERSOFF/Higher-Symm/Only-C60
REM
REM
REM
REM
REM
REM ./C.cell (28575a23ae977d3b5fae324c64b13b57)
REM
REM compiler GCC version 9.2.1 20190827 (Red Hat 9.2.1-1)
REM options -cpp -mtune=generic -march=x86-64 -g -O0 -fpre-include=/usr/include/finclude/math-vector-fortran.h
REM seed -321839349 1907236819 -1312677149 -1041583116 876193196 1194916199 957712218 879565796 -1805510583 -1459731014 -645010517 1962124430 1133448952 -1960211686 1957685833 -1196413530 409400862 1816210321 -56109475 1607785617 1384885531 -189287185 -1618698329 934270495 -1749403761 -1085687183 -1147747519 2013294159 1305837403 -1680344078 -578240169 -610387800 -894690338
REM
CELL 1.54180   50.00000   50.00000   50.00000   90.00000   90.00000   90.00000
LATT -1
SFAC C  
C      1  0.4531820000000  0.5421840000000  0.5102850000000 1.0
C      1  0.4578160000000  0.4531820000000  0.5102850000000 1.0
C      1  0.5468180000000  0.4578160000000  0.5102860000000 1.0
C      1  0.5421840000000  0.5468180000000  0.5102860000000 1.0
C      1  0.4789250000000  0.4920460000000  0.4189740000000 1.0
C      1  0.5079540000000  0.4789250000000  0.4189740000000 1.0
C      1  0.5210750000000  0.5079540000000  0.4189740000000 1.0
C      1  0.4920460000000  0.5210750000000  0.4189740000000 1.0
C      1  0.4694870000000  0.5446520000000  0.5378830000000 1.0
C      1  0.4553480000000  0.4694870000000  0.5378830000000 1.0
C      1  0.5305130000000  0.4553480000000  0.5378830000000 1.0
C      1  0.5446520000000  0.5305130000000  0.5378830000000 1.0
C      1  0.4649720000000  0.5525750000000  0.4838350000000 1.0
C      1  0.4474250000000  0.4649720000000  0.4838350000000 1.0
C      1  0.5350280000000  0.4474250000000  0.4838350000000 1.0
C      1  0.5525750000000  0.5350280000000  0.4838360000000 1.0
C      1  0.5421540000000  0.4794450000000  0.5566590000000 1.0
C      1  0.5205540000000  0.5421540000000  0.5566590000000 1.0
C      1  0.4578460000000  0.5205550000000  0.5566590000000 1.0
C      1  0.4794450000000  0.4578460000000  0.5566590000000 1.0
C      1  0.4791270000000  0.4927930000000  0.5334270000000 1.0
C      1  0.5072070000000  0.4791270000000  0.5334270000000 1.0
C      1  0.5208730000000  0.5072070000000  0.5334270000000 1.0
C      1  0.4927930000000  0.5208730000000  0.5334270000000 1.0
C      1  0.5350180000000  0.4980710000000  0.5083680000000 1.0
C      1  0.5019280000000  0.5350180000000  0.5083680000000 1.0
C      1  0.4649820000000  0.5019290000000  0.5083680000000 1.0
C      1  0.4980710000000  0.4649820000000  0.5083680000000 1.0
C      1  0.5209990000000  0.4900960000000  0.5750900000000 1.0
C      1  0.5099040000000  0.5209990000000  0.5750900000000 1.0
C      1  0.4790010000000  0.5099040000000  0.5750900000000 1.0
C      1  0.4900960000000  0.4790010000000  0.5750900000000 1.0
C      1  0.5019500000000  0.5224200000000  0.4820730000000 1.0
C      1  0.4775800000000  0.5019500000000  0.4820730000000 1.0
C      1  0.4980500000000  0.4775800000000  0.4820730000000 1.0
C      1  0.5224200000000  0.4980500000000  0.4820730000000 1.0
C      1  0.4994170000000  0.4387340000000  0.5411170000000 1.0
C      1  0.5612660000000  0.4994170000000  0.5411170000000 1.0
C      1  0.5005830000000  0.5612660000000  0.5411170000000 1.0
C      1  0.4387330000000  0.5005830000000  0.5411170000000 1.0
C      1  0.5057500000000  0.4326420000000  0.4827990000000 1.0
C      1  0.5673590000000  0.5057500000000  0.4828000000000 1.0
C      1  0.4942500000000  0.5673580000000  0.4827990000000 1.0
C      1  0.4326420000000  0.4942500000000  0.4827990000000 1.0
C      1  0.5393750000000  0.4638670000000  0.4575580000000 1.0
C      1  0.5361330000000  0.5393750000000  0.4575580000000 1.0
C      1  0.4606250000000  0.5361330000000  0.4575580000000 1.0
C      1  0.4638680000000  0.4606250000000  0.4575580000000 1.0
C      1  0.4870220000000  0.4358600000000  0.5105300000000 1.0
C      1  0.5641400000000  0.4870220000000  0.5105310000000 1.0
C      1  0.5129780000000  0.5641400000000  0.5105300000000 1.0
C      1  0.4358600000000  0.5129780000000  0.5105300000000 1.0
C      1  0.5459340000000  0.4937950000000  0.4612880000000 1.0
C      1  0.5062050000000  0.5459340000000  0.4612880000000 1.0
C      1  0.4540660000000  0.5062050000000  0.4612880000000 1.0
C      1  0.4937950000000  0.4540660000000  0.4612880000000 1.0
C      1  0.4599000000000  0.4853030000000  0.4401130000000 1.0
C      1  0.5146970000000  0.4599000000000  0.4401130000000 1.0
C      1  0.5401000000000  0.5146970000000  0.4401130000000 1.0
C      1  0.4853030000000  0.5401000000000  0.4401130000000 1.0
END
