TITL C-3985245-9316-445 0.00116579119508344 125000 -310.327735898248 0 0 60 (C1) n - 1
REM
REM in /home/nfs/bkarasulu/CARBON/AIRSS/Generating-Clusters/TERSOFF/Higher-Symm/Only-C60
REM
REM
REM
REM
REM
REM ./C.cell (28575a23ae977d3b5fae324c64b13b57)
REM
REM compiler GCC version 9.2.1 20190827 (Red Hat 9.2.1-1)
REM options -cpp -mtune=generic -march=x86-64 -g -O0 -fpre-include=/usr/include/finclude/math-vector-fortran.h
REM seed -598038207 380633510 743635832 -641197145 -2006669018 928586254 -52468895 1712510736 -788816505 239924890 -814899518 -138294079 1561347069 2028026341 1845592937 -14603431 -1190776152 -7449291 -806083441 -1477443380 -629854193 -526250933 1321751888 -1932831636 1008217272 1558404972 666580564 658990891 -75477473 -264672216 -742039348 -1521794427 1336804743
REM
CELL 1.54180   50.00000   50.00000   50.00000   90.00000   90.00000   90.00000
LATT -1
SFAC C  
C      1  0.5798710000000  0.4764780000000  0.5117270000000 1.0
C      1  0.5564180000000  0.4754300000000  0.4402520000000 1.0
C      1  0.4942910000000  0.4743520000000  0.4243720000000 1.0
C      1  0.4382690000000  0.4736530000000  0.4575270000000 1.0
C      1  0.4231060000000  0.4748650000000  0.5208990000000 1.0
C      1  0.4634540000000  0.4762670000000  0.5756790000000 1.0
C      1  0.5404910000000  0.4692450000000  0.5619760000000 1.0
C      1  0.5516220000000  0.4994550000000  0.4614640000000 1.0
C      1  0.5039430000000  0.4999310000000  0.4410050000000 1.0
C      1  0.4568110000000  0.4994030000000  0.4616930000000 1.0
C      1  0.4404450000000  0.4994490000000  0.5102880000000 1.0
C      1  0.4679530000000  0.4984400000000  0.5535950000000 1.0
C      1  0.5211420000000  0.4939190000000  0.5557570000000 1.0
C      1  0.5555030000000  0.4967410000000  0.5147050000000 1.0
C      1  0.5106920000000  0.4728230000000  0.4630030000000 1.0
C      1  0.4774760000000  0.4721190000000  0.4724700000000 1.0
C      1  0.4607920000000  0.4720680000000  0.5027310000000 1.0
C      1  0.4708910000000  0.4710420000000  0.5346820000000 1.0
C      1  0.5021630000000  0.4658490000000  0.5452250000000 1.0
C      1  0.5385650000000  0.4688200000000  0.5112100000000 1.0
C      1  0.5424220000000  0.4696550000000  0.4793880000000 1.0
C      1  0.4392130000000  0.4586380000000  0.4832550000000 1.0
C      1  0.4417750000000  0.4586150000000  0.5376930000000 1.0
C      1  0.4855450000000  0.4566710000000  0.5712910000000 1.0
C      1  0.5494910000000  0.4561590000000  0.5372550000000 1.0
C      1  0.5721570000000  0.4608890000000  0.4872890000000 1.0
C      1  0.5306390000000  0.4603940000000  0.4401960000000 1.0
C      1  0.4766470000000  0.4589310000000  0.4428410000000 1.0
C      1  0.5298740000000  0.5151050000000  0.4464760000000 1.0
C      1  0.4780580000000  0.5148340000000  0.4460120000000 1.0
C      1  0.4429120000000  0.5145170000000  0.4838590000000 1.0
C      1  0.4491380000000  0.5141120000000  0.5353030000000 1.0
C      1  0.4946770000000  0.5112800000000  0.5599940000000 1.0
C      1  0.5428250000000  0.5100420000000  0.5388300000000 1.0
C      1  0.5587040000000  0.5131180000000  0.4888090000000 1.0
C      1  0.4963790000000  0.5402170000000  0.5613020000000 1.0
C      1  0.5443870000000  0.5389410000000  0.5411030000000 1.0
C      1  0.5604650000000  0.5419940000000  0.4900650000000 1.0
C      1  0.5301650000000  0.5444710000000  0.4458880000000 1.0
C      1  0.4768070000000  0.5440910000000  0.4437350000000 1.0
C      1  0.4411290000000  0.5437100000000  0.4829730000000 1.0
C      1  0.4490760000000  0.5431110000000  0.5356930000000 1.0
C      1  0.5373150000000  0.5593130000000  0.4944330000000 1.0
C      1  0.5187750000000  0.5618230000000  0.4672410000000 1.0
C      1  0.4856140000000  0.5630160000000  0.4650860000000 1.0
C      1  0.4635130000000  0.5619490000000  0.4898710000000 1.0
C      1  0.4692890000000  0.5595090000000  0.5221550000000 1.0
C      1  0.4977910000000  0.5574190000000  0.5376390000000 1.0
C      1  0.5276840000000  0.5573100000000  0.5255300000000 1.0
C      1  0.4989300000000  0.6296070000000  0.4983400000000 1.0
C      1  0.4985690000000  0.4419500000000  0.5008450000000 1.0
C      1  0.5088070000000  0.4663260000000  0.5144210000000 1.0
C      1  0.4942350000000  0.6030730000000  0.4874160000000 1.0
C      1  0.5006540000000  0.3638500000000  0.5034050000000 1.0
C      1  0.4979580000000  0.4916140000000  0.5034330000000 1.0
C      1  0.5039010000000  0.4147110000000  0.5093840000000 1.0
C      1  0.5005210000000  0.5781100000000  0.5013410000000 1.0
C      1  0.4978670000000  0.3910180000000  0.4938220000000 1.0
C      1  0.5034010000000  0.5179010000000  0.5139430000000 1.0
C      1  0.4993250000000  0.5421200000000  0.4986300000000 1.0
END
