TITL C-3985250-725-354 1.84323079797628e-07 125000 -346.910909364709 0 0 60 (D3) n - 1
REM
REM in /home/nfs/bkarasulu/CARBON/AIRSS/Generating-Clusters/TERSOFF/Higher-Symm/Only-C60
REM
REM
REM
REM
REM
REM ./C.cell (28575a23ae977d3b5fae324c64b13b57)
REM
REM compiler GCC version 9.2.1 20190827 (Red Hat 9.2.1-1)
REM options -cpp -mtune=generic -march=x86-64 -g -O0 -fpre-include=/usr/include/finclude/math-vector-fortran.h
REM seed -424065609 628988611 1046422573 -2053346056 1383115328 1173446424 1612048384 -2043027850 854906613 158725287 -2034113978 -583533785 -644474933 -2025964489 489461263 3157630 942841564 1488326955 1928187655 551962097 2045378910 -232297697 -1918690422 -396044058 863947000 -414908370 995691377 -2034294082 -1888179894 -1891059203 -1977975929 -1448220652 598427890
REM
CELL 1.54180   50.00000   50.00000   50.00000   90.00000   90.00000   90.00000
LATT -1
SFAC C  
C      1  0.5493440000000  0.5373150000000  0.5528110000000 1.0
C      1  0.4295920000000  0.5373150000000  0.5163280000000 1.0
C      1  0.5210640000000  0.5373150000000  0.4308610000000 1.0
C      1  0.4506560000000  0.4626850000000  0.5528110000000 1.0
C      1  0.5704080000000  0.4626850000000  0.5163280000000 1.0
C      1  0.4789360000000  0.4626850000000  0.4308610000000 1.0
C      1  0.5272630000000  0.5387260000000  0.4660680000000 1.0
C      1  0.5157540000000  0.5387260000000  0.5405760000000 1.0
C      1  0.4569830000000  0.5387260000000  0.4933560000000 1.0
C      1  0.4727370000000  0.4612740000000  0.4660680000000 1.0
C      1  0.4842460000000  0.4612740000000  0.5405760000000 1.0
C      1  0.5430170000000  0.4612740000000  0.4933560000000 1.0
C      1  0.4365210000000  0.5424400000000  0.5444350000000 1.0
C      1  0.4932570000000  0.5424400000000  0.4228080000000 1.0
C      1  0.5702220000000  0.5424400000000  0.5327560000000 1.0
C      1  0.5634790000000  0.4575600000000  0.5444350000000 1.0
C      1  0.5067430000000  0.4575600000000  0.4228080000000 1.0
C      1  0.4297780000000  0.4575600000000  0.5327560000000 1.0
C      1  0.5697420000000  0.5063740000000  0.4981700000000 1.0
C      1  0.4667140000000  0.5063740000000  0.5613130000000 1.0
C      1  0.4635440000000  0.5063740000000  0.4405170000000 1.0
C      1  0.4302580000000  0.4936260000000  0.4981700000000 1.0
C      1  0.5332860000000  0.4936260000000  0.5613130000000 1.0
C      1  0.5364560000000  0.4936260000000  0.4405170000000 1.0
C      1  0.4730940000000  0.5577000000000  0.5140700000000 1.0
C      1  0.5012680000000  0.5577000000000  0.4696640000000 1.0
C      1  0.5256380000000  0.5577000000000  0.5162670000000 1.0
C      1  0.5269060000000  0.4423000000000  0.5140700000000 1.0
C      1  0.4987320000000  0.4423000000000  0.4696640000000 1.0
C      1  0.4743620000000  0.4423000000000  0.5162670000000 1.0
C      1  0.5148910000000  0.5850600000000  0.5127890000000 1.0
C      1  0.4814790000000  0.5850600000000  0.5065010000000 1.0
C      1  0.5036300000000  0.5850600000000  0.4807100000000 1.0
C      1  0.4851090000000  0.4149400000000  0.5127890000000 1.0
C      1  0.5185210000000  0.4149400000000  0.5065010000000 1.0
C      1  0.4963700000000  0.4149400000000  0.4807100000000 1.0
C      1  0.4538730000000  0.5065520000000  0.4881180000000 1.0
C      1  0.5333530000000  0.5065520000000  0.4659940000000 1.0
C      1  0.5127740000000  0.5065520000000  0.5458880000000 1.0
C      1  0.5461270000000  0.4934480000000  0.4881180000000 1.0
C      1  0.4666470000000  0.4934480000000  0.4659940000000 1.0
C      1  0.4872260000000  0.4934480000000  0.5458880000000 1.0
C      1  0.4742530000000  0.5466940000000  0.4664860000000 1.0
C      1  0.5418970000000  0.5466940000000  0.4944590000000 1.0
C      1  0.4838500000000  0.5466940000000  0.5390550000000 1.0
C      1  0.5257470000000  0.4533060000000  0.4664860000000 1.0
C      1  0.4581030000000  0.4533060000000  0.4944590000000 1.0
C      1  0.5161500000000  0.4533060000000  0.5390550000000 1.0
C      1  0.4706980000000  0.5344510000000  0.4397220000000 1.0
C      1  0.5668530000000  0.5344510000000  0.5047630000000 1.0
C      1  0.4624490000000  0.5344510000000  0.5555150000000 1.0
C      1  0.5293020000000  0.4655490000000  0.4397220000000 1.0
C      1  0.4331470000000  0.4655490000000  0.5047630000000 1.0
C      1  0.5375510000000  0.4655490000000  0.5555150000000 1.0
C      1  0.4465880000000  0.4871490000000  0.5690770000000 1.0
C      1  0.4668840000000  0.4871490000000  0.4192060000000 1.0
C      1  0.5865280000000  0.4871490000000  0.5117180000000 1.0
C      1  0.5534120000000  0.5128510000000  0.5690770000000 1.0
C      1  0.5331160000000  0.5128510000000  0.4192060000000 1.0
C      1  0.4134720000000  0.5128510000000  0.5117180000000 1.0
END
