TITL C-3985254-1270-121 0.0038044759463915 125000 -328.575359619357 0 0 60 (D2d) n - 1
REM
REM in /home/nfs/bkarasulu/CARBON/AIRSS/Generating-Clusters/TERSOFF/Higher-Symm/Only-C60
REM
REM
REM
REM
REM
REM ./C.cell (28575a23ae977d3b5fae324c64b13b57)
REM
REM compiler GCC version 9.2.1 20190827 (Red Hat 9.2.1-1)
REM options -cpp -mtune=generic -march=x86-64 -g -O0 -fpre-include=/usr/include/finclude/math-vector-fortran.h
REM seed 2131737811 1769156121 512967 1159506488 937466206 -2015740068 -637510953 933937075 862464888 -461261525 1960970560 1852129053 -1895517410 839005908 -906415589 -1745730410 1225943486 1504438091 1018764087 -758910769 -578182368 1671460582 554517869 -410135692 2033416928 619868112 1812034507 2004454757 -879017051 1142208974 -1349948780 1748007586 -135134933
REM
CELL 1.54180   50.00000   50.00000   50.00000   90.00000   90.00000   90.00000
LATT -1
SFAC C  
C      1  0.5612330000000  0.5382560000000  0.5024820000000 1.0
C      1  0.5612320000000  0.4617440000000  0.4975180000000 1.0
C      1  0.4387680000000  0.5382560000000  0.4975180000000 1.0
C      1  0.4387670000000  0.4617440000000  0.5024820000000 1.0
C      1  0.5612320000000  0.5024820000000  0.5382560000000 1.0
C      1  0.5612330000000  0.4975180000000  0.4617440000000 1.0
C      1  0.4387670000000  0.4975180000000  0.5382560000000 1.0
C      1  0.4387680000000  0.5024820000000  0.4617440000000 1.0
C      1  0.5016420000000  0.5306140000000  0.4472680000000 1.0
C      1  0.5016420000000  0.4693860000000  0.5527320000000 1.0
C      1  0.4983580000000  0.5306140000000  0.5527320000000 1.0
C      1  0.4983580000000  0.4693860000000  0.4472680000000 1.0
C      1  0.5016420000000  0.4472680000000  0.5306140000000 1.0
C      1  0.5016420000000  0.5527320000000  0.4693860000000 1.0
C      1  0.4983580000000  0.5527320000000  0.5306140000000 1.0
C      1  0.4983580000000  0.4472680000000  0.4693860000000 1.0
C      1  0.5258720000000  0.5594040000000  0.4851110000000 1.0
C      1  0.5258710000000  0.4405960000000  0.5148900000000 1.0
C      1  0.4741280000000  0.5594040000000  0.5148890000000 1.0
C      1  0.4741290000000  0.4405960000000  0.4851110000000 1.0
C      1  0.5258720000000  0.4851110000000  0.5594040000000 1.0
C      1  0.5258710000000  0.5148890000000  0.4405960000000 1.0
C      1  0.4741290000000  0.5148890000000  0.5594040000000 1.0
C      1  0.4741280000000  0.4851110000000  0.4405970000000 1.0
C      1  0.4138590000000  0.4777500000000  0.5002660000000 1.0
C      1  0.4138590000000  0.5222500000000  0.4997340000000 1.0
C      1  0.5861410000000  0.4777500000000  0.4997340000000 1.0
C      1  0.5861410000000  0.5222500000000  0.5002660000000 1.0
C      1  0.4138590000000  0.5002660000000  0.4777500000000 1.0
C      1  0.4138590000000  0.4997340000000  0.5222500000000 1.0
C      1  0.5861410000000  0.4997340000000  0.4777500000000 1.0
C      1  0.5861410000000  0.5002660000000  0.5222500000000 1.0
C      1  0.4752630000000  0.5575650000000  0.4819610000000 1.0
C      1  0.4752620000000  0.4424360000000  0.5180390000000 1.0
C      1  0.5247380000000  0.5575640000000  0.5180390000000 1.0
C      1  0.5247380000000  0.4424360000000  0.4819610000000 1.0
C      1  0.4752620000000  0.4819610000000  0.5575640000000 1.0
C      1  0.4752620000000  0.5180390000000  0.4424360000000 1.0
C      1  0.5247380000000  0.5180390000000  0.5575640000000 1.0
C      1  0.5247380000000  0.4819610000000  0.4424360000000 1.0
C      1  0.4483630000000  0.4735260000000  0.4515570000000 1.0
C      1  0.4483630000000  0.5264740000000  0.5484430000000 1.0
C      1  0.5516370000000  0.4735260000000  0.5484430000000 1.0
C      1  0.5516370000000  0.5264740000000  0.4515570000000 1.0
C      1  0.4483630000000  0.4515570000000  0.4735260000000 1.0
C      1  0.4483630000000  0.5484430000000  0.5264740000000 1.0
C      1  0.5516370000000  0.5484430000000  0.4735260000000 1.0
C      1  0.5516370000000  0.4515570000000  0.5264740000000 1.0
C      1  0.5341160000000  0.4999740000000  0.5210150000000 1.0
C      1  0.5341150000000  0.5000250000000  0.4789850000000 1.0
C      1  0.4658850000000  0.4999750000000  0.4789850000000 1.0
C      1  0.4658840000000  0.5000250000000  0.5210150000000 1.0
C      1  0.5341160000000  0.5210160000000  0.4999750000000 1.0
C      1  0.5341160000000  0.4789840000000  0.5000250000000 1.0
C      1  0.4658850000000  0.4789840000000  0.4999750000000 1.0
C      1  0.4658840000000  0.5210150000000  0.5000250000000 1.0
C      1  0.5476020000000  0.5365880000000  0.5365880000000 1.0
C      1  0.5476020000000  0.4634110000000  0.4634120000000 1.0
C      1  0.4523980000000  0.5365880000000  0.4634120000000 1.0
C      1  0.4523980000000  0.4634110000000  0.5365880000000 1.0
END
