TITL C-3985251-913-36 4.36494982744987e-06 125000 -329.895886155708 0 0 60 (C1) n - 1
REM
REM in /home/nfs/bkarasulu/CARBON/AIRSS/Generating-Clusters/TERSOFF/Higher-Symm/Only-C60
REM
REM
REM
REM
REM
REM ./C.cell (28575a23ae977d3b5fae324c64b13b57)
REM
REM compiler GCC version 9.2.1 20190827 (Red Hat 9.2.1-1)
REM options -cpp -mtune=generic -march=x86-64 -g -O0 -fpre-include=/usr/include/finclude/math-vector-fortran.h
REM seed 1694415249 -1111178990 -1789833674 -2083775753 1034006181 -1527256312 1952088587 -242822599 1480721130 -237523343 -371001448 -1804571392 -1028231184 358339197 -796721579 1384527169 1970128206 -1633551708 1753125832 -165078412 1385990000 -489996054 102658310 1699845671 -192786039 2049670741 405358859 -778082347 -1002997013 10653472 476637551 -1369907611 1890040550
REM
CELL 1.54180   50.00000   50.00000   50.00000   90.00000   90.00000   90.00000
LATT -1
SFAC C  
C      1  0.4510130000000  0.4564630000000  0.4675980000000 1.0
C      1  0.5400540000000  0.4697160000000  0.5481960000000 1.0
C      1  0.5384680000000  0.4798630000000  0.4401650000000 1.0
C      1  0.4621640000000  0.5496290000000  0.4891040000000 1.0
C      1  0.5647080000000  0.5299060000000  0.4677340000000 1.0
C      1  0.4871110000000  0.5372870000000  0.4964870000000 1.0
C      1  0.4436420000000  0.4783990000000  0.5330610000000 1.0
C      1  0.5304580000000  0.5089720000000  0.4999020000000 1.0
C      1  0.5115530000000  0.5069800000000  0.5236120000000 1.0
C      1  0.5772930000000  0.5042070000000  0.4608760000000 1.0
C      1  0.5394680000000  0.4793770000000  0.5028220000000 1.0
C      1  0.4472440000000  0.5472480000000  0.5165430000000 1.0
C      1  0.4487790000000  0.5333090000000  0.4664730000000 1.0
C      1  0.5059550000000  0.4389520000000  0.5209510000000 1.0
C      1  0.4759480000000  0.5645310000000  0.5311720000000 1.0
C      1  0.5528730000000  0.5270960000000  0.5182440000000 1.0
C      1  0.4980590000000  0.4768550000000  0.4666210000000 1.0
C      1  0.4338630000000  0.5111490000000  0.4472150000000 1.0
C      1  0.5188250000000  0.4903100000000  0.5509240000000 1.0
C      1  0.5669940000000  0.5404220000000  0.4952610000000 1.0
C      1  0.4204050000000  0.4996050000000  0.4728420000000 1.0
C      1  0.4927390000000  0.5243220000000  0.5710720000000 1.0
C      1  0.5033900000000  0.4446200000000  0.4669510000000 1.0
C      1  0.4337340000000  0.5198450000000  0.4970980000000 1.0
C      1  0.4628320000000  0.5250660000000  0.5368340000000 1.0
C      1  0.5098480000000  0.5066950000000  0.4706730000000 1.0
C      1  0.5066470000000  0.4687550000000  0.5069250000000 1.0
C      1  0.4942640000000  0.5099920000000  0.4277090000000 1.0
C      1  0.5113040000000  0.5532130000000  0.4944980000000 1.0
C      1  0.4687410000000  0.4809670000000  0.4663660000000 1.0
C      1  0.4759260000000  0.4975390000000  0.5701810000000 1.0
C      1  0.5619710000000  0.4791650000000  0.4580350000000 1.0
C      1  0.4518530000000  0.5005440000000  0.5515920000000 1.0
C      1  0.5198260000000  0.4327100000000  0.4893830000000 1.0
C      1  0.4444690000000  0.4882740000000  0.5053360000000 1.0
C      1  0.4954370000000  0.5541660000000  0.4510750000000 1.0
C      1  0.5217660000000  0.4542640000000  0.4403710000000 1.0
C      1  0.4768930000000  0.4884090000000  0.5007880000000 1.0
C      1  0.5044340000000  0.5700480000000  0.5192800000000 1.0
C      1  0.4296690000000  0.4710140000000  0.4833540000000 1.0
C      1  0.5208620000000  0.5562750000000  0.4653790000000 1.0
C      1  0.5370960000000  0.5399100000000  0.5425110000000 1.0
C      1  0.5225340000000  0.5203760000000  0.5618590000000 1.0
C      1  0.4729650000000  0.4396830000000  0.4795960000000 1.0
C      1  0.5571570000000  0.4791930000000  0.5272640000000 1.0
C      1  0.5390530000000  0.5344260000000  0.4544020000000 1.0
C      1  0.4760180000000  0.5460290000000  0.5574880000000 1.0
C      1  0.4827900000000  0.5270710000000  0.4560740000000 1.0
C      1  0.5286720000000  0.4430100000000  0.5427470000000 1.0
C      1  0.4857430000000  0.4528210000000  0.5464380000000 1.0
C      1  0.4843470000000  0.5149100000000  0.5156710000000 1.0
C      1  0.4571020000000  0.4517960000000  0.5350710000000 1.0
C      1  0.4634030000000  0.5006600000000  0.4444960000000 1.0
C      1  0.5242000000000  0.5074370000000  0.4415690000000 1.0
C      1  0.5258670000000  0.5663720000000  0.5386130000000 1.0
C      1  0.5693470000000  0.5051310000000  0.5298780000000 1.0
C      1  0.4946320000000  0.4769960000000  0.5608610000000 1.0
C      1  0.5482590000000  0.4370310000000  0.4841610000000 1.0
C      1  0.5554360000000  0.4650830000000  0.4826990000000 1.0
C      1  0.4738980000000  0.4359090000000  0.5098980000000 1.0
END
