TITL C-3985259-1859-821 2.54296944519439e-06 125000 -305.419706159751 0 0 60 (C1) n - 1
REM
REM in /home/nfs/bkarasulu/CARBON/AIRSS/Generating-Clusters/TERSOFF/Higher-Symm/Only-C60
REM
REM
REM
REM
REM
REM ./C.cell (28575a23ae977d3b5fae324c64b13b57)
REM
REM compiler GCC version 9.2.1 20190827 (Red Hat 9.2.1-1)
REM options -cpp -mtune=generic -march=x86-64 -g -O0 -fpre-include=/usr/include/finclude/math-vector-fortran.h
REM seed 1035366559 -2063224783 1888934732 -1756594234 -773173881 -1134047225 531004575 -1029817518 545330655 38121242 2146159556 -248799992 1136943630 1796718876 -293359749 1009828023 652283269 -1172421347 579491039 -1724232370 1876083571 -1890825488 -1310974555 1557778246 -1777519844 -456643033 -1479283732 1301135651 271356784 1778792834 160372774 1357526818 -181806732
REM
CELL 1.54180   50.00000   50.00000   50.00000   90.00000   90.00000   90.00000
LATT -1
SFAC C  
C      1  0.5449970000000  0.5424560000000  0.5508170000000 1.0
C      1  0.5141750000000  0.4381170000000  0.5516520000000 1.0
C      1  0.4399990000000  0.5187110000000  0.5506760000000 1.0
C      1  0.5458120000000  0.4434090000000  0.4818410000000 1.0
C      1  0.4285880000000  0.4892000000000  0.4821650000000 1.0
C      1  0.5237300000000  0.5651110000000  0.4796760000000 1.0
C      1  0.5173130000000  0.5588160000000  0.5104510000000 1.0
C      1  0.5422990000000  0.4548450000000  0.5111240000000 1.0
C      1  0.4416800000000  0.4868920000000  0.5106160000000 1.0
C      1  0.5101800000000  0.5449340000000  0.4416000000000 1.0
C      1  0.5290690000000  0.4774100000000  0.4476660000000 1.0
C      1  0.4650860000000  0.4877150000000  0.4474700000000 1.0
C      1  0.5432320000000  0.4425910000000  0.5418260000000 1.0
C      1  0.4291870000000  0.4914100000000  0.5404610000000 1.0
C      1  0.5261540000000  0.5649200000000  0.5416510000000 1.0
C      1  0.5310160000000  0.5161960000000  0.5618880000000 1.0
C      1  0.4986830000000  0.4646430000000  0.5615050000000 1.0
C      1  0.4694280000000  0.5176690000000  0.5619730000000 1.0
C      1  0.5717380000000  0.4876740000000  0.4821050000000 1.0
C      1  0.4537350000000  0.4445600000000  0.4826430000000 1.0
C      1  0.4748180000000  0.5678510000000  0.4810950000000 1.0
C      1  0.5493530000000  0.4687750000000  0.5546580000000 1.0
C      1  0.4495490000000  0.4732850000000  0.5523620000000 1.0
C      1  0.5011040000000  0.5586480000000  0.5564260000000 1.0
C      1  0.4886250000000  0.4197360000000  0.5074750000000 1.0
C      1  0.4373560000000  0.5500270000000  0.5076530000000 1.0
C      1  0.5726050000000  0.5311100000000  0.5054970000000 1.0
C      1  0.4769250000000  0.4986930000000  0.4787770000000 1.0
C      1  0.5154550000000  0.5187920000000  0.4813160000000 1.0
C      1  0.5140780000000  0.4769310000000  0.4804840000000 1.0
C      1  0.4520790000000  0.5329120000000  0.5268530000000 1.0
C      1  0.5530390000000  0.5249250000000  0.5265280000000 1.0
C      1  0.4952720000000  0.4402870000000  0.5274660000000 1.0
C      1  0.5586790000000  0.4680890000000  0.4625820000000 1.0
C      1  0.4428200000000  0.4650770000000  0.4621560000000 1.0
C      1  0.4954220000000  0.5703970000000  0.4579980000000 1.0
C      1  0.5186350000000  0.5247100000000  0.5226780000000 1.0
C      1  0.5108340000000  0.4691610000000  0.5215620000000 1.0
C      1  0.4706180000000  0.5067940000000  0.5194720000000 1.0
C      1  0.4771020000000  0.4256450000000  0.4809130000000 1.0
C      1  0.4469950000000  0.5570630000000  0.4805240000000 1.0
C      1  0.5733850000000  0.5175820000000  0.4792130000000 1.0
C      1  0.5572050000000  0.5305920000000  0.4588220000000 1.0
C      1  0.4969240000000  0.4295440000000  0.4600900000000 1.0
C      1  0.4405370000000  0.5370960000000  0.4606270000000 1.0
C      1  0.4607100000000  0.4631020000000  0.5049020000000 1.0
C      1  0.4883140000000  0.5520920000000  0.5017390000000 1.0
C      1  0.5548180000000  0.4832170000000  0.5065630000000 1.0
C      1  0.5025340000000  0.5237430000000  0.4216260000000 1.0
C      1  0.5157710000000  0.4900600000000  0.4238560000000 1.0
C      1  0.4817030000000  0.4943280000000  0.4240250000000 1.0
C      1  0.5295240000000  0.5382500000000  0.4640930000000 1.0
C      1  0.5198030000000  0.4472300000000  0.4637060000000 1.0
C      1  0.4456990000000  0.5090390000000  0.4652370000000 1.0
C      1  0.4875870000000  0.5230940000000  0.4945880000000 1.0
C      1  0.5299530000000  0.4994640000000  0.5000810000000 1.0
C      1  0.4876760000000  0.4751240000000  0.4979990000000 1.0
C      1  0.4772240000000  0.4805100000000  0.5440310000000 1.0
C      1  0.4939800000000  0.5307450000000  0.5484710000000 1.0
C      1  0.5291930000000  0.4890000000000  0.5460510000000 1.0
END
