TITL C-3985251-913-278 -0.000165764536750946 125000 -337.176543511852 0 0 60 (C1) n - 1
REM
REM in /home/nfs/bkarasulu/CARBON/AIRSS/Generating-Clusters/TERSOFF/Higher-Symm/Only-C60
REM
REM
REM
REM
REM
REM ./C.cell (28575a23ae977d3b5fae324c64b13b57)
REM
REM compiler GCC version 9.2.1 20190827 (Red Hat 9.2.1-1)
REM options -cpp -mtune=generic -march=x86-64 -g -O0 -fpre-include=/usr/include/finclude/math-vector-fortran.h
REM seed 667174395 54930181 1341644445 2109448839 1908925914 321859830 2144749174 2104626932 1842588157 1252695479 -374058353 -1065474357 -978579873 -1543991477 1028232923 -545245967 -193911462 -291042400 -2065224274 -811738932 -415316446 1112226131 -1344345905 1525599910 -1943583571 1910181148 546839079 595592514 1131625182 2133302877 1275849768 881958447 1471123012
REM
CELL 1.54180   50.00000   50.00000   50.00000   90.00000   90.00000   90.00000
LATT -1
SFAC C  
C      1  0.5352550000000  0.5451080000000  0.4495570000000 1.0
C      1  0.4432310000000  0.5098240000000  0.4462560000000 1.0
C      1  0.5212200000000  0.4461560000000  0.4497290000000 1.0
C      1  0.5026490000000  0.4801770000000  0.4737160000000 1.0
C      1  0.5149290000000  0.5113570000000  0.4739520000000 1.0
C      1  0.4809800000000  0.5061280000000  0.4739890000000 1.0
C      1  0.5524060000000  0.4952390000000  0.4465840000000 1.0
C      1  0.4781430000000  0.5480590000000  0.4474520000000 1.0
C      1  0.4698080000000  0.4568590000000  0.4447540000000 1.0
C      1  0.5406400000000  0.4780550000000  0.5388880000000 1.0
C      1  0.4994390000000  0.5415860000000  0.5415090000000 1.0
C      1  0.4702830000000  0.4822470000000  0.5492580000000 1.0
C      1  0.4702290000000  0.4343460000000  0.4945150000000 1.0
C      1  0.5749350000000  0.5107270000000  0.4927390000000 1.0
C      1  0.4538430000000  0.5577140000000  0.4939300000000 1.0
C      1  0.5701350000000  0.4903690000000  0.4726470000000 1.0
C      1  0.4731480000000  0.5647790000000  0.4737080000000 1.0
C      1  0.4562200000000  0.4407760000000  0.4696010000000 1.0
C      1  0.5112210000000  0.5528550000000  0.5087240000000 1.0
C      1  0.4410140000000  0.4816270000000  0.4946830000000 1.0
C      1  0.5411830000000  0.4627040000000  0.5060830000000 1.0
C      1  0.4993050000000  0.4870810000000  0.5701340000000 1.0
C      1  0.5252200000000  0.5006730000000  0.5607130000000 1.0
C      1  0.4865010000000  0.5175210000000  0.5652190000000 1.0
C      1  0.4294240000000  0.5269330000000  0.5227110000000 1.0
C      1  0.5083660000000  0.4248140000000  0.5230540000000 1.0
C      1  0.5593010000000  0.5470020000000  0.5216830000000 1.0
C      1  0.4465910000000  0.5317420000000  0.5461570000000 1.0
C      1  0.4989200000000  0.4400690000000  0.5463360000000 1.0
C      1  0.5542490000000  0.5299590000000  0.5448880000000 1.0
C      1  0.4981210000000  0.4651770000000  0.4486060000000 1.0
C      1  0.5306840000000  0.5155320000000  0.4493440000000 1.0
C      1  0.4708090000000  0.5195210000000  0.4497290000000 1.0
C      1  0.4713850000000  0.4513750000000  0.5430820000000 1.0
C      1  0.5638750000000  0.5015770000000  0.5401180000000 1.0
C      1  0.4678080000000  0.5521410000000  0.5413580000000 1.0
C      1  0.5073800000000  0.4800740000000  0.5237540000000 1.0
C      1  0.5102630000000  0.5135710000000  0.5232350000000 1.0
C      1  0.4782370000000  0.4999010000000  0.5225210000000 1.0
C      1  0.5016090000000  0.5696080000000  0.4848420000000 1.0
C      1  0.4379490000000  0.4651130000000  0.4708360000000 1.0
C      1  0.5603960000000  0.4632120000000  0.4830830000000 1.0
C      1  0.4421570000000  0.4799700000000  0.4437230000000 1.0
C      1  0.5473070000000  0.4607380000000  0.4534610000000 1.0
C      1  0.5100030000000  0.5601320000000  0.4541530000000 1.0
C      1  0.5253680000000  0.5253140000000  0.4980940000000 1.0
C      1  0.4613560000000  0.5041220000000  0.4976380000000 1.0
C      1  0.5104120000000  0.4635920000000  0.4975190000000 1.0
C      1  0.5004500000000  0.4341970000000  0.4956230000000 1.0
C      1  0.5562020000000  0.5344450000000  0.4945560000000 1.0
C      1  0.4412330000000  0.5298160000000  0.4948120000000 1.0
C      1  0.4273780000000  0.5221350000000  0.4686010000000 1.0
C      1  0.5146760000000  0.4255670000000  0.4703460000000 1.0
C      1  0.5559820000000  0.5508610000000  0.4696770000000 1.0
C      1  0.4596900000000  0.5693560000000  0.5197780000000 1.0
C      1  0.4569930000000  0.4403920000000  0.5200880000000 1.0
C      1  0.5832560000000  0.5008610000000  0.5186580000000 1.0
C      1  0.4559040000000  0.5094590000000  0.5627970000000 1.0
C      1  0.5169020000000  0.4596090000000  0.5590950000000 1.0
C      1  0.5274230000000  0.5301470000000  0.5577050000000 1.0
END
