TITL C-3985251-913-136 -2.5146708726805e-06 125000 -336.807000306155 0 0 60 (C5) n - 1
REM
REM in /home/nfs/bkarasulu/CARBON/AIRSS/Generating-Clusters/TERSOFF/Higher-Symm/Only-C60
REM
REM
REM
REM
REM
REM ./C.cell (28575a23ae977d3b5fae324c64b13b57)
REM
REM compiler GCC version 9.2.1 20190827 (Red Hat 9.2.1-1)
REM options -cpp -mtune=generic -march=x86-64 -g -O0 -fpre-include=/usr/include/finclude/math-vector-fortran.h
REM seed 831988816 -1154074951 -2092555845 -924447423 -1104621801 470393267 1893212809 432848871 -1639264306 -845980432 1811044438 1690804632 1077792546 142330024 1056043975 -725847598 -1273255305 81980101 900795787 -1095433848 1925717885 -1786855127 1020659938 2030468582 -1211678688 105614990 1689156792 81502473 1353519506 1377839824 -649742020 -680024082 167951521
REM
CELL 1.54180   50.00000   50.00000   50.00000   90.00000   90.00000   90.00000
LATT -1
SFAC C  
C      1  0.4907970000000  0.5151810000000  0.4291860000000 1.0
C      1  0.5645040000000  0.5151820000000  0.4693650000000 1.0
C      1  0.5490690000000  0.5151800000000  0.5518810000000 1.0
C      1  0.4658220000000  0.5151810000000  0.5626990000000 1.0
C      1  0.4298080000000  0.5151810000000  0.4868700000000 1.0
C      1  0.4965150000000  0.4633700000000  0.5575460000000 1.0
C      1  0.4441940000000  0.4633710000000  0.5144680000000 1.0
C      1  0.4689950000000  0.4633700000000  0.4513960000000 1.0
C      1  0.5366440000000  0.4633710000000  0.4554930000000 1.0
C      1  0.5536520000000  0.4633700000000  0.5210970000000 1.0
C      1  0.5076810000000  0.5454630000000  0.5485230000000 1.0
C      1  0.4562280000000  0.5454630000000  0.5222980000000 1.0
C      1  0.4652660000000  0.5454630000000  0.4652590000000 1.0
C      1  0.5223070000000  0.5454630000000  0.4562310000000 1.0
C      1  0.5485190000000  0.5454630000000  0.5076900000000 1.0
C      1  0.5702830000000  0.5382240000000  0.4862430000000 1.0
C      1  0.5348030000000  0.5382230000000  0.5625940000000 1.0
C      1  0.4512270000000  0.5382240000000  0.5524410000000 1.0
C      1  0.4350530000000  0.5382240000000  0.4698180000000 1.0
C      1  0.5086350000000  0.5382230000000  0.4289050000000 1.0
C      1  0.4723070000000  0.5155280000000  0.4530560000000 1.0
C      1  0.5360890000000  0.5155280000000  0.4591560000000 1.0
C      1  0.5499970000000  0.5155280000000  0.5217010000000 1.0
C      1  0.4948110000000  0.5155280000000  0.5542560000000 1.0
C      1  0.4467960000000  0.5155280000000  0.5118310000000 1.0
C      1  0.4972790000000  0.5032160000000  0.5265580000000 1.0
C      1  0.4739010000000  0.5032160000000  0.5056200000000 1.0
C      1  0.4865900000000  0.5032160000000  0.4769150000000 1.0
C      1  0.5178120000000  0.5032160000000  0.4801130000000 1.0
C      1  0.5244180000000  0.5032150000000  0.5107950000000 1.0
C      1  0.5315950000000  0.4907440000000  0.4402780000000 1.0
C      1  0.5665620000000  0.4907440000000  0.5115930000000 1.0
C      1  0.5095430000000  0.4907430000000  0.5668870000000 1.0
C      1  0.4393360000000  0.4907440000000  0.5297450000000 1.0
C      1  0.4529650000000  0.4907440000000  0.4514970000000 1.0
C      1  0.5723020000000  0.4895920000000  0.4821400000000 1.0
C      1  0.5393290000000  0.4895910000000  0.5632450000000 1.0
C      1  0.4520040000000  0.4895920000000  0.5569470000000 1.0
C      1  0.4310080000000  0.4895920000000  0.4719510000000 1.0
C      1  0.5053570000000  0.4895920000000  0.4257170000000 1.0
C      1  0.5221760000000  0.4459410000000  0.5589170000000 1.0
C      1  0.4508180000000  0.4459420000000  0.5392970000000 1.0
C      1  0.4474280000000  0.4459420000000  0.4653690000000 1.0
C      1  0.5166900000000  0.4459420000000  0.4393000000000 1.0
C      1  0.5628880000000  0.4459420000000  0.4971150000000 1.0
C      1  0.5285510000000  0.5602670000000  0.5274030000000 1.0
C      1  0.4827640000000  0.5602670000000  0.5356200000000 1.0
C      1  0.4607970000000  0.5602670000000  0.4946130000000 1.0
C      1  0.4930080000000  0.5602680000000  0.4610500000000 1.0
C      1  0.5348810000000  0.5602670000000  0.4813150000000 1.0
C      1  0.4657000000000  0.4618890000000  0.5607450000000 1.0
C      1  0.4316290000000  0.4618900000000  0.4861500000000 1.0
C      1  0.4920440000000  0.4618890000000  0.4306960000000 1.0
C      1  0.5634540000000  0.4618900000000  0.4710170000000 1.0
C      1  0.5471720000000  0.4618880000000  0.5513920000000 1.0
C      1  0.4855610000000  0.4705840000000  0.4767240000000 1.0
C      1  0.5176740000000  0.4705840000000  0.4790750000000 1.0
C      1  0.5253620000000  0.4705840000000  0.5103430000000 1.0
C      1  0.4980000000000  0.4705840000000  0.5273170000000 1.0
C      1  0.4734020000000  0.4705840000000  0.5065400000000 1.0
END
