TITL C-3985250-725-128 5.09896896816418e-06 125000 -305.814675988439 0 0 60 (C5) n - 1
REM
REM in /home/nfs/bkarasulu/CARBON/AIRSS/Generating-Clusters/TERSOFF/Higher-Symm/Only-C60
REM
REM
REM
REM
REM
REM ./C.cell (28575a23ae977d3b5fae324c64b13b57)
REM
REM compiler GCC version 9.2.1 20190827 (Red Hat 9.2.1-1)
REM options -cpp -mtune=generic -march=x86-64 -g -O0 -fpre-include=/usr/include/finclude/math-vector-fortran.h
REM seed -780670636 432449024 934342028 -1701888079 209235598 1031594681 980717107 -1646430119 1259904810 1723308427 -130789420 -611638053 -1782654551 115340193 -767095071 -1785261650 371813050 -821093921 -104250373 1978097005 -1761933025 -330746772 -787756204 1091545690 -1003297144 -2078118343 1017421533 19581369 -189208131 -654652300 -482659973 1867121915 -764710488
REM
CELL 1.54180   50.00000   50.00000   50.00000   90.00000   90.00000   90.00000
LATT -1
SFAC C  
C      1  0.5377520000000  0.4401890000000  0.5139380000000 1.0
C      1  0.4547820000000  0.4456120000000  0.5139370000000 1.0
C      1  0.4343010000000  0.5261980000000  0.5139380000000 1.0
C      1  0.5046140000000  0.5705780000000  0.5139400000000 1.0
C      1  0.5685500000000  0.5174220000000  0.5139400000000 1.0
C      1  0.4807690000000  0.5225220000000  0.5262950000000 1.0
C      1  0.5154770000000  0.5252490000000  0.5262950000000 1.0
C      1  0.5287960000000  0.4930820000000  0.5262950000000 1.0
C      1  0.5023190000000  0.4704750000000  0.5262940000000 1.0
C      1  0.4726370000000  0.4886700000000  0.5262940000000 1.0
C      1  0.4949720000000  0.4738250000000  0.4923530000000 1.0
C      1  0.4735520000000  0.4966940000000  0.4923530000000 1.0
C      1  0.4886830000000  0.5241320000000  0.4923540000000 1.0
C      1  0.5194530000000  0.5182210000000  0.4923540000000 1.0
C      1  0.5233400000000  0.4871300000000  0.4923540000000 1.0
C      1  0.4953350000000  0.5743240000000  0.4856940000000 1.0
C      1  0.5692450000000  0.5274050000000  0.4856950000000 1.0
C      1  0.5474610000000  0.4426140000000  0.4856930000000 1.0
C      1  0.4600880000000  0.4371280000000  0.4856910000000 1.0
C      1  0.4278730000000  0.5185300000000  0.4856920000000 1.0
C      1  0.5131820000000  0.5278280000000  0.5623450000000 1.0
C      1  0.5305400000000  0.4960610000000  0.5623450000000 1.0
C      1  0.5056920000000  0.4697360000000  0.5623440000000 1.0
C      1  0.4729770000000  0.4852330000000  0.5623440000000 1.0
C      1  0.4776050000000  0.5211360000000  0.5623440000000 1.0
C      1  0.4905280000000  0.4763520000000  0.4306810000000 1.0
C      1  0.4745820000000  0.5017030000000  0.4306810000000 1.0
C      1  0.4937640000000  0.5247020000000  0.4306820000000 1.0
C      1  0.5215660000000  0.5135650000000  0.4306820000000 1.0
C      1  0.5195650000000  0.4836840000000  0.4306820000000 1.0
C      1  0.4819330000000  0.5640680000000  0.5323310000000 1.0
C      1  0.5553500000000  0.5369800000000  0.5323320000000 1.0
C      1  0.5522740000000  0.4587860000000  0.5323300000000 1.0
C      1  0.4769570000000  0.4375470000000  0.5323290000000 1.0
C      1  0.4334840000000  0.5026160000000  0.5323290000000 1.0
C      1  0.5439490000000  0.4729330000000  0.4765610000000 1.0
C      1  0.4878390000000  0.4498390000000  0.4765590000000 1.0
C      1  0.4485350000000  0.4960660000000  0.4765600000000 1.0
C      1  0.4803550000000  0.5477310000000  0.4765610000000 1.0
C      1  0.5393240000000  0.5334330000000  0.4765620000000 1.0
C      1  0.4887720000000  0.5539140000000  0.5591160000000 1.0
C      1  0.5478060000000  0.5273370000000  0.5591160000000 1.0
C      1  0.5407730000000  0.4629800000000  0.5591150000000 1.0
C      1  0.4773910000000  0.4497820000000  0.5591140000000 1.0
C      1  0.4452530000000  0.5059820000000  0.5591140000000 1.0
C      1  0.5609060000000  0.4872140000000  0.5192150000000 1.0
C      1  0.5066600000000  0.4381240000000  0.5192130000000 1.0
C      1  0.4432100000000  0.4745440000000  0.5192130000000 1.0
C      1  0.4582410000000  0.5461430000000  0.5192140000000 1.0
C      1  0.5309810000000  0.5539730000000  0.5192160000000 1.0
C      1  0.5705090000000  0.5145960000000  0.4556990000000 1.0
C      1  0.5356700000000  0.4374540000000  0.4556980000000 1.0
C      1  0.4515380000000  0.4467490000000  0.4556960000000 1.0
C      1  0.4343800000000  0.5296360000000  0.4556980000000 1.0
C      1  0.5079080000000  0.5715680000000  0.4556990000000 1.0
C      1  0.5388710000000  0.4680990000000  0.4457760000000 1.0
C      1  0.4816720000000  0.4531750000000  0.4457750000000 1.0
C      1  0.4498030000000  0.5029630000000  0.4457760000000 1.0
C      1  0.4873060000000  0.5486580000000  0.4457770000000 1.0
C      1  0.5423530000000  0.5271100000000  0.4457780000000 1.0
END
