TITL C-3985257-5396-262 2.41355885448353e-08 125000 -375.688002586991 0 0 60 (T23) n - 1
REM
REM in /home/nfs/bkarasulu/CARBON/AIRSS/Generating-Clusters/TERSOFF/Higher-Symm/Only-C60
REM
REM
REM
REM
REM
REM ./C.cell (28575a23ae977d3b5fae324c64b13b57)
REM
REM compiler GCC version 9.2.1 20190827 (Red Hat 9.2.1-1)
REM options -cpp -mtune=generic -march=x86-64 -g -O0 -fpre-include=/usr/include/finclude/math-vector-fortran.h
REM seed 631022741 1359746321 1741670281 287139980 837510730 -1742240497 502923623 950290857 -1864693943 111797342 -515118524 328387837 211802017 -1331369399 2106953140 -180125533 -591160903 1324226988 788700512 231491740 1862033239 -173549581 2098526436 798005422 -1801262800 2056003693 1368761195 283471811 -1434485523 -1995042944 -1110387080 27948352 -414389762
REM
CELL 1.54180   50.00000   50.00000   50.00000   90.00000   90.00000   90.00000
LATT -1
SFAC C  
C      1  0.5348080000000  0.5625690000000  0.5164560000000 1.0
C      1  0.5625690000000  0.5164560000000  0.5348080000000 1.0
C      1  0.5164560000000  0.5348080000000  0.5625690000000 1.0
C      1  0.5348080000000  0.4374310000000  0.4835440000000 1.0
C      1  0.4651920000000  0.5625690000000  0.4835440000000 1.0
C      1  0.4651920000000  0.4374310000000  0.5164560000000 1.0
C      1  0.5625690000000  0.4835440000000  0.4651920000000 1.0
C      1  0.4374310000000  0.5164560000000  0.4651920000000 1.0
C      1  0.4374310000000  0.4835440000000  0.5348080000000 1.0
C      1  0.5164560000000  0.4651920000000  0.4374310000000 1.0
C      1  0.4835440000000  0.5348080000000  0.4374310000000 1.0
C      1  0.4835440000000  0.4651920000000  0.5625690000000 1.0
C      1  0.4478390000000  0.4389160000000  0.4929960000000 1.0
C      1  0.4389160000000  0.4929960000000  0.4478390000000 1.0
C      1  0.4929960000000  0.4478390000000  0.4389160000000 1.0
C      1  0.4478390000000  0.5610840000000  0.5070040000000 1.0
C      1  0.5521610000000  0.4389160000000  0.5070040000000 1.0
C      1  0.5521610000000  0.5610840000000  0.4929960000000 1.0
C      1  0.4389160000000  0.5070040000000  0.5521610000000 1.0
C      1  0.5610840000000  0.4929960000000  0.5521610000000 1.0
C      1  0.5610840000000  0.5070040000000  0.4478390000000 1.0
C      1  0.4929960000000  0.5521610000000  0.5610840000000 1.0
C      1  0.5070040000000  0.4478390000000  0.5610840000000 1.0
C      1  0.5070040000000  0.5521610000000  0.4389160000000 1.0
C      1  0.5120380000000  0.4316100000000  0.5371360000000 1.0
C      1  0.4316100000000  0.5371360000000  0.5120380000000 1.0
C      1  0.5371360000000  0.5120380000000  0.4316100000000 1.0
C      1  0.5120380000000  0.5683900000000  0.4628640000000 1.0
C      1  0.4879620000000  0.4316100000000  0.4628640000000 1.0
C      1  0.4879620000000  0.5683900000000  0.5371360000000 1.0
C      1  0.4316100000000  0.4628640000000  0.4879620000000 1.0
C      1  0.5683900000000  0.5371360000000  0.4879620000000 1.0
C      1  0.5683900000000  0.4628640000000  0.5120380000000 1.0
C      1  0.5371360000000  0.4879620000000  0.5683900000000 1.0
C      1  0.4628640000000  0.5120380000000  0.5683900000000 1.0
C      1  0.4628640000000  0.4879620000000  0.4316100000000 1.0
C      1  0.5737650000000  0.4697670000000  0.5398810000000 1.0
C      1  0.4697670000000  0.5398810000000  0.5737650000000 1.0
C      1  0.5398810000000  0.5737650000000  0.4697670000000 1.0
C      1  0.5737650000000  0.5302330000000  0.4601190000000 1.0
C      1  0.4262350000000  0.4697670000000  0.4601190000000 1.0
C      1  0.4262350000000  0.5302330000000  0.5398810000000 1.0
C      1  0.4697670000000  0.4601190000000  0.4262350000000 1.0
C      1  0.5302330000000  0.5398810000000  0.4262350000000 1.0
C      1  0.5302330000000  0.4601190000000  0.5737650000000 1.0
C      1  0.5398810000000  0.4262350000000  0.5302330000000 1.0
C      1  0.4601190000000  0.5737650000000  0.5302330000000 1.0
C      1  0.4601190000000  0.4262350000000  0.4697670000000 1.0
C      1  0.4862340000000  0.5059980000000  0.4332960000000 1.0
C      1  0.5059980000000  0.4332960000000  0.4862340000000 1.0
C      1  0.4332960000000  0.4862340000000  0.5059980000000 1.0
C      1  0.4862340000000  0.4940020000000  0.5667040000000 1.0
C      1  0.5137660000000  0.5059980000000  0.5667040000000 1.0
C      1  0.5137660000000  0.4940020000000  0.4332960000000 1.0
C      1  0.5059980000000  0.5667040000000  0.5137660000000 1.0
C      1  0.4940020000000  0.4332960000000  0.5137660000000 1.0
C      1  0.4940020000000  0.5667040000000  0.4862340000000 1.0
C      1  0.4332960000000  0.5137660000000  0.4940020000000 1.0
C      1  0.5667040000000  0.4862340000000  0.4940020000000 1.0
C      1  0.5667040000000  0.5137660000000  0.5059980000000 1.0
END
