TITL C-3985254-1270-768 -5.08572539522397e-08 125000 -313.522264555399 0 0 60 (Oh) n - 1
REM
REM in /home/nfs/bkarasulu/CARBON/AIRSS/Generating-Clusters/TERSOFF/Higher-Symm/Only-C60
REM
REM
REM
REM
REM
REM ./C.cell (28575a23ae977d3b5fae324c64b13b57)
REM
REM compiler GCC version 9.2.1 20190827 (Red Hat 9.2.1-1)
REM options -cpp -mtune=generic -march=x86-64 -g -O0 -fpre-include=/usr/include/finclude/math-vector-fortran.h
REM seed -1984682538 -1616398343 -1328028177 -1291497631 -1861036563 1404055032 62405993 -431667075 -48118543 1964419197 2057927597 332431313 -86924582 -1027265542 -1750799512 -184432343 -1940187836 824397325 -559053883 -2027051823 1635990529 -892280937 -815348996 -1854404797 -398915044 103602796 -533773103 1452283739 -1597853591 -1140264017 -1136722612 -1058864158 -389850691
REM
CELL 1.54180   50.00000   50.00000   50.00000   90.00000   90.00000   90.00000
LATT -1
SFAC C  
C      1  0.5158790000000  0.5840370000000  0.4841210000000 1.0
C      1  0.4841210000000  0.5158790000000  0.5840370000000 1.0
C      1  0.5840370000000  0.4841210000000  0.5158790000000 1.0
C      1  0.4841210000000  0.4159630000000  0.4841210000000 1.0
C      1  0.4841210000000  0.5840370000000  0.5158790000000 1.0
C      1  0.5158790000000  0.4159630000000  0.5158790000000 1.0
C      1  0.5158790000000  0.4841210000000  0.5840370000000 1.0
C      1  0.5158790000000  0.5158790000000  0.4159630000000 1.0
C      1  0.4841210000000  0.4841210000000  0.4159630000000 1.0
C      1  0.4159630000000  0.5158790000000  0.5158790000000 1.0
C      1  0.4159630000000  0.4841210000000  0.4841210000000 1.0
C      1  0.5840370000000  0.5158790000000  0.4841210000000 1.0
C      1  0.5158790000000  0.5840370000000  0.5158790000000 1.0
C      1  0.4841210000000  0.5158790000000  0.4159630000000 1.0
C      1  0.5840370000000  0.4841210000000  0.4841210000000 1.0
C      1  0.4841210000000  0.4159630000000  0.5158790000000 1.0
C      1  0.4841210000000  0.5840370000000  0.4841210000000 1.0
C      1  0.5158790000000  0.4159630000000  0.4841210000000 1.0
C      1  0.5158790000000  0.4841210000000  0.4159630000000 1.0
C      1  0.5158790000000  0.5158790000000  0.5840370000000 1.0
C      1  0.4841210000000  0.4841210000000  0.5840370000000 1.0
C      1  0.4159630000000  0.5158790000000  0.4841210000000 1.0
C      1  0.4159630000000  0.4841210000000  0.5158790000000 1.0
C      1  0.5840370000000  0.5158790000000  0.5158790000000 1.0
C      1  0.5223590000000  0.5223590000000  0.5552080000000 1.0
C      1  0.5552080000000  0.5223590000000  0.5223590000000 1.0
C      1  0.5223590000000  0.5552080000000  0.5223590000000 1.0
C      1  0.4776410000000  0.4776410000000  0.5552080000000 1.0
C      1  0.4776410000000  0.5223590000000  0.4447920000000 1.0
C      1  0.5223590000000  0.4776410000000  0.4447920000000 1.0
C      1  0.4447920000000  0.4776410000000  0.5223590000000 1.0
C      1  0.4447920000000  0.5223590000000  0.4776410000000 1.0
C      1  0.5552080000000  0.4776410000000  0.4776410000000 1.0
C      1  0.4776410000000  0.4447920000000  0.5223590000000 1.0
C      1  0.4776410000000  0.5552080000000  0.4776410000000 1.0
C      1  0.5223590000000  0.4447920000000  0.4776410000000 1.0
C      1  0.5223590000000  0.5223590000000  0.4447920000000 1.0
C      1  0.5552080000000  0.5223590000000  0.4776410000000 1.0
C      1  0.5223590000000  0.5552080000000  0.4776410000000 1.0
C      1  0.4776410000000  0.4776410000000  0.4447920000000 1.0
C      1  0.4776410000000  0.5223590000000  0.5552080000000 1.0
C      1  0.5223590000000  0.4776410000000  0.5552080000000 1.0
C      1  0.4447920000000  0.4776410000000  0.4776410000000 1.0
C      1  0.4447920000000  0.5223590000000  0.5223590000000 1.0
C      1  0.5552080000000  0.4776410000000  0.5223590000000 1.0
C      1  0.4776410000000  0.4447920000000  0.4776410000000 1.0
C      1  0.4776410000000  0.5552080000000  0.5223590000000 1.0
C      1  0.5223590000000  0.4447920000000  0.5223590000000 1.0
C      1  0.4608040000000  0.5391960000000  0.5000000000000 1.0
C      1  0.5391960000000  0.4608040000000  0.5000000000000 1.0
C      1  0.5000000000000  0.4608040000000  0.5391960000000 1.0
C      1  0.5391960000000  0.5000000000000  0.4608040000000 1.0
C      1  0.5000000000000  0.5391960000000  0.5391960000000 1.0
C      1  0.5000000000000  0.4608040000000  0.4608040000000 1.0
C      1  0.5000000000000  0.5391960000000  0.4608040000000 1.0
C      1  0.4608040000000  0.5000000000000  0.4608040000000 1.0
C      1  0.4608040000000  0.5000000000000  0.5391960000000 1.0
C      1  0.5391960000000  0.5000000000000  0.5391960000000 1.0
C      1  0.5391960000000  0.5391960000000  0.5000000000000 1.0
C      1  0.4608040000000  0.4608040000000  0.5000000000000 1.0
END
