TITL C-3985254-1270-1196 0.00370595448165 125000 -317.749297420016 0 0 60 (C2h) n - 1
REM
REM in /home/nfs/bkarasulu/CARBON/AIRSS/Generating-Clusters/TERSOFF/Higher-Symm/Only-C60
REM
REM
REM
REM
REM
REM ./C.cell (28575a23ae977d3b5fae324c64b13b57)
REM
REM compiler GCC version 9.2.1 20190827 (Red Hat 9.2.1-1)
REM options -cpp -mtune=generic -march=x86-64 -g -O0 -fpre-include=/usr/include/finclude/math-vector-fortran.h
REM seed -318224686 1556785527 83727001 -50725226 22180377 -1050904754 -615712106 -128678501 483459522 -166968552 700281124 -1286825153 856160473 611464336 44627121 1976827117 -1223817357 2078001489 1609288292 762736811 651409933 -950248578 -2052989036 -2039579113 2026585994 -1943125591 1020747914 -1272793723 -2029589577 1474074046 1669936925 151821486 1555514476
REM
CELL 1.54180   50.00000   50.00000   50.00000   90.00000   90.00000   90.00000
LATT -1
SFAC C  
C      1  0.4823070000000  0.4568600000000  0.4669970000000 1.0
C      1  0.5176910000000  0.5431380000000  0.4669980000000 1.0
C      1  0.4823140000000  0.4568620000000  0.5329980000000 1.0
C      1  0.5176960000000  0.5431390000000  0.5330050000000 1.0
C      1  0.5180400000000  0.4556990000000  0.4665600000000 1.0
C      1  0.4819590000000  0.5442930000000  0.4665620000000 1.0
C      1  0.5180330000000  0.4556970000000  0.5334370000000 1.0
C      1  0.4819680000000  0.5443010000000  0.5334370000000 1.0
C      1  0.5098350000000  0.5185050000000  0.5156420000000 1.0
C      1  0.4901590000000  0.4815010000000  0.5156390000000 1.0
C      1  0.5098130000000  0.5184910000000  0.4843580000000 1.0
C      1  0.4901790000000  0.4815160000000  0.4843600000000 1.0
C      1  0.4777370000000  0.5120600000000  0.5173540000000 1.0
C      1  0.5222660000000  0.4879380000000  0.5173550000000 1.0
C      1  0.4777330000000  0.5120600000000  0.4826430000000 1.0
C      1  0.5222640000000  0.4879370000000  0.4826470000000 1.0
C      1  0.4690160000000  0.5321490000000  0.5582050000000 1.0
C      1  0.5310010000000  0.4678620000000  0.5582140000000 1.0
C      1  0.4690310000000  0.5321660000000  0.4418090000000 1.0
C      1  0.5309830000000  0.4678490000000  0.4417970000000 1.0
C      1  0.5305980000000  0.5316340000000  0.5576890000000 1.0
C      1  0.4693890000000  0.4683750000000  0.5576940000000 1.0
C      1  0.5305970000000  0.5316330000000  0.4423110000000 1.0
C      1  0.4694010000000  0.4683650000000  0.4423100000000 1.0
C      1  0.5648790000000  0.5169060000000  0.5182010000000 1.0
C      1  0.4351230000000  0.4831010000000  0.5181980000000 1.0
C      1  0.5648780000000  0.5169040000000  0.4818000000000 1.0
C      1  0.4351210000000  0.4830950000000  0.4818000000000 1.0
C      1  0.4350210000000  0.5194820000000  0.5181730000000 1.0
C      1  0.5649810000000  0.4805170000000  0.5181730000000 1.0
C      1  0.4350180000000  0.5194760000000  0.4818240000000 1.0
C      1  0.5649810000000  0.4805210000000  0.4818260000000 1.0
C      1  0.5153390000000  0.4751710000000  0.4180320000000 1.0
C      1  0.4846480000000  0.5248160000000  0.4180190000000 1.0
C      1  0.5153250000000  0.4751620000000  0.5819620000000 1.0
C      1  0.4846630000000  0.5248300000000  0.5819660000000 1.0
C      1  0.4848850000000  0.4750740000000  0.4181720000000 1.0
C      1  0.5151190000000  0.5249260000000  0.4181790000000 1.0
C      1  0.4848960000000  0.4750700000000  0.5818260000000 1.0
C      1  0.5151160000000  0.5249250000000  0.5818290000000 1.0
C      1  0.4457310000000  0.5156160000000  0.4504920000000 1.0
C      1  0.5542650000000  0.4843740000000  0.4504970000000 1.0
C      1  0.4457370000000  0.5156270000000  0.5495000000000 1.0
C      1  0.5542600000000  0.4843670000000  0.5495010000000 1.0
C      1  0.5542810000000  0.5152360000000  0.4499450000000 1.0
C      1  0.4457180000000  0.4847650000000  0.4499430000000 1.0
C      1  0.5542830000000  0.5152380000000  0.5500570000000 1.0
C      1  0.4457230000000  0.4847600000000  0.5500550000000 1.0
C      1  0.4549410000000  0.5471840000000  0.5152660000000 1.0
C      1  0.5450570000000  0.4528240000000  0.5152640000000 1.0
C      1  0.4549410000000  0.5471730000000  0.4847390000000 1.0
C      1  0.5450580000000  0.4528260000000  0.4847360000000 1.0
C      1  0.5437740000000  0.5431870000000  0.5150670000000 1.0
C      1  0.4562240000000  0.4568130000000  0.5150660000000 1.0
C      1  0.5437910000000  0.5432010000000  0.4849330000000 1.0
C      1  0.4562060000000  0.4567950000000  0.4849340000000 1.0
C      1  0.4755230000000  0.4999040000000  0.4056490000000 1.0
C      1  0.5244810000000  0.5001030000000  0.4056480000000 1.0
C      1  0.4755170000000  0.4998980000000  0.5943520000000 1.0
C      1  0.5244840000000  0.5001050000000  0.5943530000000 1.0
END
