TITL C-3985254-1270-372 -0.00415899538799938 125000 -339.930117041514 0 0 60 (C1) n - 1
REM
REM in /home/nfs/bkarasulu/CARBON/AIRSS/Generating-Clusters/TERSOFF/Higher-Symm/Only-C60
REM
REM
REM
REM
REM
REM ./C.cell (28575a23ae977d3b5fae324c64b13b57)
REM
REM compiler GCC version 9.2.1 20190827 (Red Hat 9.2.1-1)
REM options -cpp -mtune=generic -march=x86-64 -g -O0 -fpre-include=/usr/include/finclude/math-vector-fortran.h
REM seed -12511918 676536460 1619038944 796204727 -214777409 508036741 369859712 1996836709 1360527084 1441654630 -1916371060 1585588695 -1535159334 876805745 -696056592 -699135630 -171439058 958125346 1629699350 1241344005 33048161 -2097232306 1692256083 11283378 2137092263 849313628 -1035702670 1787314645 -1318221797 -744507760 -1169458634 -1425979518 172991947
REM
CELL 1.54180   50.00000   50.00000   50.00000   90.00000   90.00000   90.00000
LATT -1
SFAC C  
C      1  0.4872980000000  0.5451910000000  0.4547490000000 1.0
C      1  0.4930170000000  0.4471160000000  0.5568710000000 1.0
C      1  0.4913070000000  0.5425300000000  0.5419370000000 1.0
C      1  0.4921180000000  0.4495850000000  0.4519210000000 1.0
C      1  0.5274600000000  0.5277700000000  0.4840320000000 1.0
C      1  0.5171610000000  0.4838270000000  0.5277380000000 1.0
C      1  0.5266640000000  0.5213340000000  0.5114060000000 1.0
C      1  0.5165850000000  0.4880690000000  0.4758290000000 1.0
C      1  0.4748090000000  0.5609880000000  0.4758400000000 1.0
C      1  0.4717090000000  0.4460120000000  0.5292490000000 1.0
C      1  0.4770350000000  0.5586060000000  0.5219280000000 1.0
C      1  0.4776180000000  0.4431960000000  0.4773070000000 1.0
C      1  0.4575110000000  0.5025490000000  0.5408340000000 1.0
C      1  0.4542390000000  0.4806370000000  0.4376940000000 1.0
C      1  0.4516790000000  0.5084310000000  0.4477420000000 1.0
C      1  0.4588230000000  0.4735080000000  0.5489330000000 1.0
C      1  0.4829390000000  0.4731880000000  0.4388830000000 1.0
C      1  0.4830040000000  0.5155390000000  0.5478790000000 1.0
C      1  0.4842070000000  0.4730460000000  0.5674340000000 1.0
C      1  0.4795010000000  0.5177150000000  0.4522850000000 1.0
C      1  0.4470910000000  0.5547760000000  0.4851890000000 1.0
C      1  0.4451650000000  0.4540310000000  0.5126470000000 1.0
C      1  0.4481360000000  0.5536910000000  0.5147050000000 1.0
C      1  0.4493890000000  0.4532080000000  0.4833620000000 1.0
C      1  0.5736640000000  0.5254840000000  0.5132950000000 1.0
C      1  0.5701800000000  0.4782920000000  0.4868840000000 1.0
C      1  0.5671590000000  0.5406740000000  0.4890110000000 1.0
C      1  0.5617340000000  0.4646200000000  0.5102380000000 1.0
C      1  0.4316150000000  0.5303980000000  0.4773520000000 1.0
C      1  0.4292730000000  0.4785130000000  0.5188460000000 1.0
C      1  0.4321420000000  0.5291460000000  0.5207860000000 1.0
C      1  0.4357570000000  0.4794620000000  0.4753740000000 1.0
C      1  0.5411770000000  0.4703570000000  0.5594750000000 1.0
C      1  0.5354340000000  0.5296560000000  0.4427450000000 1.0
C      1  0.5401010000000  0.4748640000000  0.4437210000000 1.0
C      1  0.5396610000000  0.5255710000000  0.5526610000000 1.0
C      1  0.5220430000000  0.4457700000000  0.5515740000000 1.0
C      1  0.5161930000000  0.5515690000000  0.4513280000000 1.0
C      1  0.5226400000000  0.4500940000000  0.4546370000000 1.0
C      1  0.5206840000000  0.5480810000000  0.5432540000000 1.0
C      1  0.5246140000000  0.4386560000000  0.4830120000000 1.0
C      1  0.5255670000000  0.5651900000000  0.5175300000000 1.0
C      1  0.5238770000000  0.4337320000000  0.5246510000000 1.0
C      1  0.5225940000000  0.5687460000000  0.4758160000000 1.0
C      1  0.5512340000000  0.5128310000000  0.5277140000000 1.0
C      1  0.5510650000000  0.4911890000000  0.4698870000000 1.0
C      1  0.5530540000000  0.5223230000000  0.4667220000000 1.0
C      1  0.5488620000000  0.4817590000000  0.5301760000000 1.0
C      1  0.4995330000000  0.4959910000000  0.4494890000000 1.0
C      1  0.5022760000000  0.4941680000000  0.5544440000000 1.0
C      1  0.5245030000000  0.5023630000000  0.4327860000000 1.0
C      1  0.5286950000000  0.5008660000000  0.5687000000000 1.0
C      1  0.5486150000000  0.5637830000000  0.4937950000000 1.0
C      1  0.5474120000000  0.4399310000000  0.5053120000000 1.0
C      1  0.4951210000000  0.4361540000000  0.5036470000000 1.0
C      1  0.4958570000000  0.5721610000000  0.4985280000000 1.0
C      1  0.4754610000000  0.4822160000000  0.5019170000000 1.0
C      1  0.4593000000000  0.5051610000000  0.4988090000000 1.0
C      1  0.4283660000000  0.5046650000000  0.4981000000000 1.0
C      1  0.5036220000000  0.4825130000000  0.5018460000000 1.0
END
