TITL C-3985244-725-147 0.00106180594644794 125000 -364.385743584397 0 0 60 (C1) n - 1
REM
REM in /home/nfs/bkarasulu/CARBON/AIRSS/Generating-Clusters/TERSOFF/Higher-Symm/Only-C60
REM
REM
REM
REM
REM
REM ./C.cell (28575a23ae977d3b5fae324c64b13b57)
REM
REM compiler GCC version 9.2.1 20190827 (Red Hat 9.2.1-1)
REM options -cpp -mtune=generic -march=x86-64 -g -O0 -fpre-include=/usr/include/finclude/math-vector-fortran.h
REM seed 782501725 1157495529 -928217483 -2128186476 805357135 489484484 -1629334664 1577400625 -1099358925 1433376799 -1348071987 8878937 -794892817 -776520296 809454001 -533578894 -1600423628 780214903 -638071796 254863293 968986254 -402423656 678690426 1443582225 -1743801468 -1371637623 -2096876599 -1605717843 -1383856902 668664366 973518296 1713123615 -12067664
REM
CELL 1.54180   50.00000   50.00000   50.00000   90.00000   90.00000   90.00000
LATT -1
SFAC C  
C      1  0.4552660000000  0.4836440000000  0.5522070000000 1.0
C      1  0.4359140000000  0.4873780000000  0.4708500000000 1.0
C      1  0.5109850000000  0.4823150000000  0.4269580000000 1.0
C      1  0.5788990000000  0.4838060000000  0.4841890000000 1.0
C      1  0.5375950000000  0.4822980000000  0.5579310000000 1.0
C      1  0.4554460000000  0.4841650000000  0.4482360000000 1.0
C      1  0.4354570000000  0.4867690000000  0.5298900000000 1.0
C      1  0.5110210000000  0.4826210000000  0.5729190000000 1.0
C      1  0.5788790000000  0.4843940000000  0.5155930000000 1.0
C      1  0.5376420000000  0.4816910000000  0.4417580000000 1.0
C      1  0.4957810000000  0.5079320000000  0.5742640000000 1.0
C      1  0.4341160000000  0.5125470000000  0.5154440000000 1.0
C      1  0.4678910000000  0.5087710000000  0.4359290000000 1.0
C      1  0.5523830000000  0.5073180000000  0.4472970000000 1.0
C      1  0.5720360000000  0.5091480000000  0.5298950000000 1.0
C      1  0.4961690000000  0.5078370000000  0.4255670000000 1.0
C      1  0.4355490000000  0.5127770000000  0.4859540000000 1.0
C      1  0.4673060000000  0.5082140000000  0.5646140000000 1.0
C      1  0.5515250000000  0.5082060000000  0.5516380000000 1.0
C      1  0.5728440000000  0.5081990000000  0.4690910000000 1.0
C      1  0.5770110000000  0.5334640000000  0.4833220000000 1.0
C      1  0.5372870000000  0.5329290000000  0.5575540000000 1.0
C      1  0.4558420000000  0.5340750000000  0.5570320000000 1.0
C      1  0.4452940000000  0.5365930000000  0.4727540000000 1.0
C      1  0.5118600000000  0.5324190000000  0.4256450000000 1.0
C      1  0.5755900000000  0.5342830000000  0.5149000000000 1.0
C      1  0.5390470000000  0.5324370000000  0.4402870000000 1.0
C      1  0.4574270000000  0.5348100000000  0.4446230000000 1.0
C      1  0.4407070000000  0.5368660000000  0.5300460000000 1.0
C      1  0.5109170000000  0.5328570000000  0.5733680000000 1.0
C      1  0.5022900000000  0.4919000000000  0.5143540000000 1.0
C      1  0.4942360000000  0.4428050000000  0.5150900000000 1.0
C      1  0.4444700000000  0.4372070000000  0.5162370000000 1.0
C      1  0.4693760000000  0.4401860000000  0.4694320000000 1.0
C      1  0.5097830000000  0.4656860000000  0.4753400000000 1.0
C      1  0.5023270000000  0.4919150000000  0.4857470000000 1.0
C      1  0.4941400000000  0.4428500000000  0.4850430000000 1.0
C      1  0.4443240000000  0.4376470000000  0.4841570000000 1.0
C      1  0.4695830000000  0.4399180000000  0.5308230000000 1.0
C      1  0.5098400000000  0.4657020000000  0.5247640000000 1.0
C      1  0.4655940000000  0.5570890000000  0.4870620000000 1.0
C      1  0.5047820000000  0.5560380000000  0.4454340000000 1.0
C      1  0.5552440000000  0.5563370000000  0.4833320000000 1.0
C      1  0.5303430000000  0.5545760000000  0.5346370000000 1.0
C      1  0.4742880000000  0.5569370000000  0.5453120000000 1.0
C      1  0.4583120000000  0.5605790000000  0.5164830000000 1.0
C      1  0.5025740000000  0.5561500000000  0.5532280000000 1.0
C      1  0.5537060000000  0.5577840000000  0.5158230000000 1.0
C      1  0.5335050000000  0.5557510000000  0.4623290000000 1.0
C      1  0.4773050000000  0.5574240000000  0.4552680000000 1.0
C      1  0.5362330000000  0.4627250000000  0.4644150000000 1.0
C      1  0.5593140000000  0.4599120000000  0.5172720000000 1.0
C      1  0.4939890000000  0.4587930000000  0.5713190000000 1.0
C      1  0.4260670000000  0.4628390000000  0.5158630000000 1.0
C      1  0.4696630000000  0.4581740000000  0.4455520000000 1.0
C      1  0.5364000000000  0.4628800000000  0.5355760000000 1.0
C      1  0.5591880000000  0.4595270000000  0.4825990000000 1.0
C      1  0.4936420000000  0.4587410000000  0.4287260000000 1.0
C      1  0.4259440000000  0.4633010000000  0.4843270000000 1.0
C      1  0.4698490000000  0.4578680000000  0.5546970000000 1.0
END
