TITL C-3985247-764-287 -0.01195728987044 125000 -322.657809762155 0 0 60 (C1) n - 1
REM
REM in /home/nfs/bkarasulu/CARBON/AIRSS/Generating-Clusters/TERSOFF/Higher-Symm/Only-C60
REM
REM
REM
REM
REM
REM ./C.cell (28575a23ae977d3b5fae324c64b13b57)
REM
REM compiler GCC version 9.2.1 20190827 (Red Hat 9.2.1-1)
REM options -cpp -mtune=generic -march=x86-64 -g -O0 -fpre-include=/usr/include/finclude/math-vector-fortran.h
REM seed 92348444 1764191429 -552160465 -1391778850 -1378362855 -666136402 -2042615121 -1904179835 660733949 -710743701 -432154919 -2126042343 1141929466 -136466314 -99686051 -1038586529 -757870339 -437799493 -2027461954 684512602 -478427586 -471731783 954446779 1435840197 -896776006 -1271609408 -853256228 -174533669 953998889 -1295206849 50455909 812119122 1028056060
REM
CELL 1.54180   50.00000   50.00000   50.00000   90.00000   90.00000   90.00000
LATT -1
SFAC C  
C      1  0.4607180000000  0.4453040000000  0.4917140000000 1.0
C      1  0.4806790000000  0.4469840000000  0.4655170000000 1.0
C      1  0.5143000000000  0.4427090000000  0.4628590000000 1.0
C      1  0.5378810000000  0.4425340000000  0.4897970000000 1.0
C      1  0.5306480000000  0.4467120000000  0.5228580000000 1.0
C      1  0.5003530000000  0.4449530000000  0.5391960000000 1.0
C      1  0.4694640000000  0.4456890000000  0.5253990000000 1.0
C      1  0.5224110000000  0.5806800000000  0.4716630000000 1.0
C      1  0.5309790000000  0.5733530000000  0.5003410000000 1.0
C      1  0.5184900000000  0.5828110000000  0.5271360000000 1.0
C      1  0.4883780000000  0.5764840000000  0.5318780000000 1.0
C      1  0.4659030000000  0.5833270000000  0.5113180000000 1.0
C      1  0.4703600000000  0.5751370000000  0.4815720000000 1.0
C      1  0.4927130000000  0.5845860000000  0.4623260000000 1.0
C      1  0.5303580000000  0.5062250000000  0.4909110000000 1.0
C      1  0.5233720000000  0.5000650000000  0.5200890000000 1.0
C      1  0.4979490000000  0.5092210000000  0.5320100000000 1.0
C      1  0.4783620000000  0.4955290000000  0.5147810000000 1.0
C      1  0.4677840000000  0.5077680000000  0.4898230000000 1.0
C      1  0.4852450000000  0.5001550000000  0.4676710000000 1.0
C      1  0.5121860000000  0.5138990000000  0.4631770000000 1.0
C      1  0.4868630000000  0.5431510000000  0.5364050000000 1.0
C      1  0.4621750000000  0.5492600000000  0.5136100000000 1.0
C      1  0.4713440000000  0.5425330000000  0.4813540000000 1.0
C      1  0.4949310000000  0.5515370000000  0.4558190000000 1.0
C      1  0.5262310000000  0.5469080000000  0.4664630000000 1.0
C      1  0.5327210000000  0.5412500000000  0.5014270000000 1.0
C      1  0.5201490000000  0.5491240000000  0.5335920000000 1.0
C      1  0.4627590000000  0.4752440000000  0.5274110000000 1.0
C      1  0.4369910000000  0.4627670000000  0.4875710000000 1.0
C      1  0.4792140000000  0.4747860000000  0.4525040000000 1.0
C      1  0.5229310000000  0.4609760000000  0.4392310000000 1.0
C      1  0.5609490000000  0.4604780000000  0.4831420000000 1.0
C      1  0.5367790000000  0.4764180000000  0.5315890000000 1.0
C      1  0.5018710000000  0.4627460000000  0.5627100000000 1.0
C      1  0.4370110000000  0.5356700000000  0.5207780000000 1.0
C      1  0.4481760000000  0.5343500000000  0.4617460000000 1.0
C      1  0.4911610000000  0.5373620000000  0.4298180000000 1.0
C      1  0.5506210000000  0.5338420000000  0.4531650000000 1.0
C      1  0.5615860000000  0.5329930000000  0.5102630000000 1.0
C      1  0.5342900000000  0.5363970000000  0.5561030000000 1.0
C      1  0.4720730000000  0.5332910000000  0.5609450000000 1.0
C      1  0.4381180000000  0.4924020000000  0.4875810000000 1.0
C      1  0.4610640000000  0.4921640000000  0.4343020000000 1.0
C      1  0.5223280000000  0.4921380000000  0.4389330000000 1.0
C      1  0.5599350000000  0.4902560000000  0.4838190000000 1.0
C      1  0.5609580000000  0.4911070000000  0.5427890000000 1.0
C      1  0.5016320000000  0.4924410000000  0.5613780000000 1.0
C      1  0.4462110000000  0.4899430000000  0.5473470000000 1.0
C      1  0.5345040000000  0.5072400000000  0.5599980000000 1.0
C      1  0.4697220000000  0.5044190000000  0.5642720000000 1.0
C      1  0.4340490000000  0.5065100000000  0.5202090000000 1.0
C      1  0.4422580000000  0.5063240000000  0.4564590000000 1.0
C      1  0.4919620000000  0.5075850000000  0.4268960000000 1.0
C      1  0.5519260000000  0.5044310000000  0.4536030000000 1.0
C      1  0.5690950000000  0.5048630000000  0.5135150000000 1.0
C      1  0.5165930000000  0.4782860000000  0.4848540000000 1.0
C      1  0.4996050000000  0.5340190000000  0.4978440000000 1.0
C      1  0.4990350000000  0.4302310000000  0.4999500000000 1.0
C      1  0.4987830000000  0.4620140000000  0.5002270000000 1.0
END
