TITL C-3985253-1688-585 0.00674833644649041 125000 -307.355464849743 0 0 60 (C1) n - 1
REM
REM in /home/nfs/bkarasulu/CARBON/AIRSS/Generating-Clusters/TERSOFF/Higher-Symm/Only-C60
REM
REM
REM
REM
REM
REM ./C.cell (28575a23ae977d3b5fae324c64b13b57)
REM
REM compiler GCC version 9.2.1 20190827 (Red Hat 9.2.1-1)
REM options -cpp -mtune=generic -march=x86-64 -g -O0 -fpre-include=/usr/include/finclude/math-vector-fortran.h
REM seed 1064126136 1144647356 27594943 -1635514307 1272851835 1951974744 -807810665 -960115413 -1758735175 -1959465665 -986813189 1797053857 1045447165 -631805999 1416267073 410619496 490517878 -1139898782 -525550536 1569965819 2137039115 -751677995 -974553340 -1810702910 -1817557138 1184615316 103227991 891201955 138785787 1876074107 -1756237108 -1994279533 134075333
REM
CELL 1.54180   50.00000   50.00000   50.00000   90.00000   90.00000   90.00000
LATT -1
SFAC C  
C      1  0.4775580000000  0.4344600000000  0.4823930000000 1.0
C      1  0.5630620000000  0.5348610000000  0.5151290000000 1.0
C      1  0.4705190000000  0.4836610000000  0.4949560000000 1.0
C      1  0.4529330000000  0.4466970000000  0.5255250000000 1.0
C      1  0.5038940000000  0.5080110000000  0.5528720000000 1.0
C      1  0.4799760000000  0.5645500000000  0.4740620000000 1.0
C      1  0.5419100000000  0.4438770000000  0.5235140000000 1.0
C      1  0.5131600000000  0.4858280000000  0.4740400000000 1.0
C      1  0.5039920000000  0.5530590000000  0.5207080000000 1.0
C      1  0.4657170000000  0.4956600000000  0.4385260000000 1.0
C      1  0.5205940000000  0.5350980000000  0.5548330000000 1.0
C      1  0.4247750000000  0.4502570000000  0.5183420000000 1.0
C      1  0.4905500000000  0.4814640000000  0.4282740000000 1.0
C      1  0.5055690000000  0.4249920000000  0.4827930000000 1.0
C      1  0.4702760000000  0.5464250000000  0.5503190000000 1.0
C      1  0.5498730000000  0.5370140000000  0.5439220000000 1.0
C      1  0.4758770000000  0.5258710000000  0.5052810000000 1.0
C      1  0.5560160000000  0.5509790000000  0.4835850000000 1.0
C      1  0.5139890000000  0.4957720000000  0.5215060000000 1.0
C      1  0.5674490000000  0.5238540000000  0.4655190000000 1.0
C      1  0.5496520000000  0.5045120000000  0.4461300000000 1.0
C      1  0.4823890000000  0.4992200000000  0.5744980000000 1.0
C      1  0.5079230000000  0.5585520000000  0.4661820000000 1.0
C      1  0.4958370000000  0.5044340000000  0.4911420000000 1.0
C      1  0.4730230000000  0.4542500000000  0.4611580000000 1.0
C      1  0.5118880000000  0.4481470000000  0.5423320000000 1.0
C      1  0.5659720000000  0.4550670000000  0.4990470000000 1.0
C      1  0.5246150000000  0.4948570000000  0.5722580000000 1.0
C      1  0.4626980000000  0.4678820000000  0.5440150000000 1.0
C      1  0.5321290000000  0.5306980000000  0.4870390000000 1.0
C      1  0.5656860000000  0.5073860000000  0.4965350000000 1.0
C      1  0.5473650000000  0.4581430000000  0.4719310000000 1.0
C      1  0.4364120000000  0.5043130000000  0.4822260000000 1.0
C      1  0.5257560000000  0.4446420000000  0.4931410000000 1.0
C      1  0.4506190000000  0.5521010000000  0.5261980000000 1.0
C      1  0.5053120000000  0.5203960000000  0.4392140000000 1.0
C      1  0.5434070000000  0.4772580000000  0.5312460000000 1.0
C      1  0.5673700000000  0.4824700000000  0.5130500000000 1.0
C      1  0.4534050000000  0.5278560000000  0.4839660000000 1.0
C      1  0.4757320000000  0.5177430000000  0.5369580000000 1.0
C      1  0.4751410000000  0.4538010000000  0.5049840000000 1.0
C      1  0.4273330000000  0.5313240000000  0.5226530000000 1.0
C      1  0.5222800000000  0.4949870000000  0.4283120000000 1.0
C      1  0.5439710000000  0.4901160000000  0.4735080000000 1.0
C      1  0.5303690000000  0.4626110000000  0.4435550000000 1.0
C      1  0.4592500000000  0.4933520000000  0.5259160000000 1.0
C      1  0.5002710000000  0.5577330000000  0.5501840000000 1.0
C      1  0.5051150000000  0.4616430000000  0.5140460000000 1.0
C      1  0.4781630000000  0.5578340000000  0.5040540000000 1.0
C      1  0.4310060000000  0.5011560000000  0.5127490000000 1.0
C      1  0.4132830000000  0.4770330000000  0.5165760000000 1.0
C      1  0.4997310000000  0.4660320000000  0.4525590000000 1.0
C      1  0.4621140000000  0.5429170000000  0.4597670000000 1.0
C      1  0.5464480000000  0.4815890000000  0.5600090000000 1.0
C      1  0.4741950000000  0.5243190000000  0.4387880000000 1.0
C      1  0.4529120000000  0.4817900000000  0.4654120000000 1.0
C      1  0.4883670000000  0.4615020000000  0.5571420000000 1.0
C      1  0.5334670000000  0.5708640000000  0.4748610000000 1.0
C      1  0.5101270000000  0.5280430000000  0.4671900000000 1.0
C      1  0.5215750000000  0.5290340000000  0.5133680000000 1.0
END
