TITL C-3985259-1859-40 -4.67137489213025e-05 125000 -324.444735091037 0 0 60 (C5) n - 1
REM
REM in /home/nfs/bkarasulu/CARBON/AIRSS/Generating-Clusters/TERSOFF/Higher-Symm/Only-C60
REM
REM
REM
REM
REM
REM ./C.cell (28575a23ae977d3b5fae324c64b13b57)
REM
REM compiler GCC version 9.2.1 20190827 (Red Hat 9.2.1-1)
REM options -cpp -mtune=generic -march=x86-64 -g -O0 -fpre-include=/usr/include/finclude/math-vector-fortran.h
REM seed 1946465287 298203403 -192508873 1915699959 -1017684341 235519665 -1925352128 -8850755 -1091696058 1209875150 2122005826 -1992844074 -1440204292 842220909 -741782817 1236034481 -732773033 151864464 429167803 251780536 -1066265704 -1236968153 1539381920 -1629385359 -1401771745 -1561341923 -1491010584 898554034 -1976868039 2048600755 -1737030984 1658852544 -138880007
REM
CELL 1.54180   50.00000   50.00000   50.00000   90.00000   90.00000   90.00000
LATT -1
SFAC C  
C      1  0.4839490000000  0.4332340000000  0.5083550000000 1.0
C      1  0.4839480000000  0.4873140000000  0.5660800000000 1.0
C      1  0.4839490000000  0.5589270000000  0.5324850000000 1.0
C      1  0.4839500000000  0.5491050000000  0.4539960000000 1.0
C      1  0.4839490000000  0.4714230000000  0.4390830000000 1.0
C      1  0.4912550000000  0.4996560000000  0.4480000000000 1.0
C      1  0.4912540000000  0.4504390000000  0.4842590000000 1.0
C      1  0.4912540000000  0.4697150000000  0.5422710000000 1.0
C      1  0.4912530000000  0.5308440000000  0.5418660000000 1.0
C      1  0.4912550000000  0.5493490000000  0.4836030000000 1.0
C      1  0.5443030000000  0.5070260000000  0.4649700000000 1.0
C      1  0.5443020000000  0.4688550000000  0.4824930000000 1.0
C      1  0.5443020000000  0.4737260000000  0.5242110000000 1.0
C      1  0.5443020000000  0.5149060000000  0.5324710000000 1.0
C      1  0.5443030000000  0.5354850000000  0.4958580000000 1.0
C      1  0.4725420000000  0.5625930000000  0.5061600000000 1.0
C      1  0.4725420000000  0.5252020000000  0.4423740000000 1.0
C      1  0.4725420000000  0.4529830000000  0.4582250000000 1.0
C      1  0.4725420000000  0.4457410000000  0.5318070000000 1.0
C      1  0.4725410000000  0.5134830000000  0.5614330000000 1.0
C      1  0.5586120000000  0.4554560000000  0.5045780000000 1.0
C      1  0.5586120000000  0.4905880000000  0.5437790000000 1.0
C      1  0.5586120000000  0.5387270000000  0.5224810000000 1.0
C      1  0.5586140000000  0.5333440000000  0.4701170000000 1.0
C      1  0.5586130000000  0.4818810000000  0.4590510000000 1.0
C      1  0.5274080000000  0.5329440000000  0.4320790000000 1.0
C      1  0.5274020000000  0.4455850000000  0.4476760000000 1.0
C      1  0.5274040000000  0.4334220000000  0.5355840000000 1.0
C      1  0.5274020000000  0.5132670000000  0.5743160000000 1.0
C      1  0.5274040000000  0.5747780000000  0.5103460000000 1.0
C      1  0.4690050000000  0.4871370000000  0.5231270000000 1.0
C      1  0.4690050000000  0.5180210000000  0.5193800000000 1.0
C      1  0.4690050000000  0.5240010000000  0.4888500000000 1.0
C      1  0.4690050000000  0.4968130000000  0.4737290000000 1.0
C      1  0.4690050000000  0.4740300000000  0.4949130000000 1.0
C      1  0.4439030000000  0.4598780000000  0.4644370000000 1.0
C      1  0.4439030000000  0.4537800000000  0.5271690000000 1.0
C      1  0.4439020000000  0.5115570000000  0.5523530000000 1.0
C      1  0.4439030000000  0.5533630000000  0.5051860000000 1.0
C      1  0.4439040000000  0.5214240000000  0.4508510000000 1.0
C      1  0.5371880000000  0.5502480000000  0.4571890000000 1.0
C      1  0.5371850000000  0.4748120000000  0.4389810000000 1.0
C      1  0.5371850000000  0.4341820000000  0.5051000000000 1.0
C      1  0.5371850000000  0.4845110000000  0.5641710000000 1.0
C      1  0.5371850000000  0.5562430000000  0.5345620000000 1.0
C      1  0.4392590000000  0.5382730000000  0.4775860000000 1.0
C      1  0.4392590000000  0.4905120000000  0.4566750000000 1.0
C      1  0.4392580000000  0.4558640000000  0.4956360000000 1.0
C      1  0.4392580000000  0.4822110000000  0.5406270000000 1.0
C      1  0.4392580000000  0.5331430000000  0.5294720000000 1.0
C      1  0.5140670000000  0.5026270000000  0.4739400000000 1.0
C      1  0.5140670000000  0.4760270000000  0.4894490000000 1.0
C      1  0.5140660000000  0.4825570000000  0.5195390000000 1.0
C      1  0.5140670000000  0.5131930000000  0.5226280000000 1.0
C      1  0.5140670000000  0.5255960000000  0.4944460000000 1.0
C      1  0.5185190000000  0.5650340000000  0.4809130000000 1.0
C      1  0.5185190000000  0.5019430000000  0.4322510000000 1.0
C      1  0.5185170000000  0.4361670000000  0.4772140000000 1.0
C      1  0.5185170000000  0.4586050000000  0.5536680000000 1.0
C      1  0.5185160000000  0.5382490000000  0.5559540000000 1.0
END
