TITL C-3985259-1859-169 0.00029868893073543 125000 -322.040516746534 0 0 60 (D4) n - 1
REM
REM in /home/nfs/bkarasulu/CARBON/AIRSS/Generating-Clusters/TERSOFF/Higher-Symm/Only-C60
REM
REM
REM
REM
REM
REM ./C.cell (28575a23ae977d3b5fae324c64b13b57)
REM
REM compiler GCC version 9.2.1 20190827 (Red Hat 9.2.1-1)
REM options -cpp -mtune=generic -march=x86-64 -g -O0 -fpre-include=/usr/include/finclude/math-vector-fortran.h
REM seed -1274775480 1239933995 -1344662563 320132978 1104602451 -1368397113 -1545413243 -1793554658 1144038303 1710427749 616228185 701163471 -434953457 -1142611187 352355096 696045446 12553952 -723891316 1398472069 -672679410 -377104409 -1563599571 647388813 590134212 1281147261 543930516 2104909647 -978090892 -502161974 1847938176 -303311971 -1121827009 -1535720362
REM
CELL 1.54180   50.00000   50.00000   50.00000   90.00000   90.00000   90.00000
LATT -1
SFAC C  
C      1  0.4982760000000  0.4775060000000  0.4419010000000 1.0
C      1  0.4775060000000  0.5017240000000  0.4419020000000 1.0
C      1  0.5017230000000  0.5224940000000  0.4419020000000 1.0
C      1  0.5224930000000  0.4982760000000  0.4419020000000 1.0
C      1  0.4982830000000  0.5224930000000  0.5618960000000 1.0
C      1  0.4775080000000  0.4982760000000  0.5618990000000 1.0
C      1  0.5017300000000  0.4775090000000  0.5619000000000 1.0
C      1  0.5225170000000  0.5017210000000  0.5618910000000 1.0
C      1  0.5113460000000  0.5832240000000  0.4762340000000 1.0
C      1  0.5832270000000  0.4886540000000  0.4762330000000 1.0
C      1  0.4886540000000  0.4167750000000  0.4762340000000 1.0
C      1  0.4167750000000  0.5113460000000  0.4762340000000 1.0
C      1  0.5113320000000  0.4167720000000  0.5275640000000 1.0
C      1  0.5832010000000  0.5113280000000  0.5275540000000 1.0
C      1  0.4886690000000  0.5832250000000  0.5275660000000 1.0
C      1  0.4167670000000  0.4886670000000  0.5275630000000 1.0
C      1  0.5035890000000  0.5453790000000  0.4597970000000 1.0
C      1  0.5453820000000  0.4964110000000  0.4597980000000 1.0
C      1  0.4964120000000  0.4546210000000  0.4597970000000 1.0
C      1  0.4546220000000  0.5035880000000  0.4597970000000 1.0
C      1  0.5035800000000  0.4546210000000  0.5440110000000 1.0
C      1  0.5453710000000  0.5035870000000  0.5440010000000 1.0
C      1  0.4964060000000  0.5453830000000  0.5440110000000 1.0
C      1  0.4546270000000  0.4964150000000  0.5440100000000 1.0
C      1  0.5318590000000  0.5555870000000  0.4694250000000 1.0
C      1  0.5555860000000  0.4681420000000  0.4694220000000 1.0
C      1  0.4681420000000  0.4444140000000  0.4694220000000 1.0
C      1  0.4444140000000  0.5318590000000  0.4694220000000 1.0
C      1  0.5318570000000  0.4444120000000  0.5343860000000 1.0
C      1  0.5555920000000  0.5318740000000  0.5343840000000 1.0
C      1  0.4681430000000  0.5555890000000  0.5343820000000 1.0
C      1  0.4444120000000  0.4681430000000  0.5343830000000 1.0
C      1  0.4610030000000  0.5456150000000  0.4887730000000 1.0
C      1  0.5456160000000  0.5389950000000  0.4887730000000 1.0
C      1  0.5389970000000  0.4543850000000  0.4887740000000 1.0
C      1  0.4543850000000  0.4610030000000  0.4887730000000 1.0
C      1  0.4610010000000  0.4543840000000  0.5150340000000 1.0
C      1  0.5456140000000  0.4610030000000  0.5150330000000 1.0
C      1  0.5389980000000  0.5456130000000  0.5150310000000 1.0
C      1  0.4543850000000  0.5389990000000  0.5150340000000 1.0
C      1  0.5744590000000  0.5078130000000  0.4518880000000 1.0
C      1  0.5078120000000  0.4255400000000  0.4518880000000 1.0
C      1  0.4255400000000  0.4921880000000  0.4518880000000 1.0
C      1  0.4921880000000  0.5744600000000  0.4518880000000 1.0
C      1  0.5744650000000  0.4921750000000  0.5519350000000 1.0
C      1  0.5078140000000  0.5744560000000  0.5519200000000 1.0
C      1  0.4255430000000  0.5078150000000  0.5519210000000 1.0
C      1  0.4921850000000  0.4255420000000  0.5519200000000 1.0
C      1  0.4558300000000  0.4908440000000  0.4877590000000 1.0
C      1  0.4908450000000  0.5441700000000  0.4877590000000 1.0
C      1  0.5441680000000  0.5091560000000  0.4877590000000 1.0
C      1  0.5091570000000  0.4558300000000  0.4877600000000 1.0
C      1  0.4558300000000  0.5091580000000  0.5160470000000 1.0
C      1  0.4908420000000  0.4558310000000  0.5160470000000 1.0
C      1  0.5441710000000  0.4908420000000  0.5160410000000 1.0
C      1  0.5091580000000  0.5441670000000  0.5160510000000 1.0
C      1  0.5953130000000  0.4999830000000  0.5019200000000 1.0
C      1  0.4999810000000  0.4046800000000  0.5019050000000 1.0
C      1  0.4046790000000  0.5000190000000  0.5019040000000 1.0
C      1  0.5000190000000  0.5953210000000  0.5019040000000 1.0
END
