TITL C-3985254-1270-260 -1.8548285811687e-07 125000 -324.670215322748 0 0 60 (C3) n - 1
REM
REM in /home/nfs/bkarasulu/CARBON/AIRSS/Generating-Clusters/TERSOFF/Higher-Symm/Only-C60
REM
REM
REM
REM
REM
REM ./C.cell (28575a23ae977d3b5fae324c64b13b57)
REM
REM compiler GCC version 9.2.1 20190827 (Red Hat 9.2.1-1)
REM options -cpp -mtune=generic -march=x86-64 -g -O0 -fpre-include=/usr/include/finclude/math-vector-fortran.h
REM seed -1072066850 -719194368 -614244691 181849794 -86688622 -386388254 -626934515 -1816824242 1269342405 856145671 118465252 -138979740 -916708646 -2116344518 491184022 -1618247907 -671188299 -2117389268 1980711803 323201952 958679919 -197876602 294118009 925217403 -114201511 1831965004 -715860198 -769753029 -1195090761 -2035664139 1006219907 -326288150 -651357709
REM
CELL 1.54180   50.00000   50.00000   50.00000   90.00000   90.00000   90.00000
LATT -1
SFAC C  
C      1  0.4835570000000  0.4941370000000  0.5717900000000 1.0
C      1  0.4460510000000  0.4941160000000  0.4498650000000 1.0
C      1  0.5703940000000  0.4941370000000  0.4783470000000 1.0
C      1  0.5002420000000  0.5059970000000  0.5339550000000 1.0
C      1  0.4704710000000  0.5059870000000  0.4832310000000 1.0
C      1  0.5292850000000  0.5059950000000  0.4828110000000 1.0
C      1  0.4534720000000  0.4678540000000  0.5419520000000 1.0
C      1  0.4869430000000  0.4678450000000  0.4387320000000 1.0
C      1  0.5595990000000  0.4678650000000  0.5193290000000 1.0
C      1  0.5137950000000  0.4825810000000  0.5158090000000 1.0
C      1  0.4794170000000  0.4825750000000  0.5040440000000 1.0
C      1  0.5067940000000  0.4825750000000  0.4801540000000 1.0
C      1  0.5301090000000  0.4622480000000  0.5314930000000 1.0
C      1  0.4576840000000  0.4622350000000  0.5103320000000 1.0
C      1  0.5122220000000  0.4622360000000  0.4581900000000 1.0
C      1  0.5359840000000  0.5063930000000  0.5122980000000 1.0
C      1  0.4713550000000  0.5063860000000  0.5250140000000 1.0
C      1  0.4926580000000  0.5063810000000  0.4626850000000 1.0
C      1  0.4793710000000  0.5305740000000  0.5032130000000 1.0
C      1  0.5075220000000  0.5305740000000  0.4805260000000 1.0
C      1  0.5130940000000  0.5305800000000  0.5162490000000 1.0
C      1  0.4927440000000  0.5548050000000  0.4449620000000 1.0
C      1  0.5512750000000  0.5548230000000  0.5212300000000 1.0
C      1  0.4559590000000  0.5548120000000  0.5337850000000 1.0
C      1  0.5073970000000  0.4177380000000  0.5194870000000 1.0
C      1  0.4794520000000  0.4177320000000  0.4966690000000 1.0
C      1  0.5131840000000  0.4177340000000  0.4838770000000 1.0
C      1  0.4494250000000  0.5415480000000  0.4759200000000 1.0
C      1  0.5461290000000  0.5415600000000  0.4682380000000 1.0
C      1  0.5044300000000  0.5415660000000  0.5558260000000 1.0
C      1  0.4632610000000  0.5140460000000  0.4338210000000 1.0
C      1  0.5756780000000  0.5140700000000  0.5012710000000 1.0
C      1  0.4610560000000  0.5140630000000  0.5649020000000 1.0
C      1  0.5271020000000  0.4389990000000  0.4685960000000 1.0
C      1  0.5136650000000  0.4390070000000  0.5391780000000 1.0
C      1  0.4592580000000  0.4389930000000  0.4922500000000 1.0
C      1  0.5650030000000  0.4666160000000  0.4899940000000 1.0
C      1  0.4761750000000  0.4666130000000  0.5613000000000 1.0
C      1  0.4588360000000  0.4665960000000  0.4487190000000 1.0
C      1  0.4397890000000  0.5071750000000  0.4784530000000 1.0
C      1  0.5487640000000  0.5071870000000  0.4586290000000 1.0
C      1  0.5114440000000  0.5071950000000  0.5629160000000 1.0
C      1  0.4497710000000  0.4442410000000  0.4651240000000 1.0
C      1  0.5553350000000  0.4442560000000  0.4739430000000 1.0
C      1  0.4949160000000  0.4442600000000  0.5609550000000 1.0
C      1  0.4723710000000  0.5402400000000  0.5546440000000 1.0
C      1  0.4664780000000  0.5402250000000  0.4487470000000 1.0
C      1  0.5611340000000  0.5402440000000  0.4965930000000 1.0
C      1  0.5367860000000  0.4889150000000  0.5520240000000 1.0
C      1  0.4365560000000  0.4888960000000  0.5058460000000 1.0
C      1  0.5266620000000  0.4888990000000  0.4421340000000 1.0
C      1  0.5100050000000  0.5802420000000  0.4825740000000 1.0
C      1  0.5100630000000  0.5802460000000  0.5173710000000 1.0
C      1  0.4798990000000  0.5802400000000  0.5000230000000 1.0
C      1  0.5154870000000  0.5560590000000  0.4660110000000 1.0
C      1  0.5216740000000  0.5560690000000  0.5304020000000 1.0
C      1  0.4628160000000  0.5560570000000  0.5035650000000 1.0
C      1  0.4939970000000  0.4995770000000  0.4305310000000 1.0
C      1  0.5631630000000  0.4996000000000  0.5295360000000 1.0
C      1  0.4428400000000  0.4995850000000  0.5399330000000 1.0
END
