TITL C-3985253-1688-481 -0.00263037232297927 125000 -334.645706264741 0 0 60 (C2h) n - 1
REM
REM in /home/nfs/bkarasulu/CARBON/AIRSS/Generating-Clusters/TERSOFF/Higher-Symm/Only-C60
REM
REM
REM
REM
REM
REM ./C.cell (28575a23ae977d3b5fae324c64b13b57)
REM
REM compiler GCC version 9.2.1 20190827 (Red Hat 9.2.1-1)
REM options -cpp -mtune=generic -march=x86-64 -g -O0 -fpre-include=/usr/include/finclude/math-vector-fortran.h
REM seed -491906794 879292226 -1051636664 -136970862 1537780693 -299579884 -1298272254 1042975788 644448605 57917114 688933551 1535395125 1807211273 508983678 -2057596722 832727101 359571011 -2113630613 -233554518 1559943899 1396741191 -1221792615 111045579 426849845 -2097006278 2001043244 46515686 796994117 834764174 -975437195 352942009 2122006988 561954310
REM
CELL 1.54180   50.00000   50.00000   50.00000   90.00000   90.00000   90.00000
LATT -1
SFAC C  
C      1  0.5167100000000  0.4387240000000  0.4757260000000 1.0
C      1  0.5167100000000  0.5612760000000  0.5242740000000 1.0
C      1  0.4832900000000  0.4387240000000  0.4757260000000 1.0
C      1  0.4832900000000  0.5612760000000  0.5242740000000 1.0
C      1  0.5560830000000  0.5336890000000  0.5025100000000 1.0
C      1  0.5560830000000  0.4663120000000  0.4974900000000 1.0
C      1  0.4439170000000  0.5336890000000  0.5025100000000 1.0
C      1  0.4439170000000  0.4663120000000  0.4974900000000 1.0
C      1  0.4409330000000  0.4976390000000  0.5593030000000 1.0
C      1  0.4409320000000  0.5023610000000  0.4406980000000 1.0
C      1  0.5590670000000  0.4976390000000  0.5593030000000 1.0
C      1  0.5590680000000  0.5023610000000  0.4406980000000 1.0
C      1  0.4741130000000  0.4903620000000  0.4748880000000 1.0
C      1  0.4741130000000  0.5096380000000  0.5251120000000 1.0
C      1  0.5258870000000  0.4903620000000  0.4748880000000 1.0
C      1  0.5258870000000  0.5096380000000  0.5251120000000 1.0
C      1  0.4851840000000  0.5192260000000  0.4919930000000 1.0
C      1  0.4851840000000  0.4807740000000  0.5080070000000 1.0
C      1  0.5148160000000  0.5192260000000  0.4919930000000 1.0
C      1  0.5148160000000  0.4807740000000  0.5080070000000 1.0
C      1  0.5324680000000  0.4436190000000  0.5000800000000 1.0
C      1  0.5324680000000  0.5563810000000  0.4999210000000 1.0
C      1  0.4675320000000  0.4436190000000  0.5000800000000 1.0
C      1  0.4675320000000  0.5563810000000  0.4999200000000 1.0
C      1  0.5149930000000  0.5117580000000  0.4478680000000 1.0
C      1  0.5149930000000  0.4882420000000  0.5521320000000 1.0
C      1  0.4850070000000  0.5117580000000  0.4478680000000 1.0
C      1  0.4850070000000  0.4882420000000  0.5521320000000 1.0
C      1  0.4670490000000  0.4949360000000  0.4267050000000 1.0
C      1  0.4670480000000  0.5050640000000  0.5732940000000 1.0
C      1  0.5329510000000  0.4949370000000  0.4267050000000 1.0
C      1  0.5329520000000  0.5050640000000  0.5732940000000 1.0
C      1  0.5281100000000  0.5389160000000  0.4521880000000 1.0
C      1  0.5281090000000  0.4610840000000  0.5478120000000 1.0
C      1  0.4718900000000  0.5389160000000  0.4521880000000 1.0
C      1  0.4718910000000  0.4610840000000  0.5478120000000 1.0
C      1  0.4422740000000  0.5115900000000  0.5269520000000 1.0
C      1  0.4422740000000  0.4884110000000  0.4730480000000 1.0
C      1  0.5577250000000  0.5115900000000  0.5269520000000 1.0
C      1  0.5577270000000  0.4884110000000  0.4730480000000 1.0
C      1  0.5260530000000  0.5333260000000  0.5691650000000 1.0
C      1  0.5260530000000  0.4666740000000  0.4308360000000 1.0
C      1  0.4739470000000  0.5333260000000  0.5691640000000 1.0
C      1  0.4739470000000  0.4666740000000  0.4308360000000 1.0
C      1  0.5152040000000  0.5355120000000  0.5418580000000 1.0
C      1  0.5152040000000  0.4644880000000  0.4581420000000 1.0
C      1  0.4847960000000  0.5355120000000  0.5418580000000 1.0
C      1  0.4847960000000  0.4644880000000  0.4581420000000 1.0
C      1  0.4418180000000  0.5333600000000  0.4507930000000 1.0
C      1  0.4418190000000  0.4666390000000  0.5492070000000 1.0
C      1  0.5581820000000  0.5333600000000  0.4507930000000 1.0
C      1  0.5581810000000  0.4666390000000  0.5492070000000 1.0
C      1  0.4838200000000  0.5567760000000  0.4733280000000 1.0
C      1  0.4838210000000  0.4432240000000  0.5266720000000 1.0
C      1  0.5161800000000  0.5567750000000  0.4733280000000 1.0
C      1  0.5161800000000  0.4432250000000  0.5266720000000 1.0
C      1  0.4348560000000  0.4793370000000  0.5220150000000 1.0
C      1  0.4348570000000  0.5206630000000  0.4779840000000 1.0
C      1  0.5651440000000  0.4793360000000  0.5220150000000 1.0
C      1  0.5651430000000  0.5206620000000  0.4779840000000 1.0
END
