TITL C-3985250-725-989 0.000406306708821473 125000 -341.474935138745 0 0 60 (C5) n - 1
REM
REM in /home/nfs/bkarasulu/CARBON/AIRSS/Generating-Clusters/TERSOFF/Higher-Symm/Only-C60
REM
REM
REM
REM
REM
REM ./C.cell (28575a23ae977d3b5fae324c64b13b57)
REM
REM compiler GCC version 9.2.1 20190827 (Red Hat 9.2.1-1)
REM options -cpp -mtune=generic -march=x86-64 -g -O0 -fpre-include=/usr/include/finclude/math-vector-fortran.h
REM seed 1470202462 -535987115 1795118088 1805696062 -1347276427 1179849580 -451836511 -1840426750 -1937034473 817383470 -379801208 2053899440 -1749159978 1750156431 105894432 -2034476987 184447765 2141938366 1156785809 1460086400 -799478761 -1087934335 882540739 1472702910 1939458892 -467656318 -928647188 -407436010 363617303 1221870330 1328324686 -2070854205 503511016
REM
CELL 1.54180   50.00000   50.00000   50.00000   90.00000   90.00000   90.00000
LATT -1
SFAC C  
C      1  0.4657020000000  0.5170780000000  0.5611080000000 1.0
C      1  0.5475190000000  0.5170780000000  0.5515030000000 1.0
C      1  0.5636660000000  0.5170780000000  0.4707230000000 1.0
C      1  0.4918300000000  0.5170780000000  0.4304030000000 1.0
C      1  0.4312840000000  0.5170780000000  0.4862640000000 1.0
C      1  0.4657020000000  0.4829220000000  0.5611080000000 1.0
C      1  0.5475190000000  0.4829220000000  0.5515030000000 1.0
C      1  0.5636660000000  0.4829220000000  0.4707230000000 1.0
C      1  0.4918300000000  0.4829220000000  0.4304030000000 1.0
C      1  0.4312840000000  0.4829220000000  0.4862640000000 1.0
C      1  0.5445320000000  0.4422040000000  0.4961300000000 1.0
C      1  0.5100810000000  0.4422050000000  0.4564530000000 1.0
C      1  0.4617000000000  0.4422050000000  0.4769560000000 1.0
C      1  0.4662480000000  0.4422030000000  0.5293050000000 1.0
C      1  0.5174430000000  0.4422020000000  0.5411570000000 1.0
C      1  0.5445320000000  0.5577960000000  0.4961300000000 1.0
C      1  0.5100810000000  0.5577950000000  0.4564530000000 1.0
C      1  0.4617000000000  0.5577950000000  0.4769560000000 1.0
C      1  0.4662480000000  0.5577970000000  0.5293050000000 1.0
C      1  0.5174430000000  0.5577980000000  0.5411570000000 1.0
C      1  0.4901350000000  0.4307830000000  0.5425490000000 1.0
C      1  0.5374180000000  0.4307820000000  0.5225310000000 1.0
C      1  0.5329910000000  0.4307800000000  0.4713750000000 1.0
C      1  0.4829700000000  0.4307800000000  0.4597780000000 1.0
C      1  0.4564850000000  0.4307810000000  0.5037670000000 1.0
C      1  0.4901350000000  0.5692170000000  0.5425490000000 1.0
C      1  0.5374180000000  0.5692180000000  0.5225310000000 1.0
C      1  0.5329910000000  0.5692200000000  0.4713750000000 1.0
C      1  0.4829700000000  0.5692200000000  0.4597780000000 1.0
C      1  0.4564850000000  0.5692190000000  0.5037670000000 1.0
C      1  0.4415670000000  0.4836550000000  0.5166480000000 1.0
C      1  0.4977780000000  0.4836540000000  0.5607160000000 1.0
C      1  0.5570570000000  0.4836550000000  0.5208770000000 1.0
C      1  0.5374870000000  0.4836550000000  0.4521860000000 1.0
C      1  0.4661100000000  0.4836550000000  0.4495720000000 1.0
C      1  0.4415670000000  0.5163450000000  0.5166480000000 1.0
C      1  0.4977780000000  0.5163460000000  0.5607160000000 1.0
C      1  0.5570570000000  0.5163450000000  0.5208770000000 1.0
C      1  0.5374870000000  0.5163450000000  0.4521860000000 1.0
C      1  0.4661100000000  0.5163450000000  0.4495720000000 1.0
C      1  0.4530770000000  0.5329860000000  0.5395190000000 1.0
C      1  0.5230840000000  0.5329870000000  0.5568410000000 1.0
C      1  0.5611890000000  0.5329860000000  0.4956110000000 1.0
C      1  0.5147340000000  0.5329860000000  0.4404510000000 1.0
C      1  0.4479150000000  0.5329870000000  0.4675850000000 1.0
C      1  0.4530770000000  0.4670140000000  0.5395190000000 1.0
C      1  0.5230840000000  0.4670130000000  0.5568410000000 1.0
C      1  0.5611890000000  0.4670140000000  0.4956110000000 1.0
C      1  0.5147340000000  0.4670140000000  0.4404510000000 1.0
C      1  0.4479150000000  0.4670130000000  0.4675850000000 1.0
C      1  0.5253590000000  0.5166320000000  0.5101580000000 1.0
C      1  0.5174970000000  0.5166330000000  0.4790190000000 1.0
C      1  0.4854560000000  0.5166320000000  0.4768760000000 1.0
C      1  0.4735130000000  0.5166320000000  0.5066870000000 1.0
C      1  0.4981730000000  0.5166320000000  0.5272550000000 1.0
C      1  0.5253590000000  0.4833680000000  0.5101580000000 1.0
C      1  0.5174970000000  0.4833670000000  0.4790190000000 1.0
C      1  0.4854560000000  0.4833680000000  0.4768760000000 1.0
C      1  0.4735130000000  0.4833680000000  0.5066870000000 1.0
C      1  0.4981730000000  0.4833680000000  0.5272550000000 1.0
END
