TITL C-3985256-5419-160 5.37504739283187e-05 125000 -311.370122240098 0 0 60 (C3) n - 1
REM
REM in /home/nfs/bkarasulu/CARBON/AIRSS/Generating-Clusters/TERSOFF/Higher-Symm/Only-C60
REM
REM
REM
REM
REM
REM ./C.cell (28575a23ae977d3b5fae324c64b13b57)
REM
REM compiler GCC version 9.2.1 20190827 (Red Hat 9.2.1-1)
REM options -cpp -mtune=generic -march=x86-64 -g -O0 -fpre-include=/usr/include/finclude/math-vector-fortran.h
REM seed 1005658577 1136714699 -1931413856 -436241214 -1223055343 2039931350 2105494270 1657502881 1062962822 773052839 2046523726 -754949644 1512841826 278253070 600738316 -1420974818 899144400 -2095952917 -327150268 -1879718239 -1087510586 -1086895633 -1784552607 -985102633 -73814801 751218954 1964713484 -479562515 1033124487 -206192577 999821205 -1197081715 -491275728
REM
CELL 1.54180   50.00000   50.00000   50.00000   90.00000   90.00000   90.00000
LATT -1
SFAC C  
C      1  0.4842010000000  0.5146240000000  0.4498440000000 1.0
C      1  0.4644630000000  0.5146250000000  0.5387610000000 1.0
C      1  0.5513350000000  0.5146270000000  0.5113960000000 1.0
C      1  0.5157990000000  0.5146240000000  0.4498440000000 1.0
C      1  0.5355370000000  0.5146250000000  0.5387600000000 1.0
C      1  0.4486650000000  0.5146270000000  0.5113960000000 1.0
C      1  0.4657920000000  0.4383310000000  0.5384980000000 1.0
C      1  0.5504600000000  0.4383440000000  0.5103830000000 1.0
C      1  0.4837630000000  0.4383320000000  0.4511220000000 1.0
C      1  0.5342100000000  0.4383330000000  0.5385000000000 1.0
C      1  0.4495370000000  0.4383430000000  0.5103830000000 1.0
C      1  0.5162380000000  0.4383320000000  0.4511220000000 1.0
C      1  0.5364710000000  0.5359150000000  0.4376470000000 1.0
C      1  0.4277660000000  0.5359180000000  0.4995930000000 1.0
C      1  0.5357630000000  0.5359160000000  0.5627610000000 1.0
C      1  0.4635290000000  0.5359150000000  0.4376470000000 1.0
C      1  0.5722340000000  0.5359180000000  0.4995930000000 1.0
C      1  0.4642370000000  0.5359160000000  0.5627610000000 1.0
C      1  0.5155600000000  0.4506400000000  0.5604880000000 1.0
C      1  0.5446060000000  0.4506390000000  0.4562800000000 1.0
C      1  0.4398300000000  0.4506440000000  0.4832310000000 1.0
C      1  0.4844400000000  0.4506390000000  0.5604880000000 1.0
C      1  0.4553950000000  0.4506380000000  0.4562800000000 1.0
C      1  0.5601720000000  0.4506430000000  0.4832310000000 1.0
C      1  0.5525820000000  0.4885060000000  0.4997150000000 1.0
C      1  0.4734630000000  0.4885030000000  0.4546030000000 1.0
C      1  0.4739530000000  0.4885030000000  0.5456790000000 1.0
C      1  0.4474180000000  0.4885070000000  0.4997160000000 1.0
C      1  0.5265360000000  0.4885020000000  0.4546020000000 1.0
C      1  0.5260470000000  0.4885040000000  0.5456790000000 1.0
C      1  0.4263470000000  0.4826930000000  0.4783790000000 1.0
C      1  0.5181020000000  0.4826890000000  0.5745930000000 1.0
C      1  0.5555500000000  0.4826890000000  0.4470260000000 1.0
C      1  0.5736520000000  0.4826930000000  0.4783780000000 1.0
C      1  0.4818980000000  0.4826890000000  0.5745930000000 1.0
C      1  0.4444490000000  0.4826890000000  0.4470260000000 1.0
C      1  0.4842880000000  0.5381010000000  0.4740880000000 1.0
C      1  0.4854150000000  0.5381020000000  0.5265640000000 1.0
C      1  0.5302960000000  0.5381020000000  0.4993490000000 1.0
C      1  0.5157120000000  0.5381010000000  0.4740880000000 1.0
C      1  0.5145850000000  0.5381020000000  0.5265640000000 1.0
C      1  0.4697040000000  0.5381020000000  0.4993490000000 1.0
C      1  0.4819960000000  0.5613710000000  0.4505430000000 1.0
C      1  0.4661720000000  0.5613720000000  0.5403210000000 1.0
C      1  0.5518310000000  0.5613730000000  0.5091360000000 1.0
C      1  0.5180040000000  0.5613710000000  0.4505430000000 1.0
C      1  0.5338280000000  0.5613720000000  0.5403210000000 1.0
C      1  0.4481690000000  0.5613730000000  0.5091360000000 1.0
C      1  0.5160710000000  0.5171810000000  0.5797620000000 1.0
C      1  0.5610400000000  0.5171810000000  0.4462020000000 1.0
C      1  0.4228870000000  0.5171850000000  0.4740380000000 1.0
C      1  0.4839290000000  0.5171810000000  0.5797620000000 1.0
C      1  0.4389600000000  0.5171810000000  0.4462020000000 1.0
C      1  0.5771130000000  0.5171850000000  0.4740380000000 1.0
C      1  0.4857380000000  0.4726310000000  0.4752360000000 1.0
C      1  0.4856850000000  0.4726320000000  0.5247320000000 1.0
C      1  0.5285770000000  0.4726310000000  0.5000320000000 1.0
C      1  0.5142610000000  0.4726310000000  0.4752360000000 1.0
C      1  0.5143150000000  0.4726320000000  0.5247310000000 1.0
C      1  0.4714230000000  0.4726310000000  0.5000310000000 1.0
END
