TITL C-3985254-1270-1770 7.35611371116643e-07 125000 -332.696602635338 0 0 60 (C1) n - 1
REM
REM in /home/nfs/bkarasulu/CARBON/AIRSS/Generating-Clusters/TERSOFF/Higher-Symm/Only-C60
REM
REM
REM
REM
REM
REM ./C.cell (28575a23ae977d3b5fae324c64b13b57)
REM
REM compiler GCC version 9.2.1 20190827 (Red Hat 9.2.1-1)
REM options -cpp -mtune=generic -march=x86-64 -g -O0 -fpre-include=/usr/include/finclude/math-vector-fortran.h
REM seed 1917104810 158637060 589969143 -1093345920 2106540639 1524674051 1194750619 1134726489 -653367543 979922042 994423326 -2043635913 -1504037040 363839797 -1202775607 1025701309 759222013 1973276374 415462935 1613637649 213539409 -1357085819 1512193549 1513633723 1724035465 -997642311 155682485 -1765306732 1213995152 1118414483 -1402411098 -8725325 -97783383
REM
CELL 1.54180   50.00000   50.00000   50.00000   90.00000   90.00000   90.00000
LATT -1
SFAC C  
C      1  0.5696310000000  0.4808320000000  0.4585170000000 1.0
C      1  0.5091280000000  0.4605410000000  0.4368710000000 1.0
C      1  0.5032200000000  0.5265880000000  0.4933720000000 1.0
C      1  0.4952340000000  0.4641650000000  0.5126500000000 1.0
C      1  0.5615230000000  0.4879030000000  0.5076320000000 1.0
C      1  0.5177200000000  0.4388950000000  0.4556640000000 1.0
C      1  0.5158340000000  0.5636540000000  0.4605610000000 1.0
C      1  0.4859880000000  0.5624240000000  0.4644590000000 1.0
C      1  0.4674160000000  0.4508760000000  0.4725750000000 1.0
C      1  0.4611480000000  0.5654500000000  0.5326570000000 1.0
C      1  0.5333330000000  0.4886460000000  0.5166430000000 1.0
C      1  0.5327500000000  0.5477850000000  0.4416020000000 1.0
C      1  0.4564350000000  0.4933610000000  0.4437190000000 1.0
C      1  0.4367440000000  0.5227360000000  0.5180520000000 1.0
C      1  0.5219910000000  0.5521180000000  0.4884090000000 1.0
C      1  0.5037210000000  0.5078500000000  0.4287320000000 1.0
C      1  0.4956810000000  0.4818230000000  0.5381070000000 1.0
C      1  0.4563360000000  0.5471310000000  0.5089430000000 1.0
C      1  0.4796400000000  0.5155590000000  0.4465230000000 1.0
C      1  0.5430420000000  0.5359150000000  0.5311500000000 1.0
C      1  0.5178230000000  0.4737220000000  0.4963650000000 1.0
C      1  0.4481610000000  0.4786040000000  0.5471360000000 1.0
C      1  0.4910860000000  0.5346740000000  0.5526850000000 1.0
C      1  0.4657820000000  0.5217930000000  0.5672410000000 1.0
C      1  0.4978510000000  0.5092760000000  0.4705650000000 1.0
C      1  0.4683460000000  0.4673950000000  0.4991170000000 1.0
C      1  0.5134390000000  0.4862450000000  0.4697020000000 1.0
C      1  0.4744010000000  0.4410550000000  0.5408130000000 1.0
C      1  0.4891190000000  0.5622360000000  0.5407420000000 1.0
C      1  0.5242610000000  0.4875140000000  0.4391050000000 1.0
C      1  0.4760820000000  0.4698430000000  0.5622580000000 1.0
C      1  0.4527770000000  0.4572290000000  0.5236800000000 1.0
C      1  0.4319370000000  0.5037380000000  0.4921150000000 1.0
C      1  0.4326480000000  0.5063290000000  0.4618810000000 1.0
C      1  0.4918110000000  0.4300910000000  0.4722730000000 1.0
C      1  0.4792780000000  0.4652370000000  0.4434880000000 1.0
C      1  0.5417720000000  0.4427820000000  0.4813250000000 1.0
C      1  0.4880570000000  0.4993390000000  0.5754520000000 1.0
C      1  0.5620260000000  0.4683890000000  0.4835490000000 1.0
C      1  0.5079180000000  0.5703090000000  0.5153210000000 1.0
C      1  0.5506950000000  0.5359070000000  0.4839850000000 1.0
C      1  0.4406120000000  0.4651690000000  0.4594460000000 1.0
C      1  0.5517980000000  0.4991450000000  0.4451620000000 1.0
C      1  0.5240180000000  0.4310590000000  0.5447750000000 1.0
C      1  0.4716390000000  0.5436100000000  0.4479260000000 1.0
C      1  0.5264080000000  0.4800960000000  0.5463970000000 1.0
C      1  0.5348600000000  0.5271090000000  0.5599120000000 1.0
C      1  0.5359820000000  0.5637230000000  0.5262560000000 1.0
C      1  0.5192810000000  0.5023820000000  0.5661080000000 1.0
C      1  0.5360450000000  0.4544640000000  0.5555860000000 1.0
C      1  0.4449590000000  0.5087630000000  0.5453660000000 1.0
C      1  0.5246100000000  0.5167110000000  0.5143290000000 1.0
C      1  0.5117550000000  0.4292880000000  0.4960880000000 1.0
C      1  0.5517830000000  0.5278730000000  0.4538660000000 1.0
C      1  0.4771500000000  0.5196930000000  0.5071650000000 1.0
C      1  0.4874290000000  0.5111380000000  0.5329370000000 1.0
C      1  0.5020910000000  0.4339240000000  0.5254060000000 1.0
C      1  0.4608510000000  0.4963790000000  0.4959660000000 1.0
C      1  0.4811750000000  0.5631380000000  0.4942250000000 1.0
C      1  0.5657670000000  0.5203740000000  0.5074470000000 1.0
END
