TITL C-3985245-9316-71 0.00316690068138339 125000 -322.946357297348 0 0 60 (C1) n - 1
REM
REM in /home/nfs/bkarasulu/CARBON/AIRSS/Generating-Clusters/TERSOFF/Higher-Symm/Only-C60
REM
REM
REM
REM
REM
REM ./C.cell (28575a23ae977d3b5fae324c64b13b57)
REM
REM compiler GCC version 9.2.1 20190827 (Red Hat 9.2.1-1)
REM options -cpp -mtune=generic -march=x86-64 -g -O0 -fpre-include=/usr/include/finclude/math-vector-fortran.h
REM seed -1517022195 -578375852 1889841352 518237451 -848328426 1635530801 24286741 -1110463337 1112940608 -1462406014 -486271595 1412428641 -470943515 1759369733 979213224 1335922919 1638276154 1401256249 578830114 12248783 -604564338 1787375440 1749643110 -1238300903 685713992 -871928247 162875803 420453566 -1523330379 -2043689788 1148234094 -1554899945 -2075940433
REM
CELL 1.54180   50.00000   50.00000   50.00000   90.00000   90.00000   90.00000
LATT -1
SFAC C  
C      1  0.5146130000000  0.5467120000000  0.4556840000000 1.0
C      1  0.4726750000000  0.4288980000000  0.5161660000000 1.0
C      1  0.5052100000000  0.4954710000000  0.4173520000000 1.0
C      1  0.4521410000000  0.5532690000000  0.5143060000000 1.0
C      1  0.4829990000000  0.5175970000000  0.4842980000000 1.0
C      1  0.4409380000000  0.5335150000000  0.5331520000000 1.0
C      1  0.4844060000000  0.5262920000000  0.5351320000000 1.0
C      1  0.4971470000000  0.4407910000000  0.5294520000000 1.0
C      1  0.5010240000000  0.5075040000000  0.5211640000000 1.0
C      1  0.4697370000000  0.4825330000000  0.4533290000000 1.0
C      1  0.5330160000000  0.4745950000000  0.5145480000000 1.0
C      1  0.5623520000000  0.4684020000000  0.5104630000000 1.0
C      1  0.5528350000000  0.5362780000000  0.4696350000000 1.0
C      1  0.4729560000000  0.5110710000000  0.5612690000000 1.0
C      1  0.4741420000000  0.4225810000000  0.4861940000000 1.0
C      1  0.5151560000000  0.5523380000000  0.4851260000000 1.0
C      1  0.4474270000000  0.4848440000000  0.4730000000000 1.0
C      1  0.5120040000000  0.4704860000000  0.4333050000000 1.0
C      1  0.4940720000000  0.5052400000000  0.4566460000000 1.0
C      1  0.5126170000000  0.4528160000000  0.5063530000000 1.0
C      1  0.5180440000000  0.4881720000000  0.5387000000000 1.0
C      1  0.4296640000000  0.4805880000000  0.5212510000000 1.0
C      1  0.4912490000000  0.5464810000000  0.4380890000000 1.0
C      1  0.4463710000000  0.5528270000000  0.4567780000000 1.0
C      1  0.4872660000000  0.4566180000000  0.4466870000000 1.0
C      1  0.4879710000000  0.5603010000000  0.4941350000000 1.0
C      1  0.5140180000000  0.5218710000000  0.4971900000000 1.0
C      1  0.5502190000000  0.4960790000000  0.4559450000000 1.0
C      1  0.5518850000000  0.5411920000000  0.5213540000000 1.0
C      1  0.5192380000000  0.4380630000000  0.4812900000000 1.0
C      1  0.5286530000000  0.5183880000000  0.4538420000000 1.0
C      1  0.4476050000000  0.4426490000000  0.5224740000000 1.0
C      1  0.5740190000000  0.5003780000000  0.4748710000000 1.0
C      1  0.5592290000000  0.5082510000000  0.5531520000000 1.0
C      1  0.4450500000000  0.4657940000000  0.5443880000000 1.0
C      1  0.5392410000000  0.4691950000000  0.4484490000000 1.0
C      1  0.4595570000000  0.5418660000000  0.4814360000000 1.0
C      1  0.4705850000000  0.4831550000000  0.5449530000000 1.0
C      1  0.4456960000000  0.4617690000000  0.4951030000000 1.0
C      1  0.5459820000000  0.5519300000000  0.4946760000000 1.0
C      1  0.5273600000000  0.4936980000000  0.4912890000000 1.0
C      1  0.4822550000000  0.5586610000000  0.5242800000000 1.0
C      1  0.5281000000000  0.5119190000000  0.5580430000000 1.0
C      1  0.5061170000000  0.5603120000000  0.5460300000000 1.0
C      1  0.4414130000000  0.5123120000000  0.4861150000000 1.0
C      1  0.4858990000000  0.5183740000000  0.4278460000000 1.0
C      1  0.5054090000000  0.4824440000000  0.4754210000000 1.0
C      1  0.5436330000000  0.4469240000000  0.4679870000000 1.0
C      1  0.4424990000000  0.5077040000000  0.5163510000000 1.0
C      1  0.4937560000000  0.4348790000000  0.4671900000000 1.0
C      1  0.5654370000000  0.4496170000000  0.4877910000000 1.0
C      1  0.5299830000000  0.5403250000000  0.5427080000000 1.0
C      1  0.5701430000000  0.5163010000000  0.5256170000000 1.0
C      1  0.5017500000000  0.5200960000000  0.5752350000000 1.0
C      1  0.4739790000000  0.4938110000000  0.5103680000000 1.0
C      1  0.4819000000000  0.4669370000000  0.4937600000000 1.0
C      1  0.4871310000000  0.5499800000000  0.5695210000000 1.0
C      1  0.4540800000000  0.5370600000000  0.5617140000000 1.0
C      1  0.4962770000000  0.4669320000000  0.5468940000000 1.0
C      1  0.5738690000000  0.4949120000000  0.5045020000000 1.0
END
