TITL C-3985245-9316-1083 -2.23265970920785e-06 125000 -329.969975125875 0 0 60 (D6h) n - 1
REM
REM in /home/nfs/bkarasulu/CARBON/AIRSS/Generating-Clusters/TERSOFF/Higher-Symm/Only-C60
REM
REM
REM
REM
REM
REM ./C.cell (28575a23ae977d3b5fae324c64b13b57)
REM
REM compiler GCC version 9.2.1 20190827 (Red Hat 9.2.1-1)
REM options -cpp -mtune=generic -march=x86-64 -g -O0 -fpre-include=/usr/include/finclude/math-vector-fortran.h
REM seed -296523038 -833248994 -772683855 -742494387 1999752074 -1235601184 898713076 -612403989 -1962441972 -2134474887 -1888364919 1021160948 -416060377 -32313176 -2130528126 39772201 -525456341 -1897059997 -208359286 -810688677 745467244 -1355377816 -1985821101 813666562 1081577101 8442126 795684149 811859711 1340164275 1035706015 -513727815 -35918382 2025115240
REM
CELL 1.54180   50.00000   50.00000   50.00000   90.00000   90.00000   90.00000
LATT -1
SFAC C  
C      1  0.4499800000000  0.5167430000000  0.4441240000000 1.0
C      1  0.5734000000000  0.5167430000000  0.4846190000000 1.0
C      1  0.4766200000000  0.5167430000000  0.5712570000000 1.0
C      1  0.4499800000000  0.4832570000000  0.4441240000000 1.0
C      1  0.5734000000000  0.4832570000000  0.4846190000000 1.0
C      1  0.4766200000000  0.4832570000000  0.5712570000000 1.0
C      1  0.4499800000000  0.5167430000000  0.5558760000000 1.0
C      1  0.5734000000000  0.5167430000000  0.5153810000000 1.0
C      1  0.4766200000000  0.5167430000000  0.4287430000000 1.0
C      1  0.4499800000000  0.4832570000000  0.5558760000000 1.0
C      1  0.5734000000000  0.4832570000000  0.5153810000000 1.0
C      1  0.4766200000000  0.4832570000000  0.4287430000000 1.0
C      1  0.5500200000000  0.4832570000000  0.4441240000000 1.0
C      1  0.5233800000000  0.4832570000000  0.5712570000000 1.0
C      1  0.4266000000000  0.4832570000000  0.4846190000000 1.0
C      1  0.5500200000000  0.5167430000000  0.4441240000000 1.0
C      1  0.5233800000000  0.5167430000000  0.5712570000000 1.0
C      1  0.4266000000000  0.5167430000000  0.4846190000000 1.0
C      1  0.5500200000000  0.4832570000000  0.5558760000000 1.0
C      1  0.5233800000000  0.4832570000000  0.4287430000000 1.0
C      1  0.4266000000000  0.4832570000000  0.5153810000000 1.0
C      1  0.5500200000000  0.5167430000000  0.5558760000000 1.0
C      1  0.5233800000000  0.5167430000000  0.4287430000000 1.0
C      1  0.4266000000000  0.5167430000000  0.5153810000000 1.0
C      1  0.5500190000000  0.5313620000000  0.4711220000000 1.0
C      1  0.5000000000000  0.5313620000000  0.5577570000000 1.0
C      1  0.4499810000000  0.5313620000000  0.4711220000000 1.0
C      1  0.5500190000000  0.4686380000000  0.4711220000000 1.0
C      1  0.5000000000000  0.4686380000000  0.5577570000000 1.0
C      1  0.4499810000000  0.4686380000000  0.4711220000000 1.0
C      1  0.5500190000000  0.5313620000000  0.5288780000000 1.0
C      1  0.5000000000000  0.5313620000000  0.4422430000000 1.0
C      1  0.4499810000000  0.5313620000000  0.5288780000000 1.0
C      1  0.5500190000000  0.4686380000000  0.5288780000000 1.0
C      1  0.5000000000000  0.4686380000000  0.4422430000000 1.0
C      1  0.4499810000000  0.4686380000000  0.5288780000000 1.0
C      1  0.4731880000000  0.5155740000000  0.4845200000000 1.0
C      1  0.5268120000000  0.5155740000000  0.4845200000000 1.0
C      1  0.5000000000000  0.5155740000000  0.5309600000000 1.0
C      1  0.4731880000000  0.4844260000000  0.4845200000000 1.0
C      1  0.5268120000000  0.4844260000000  0.4845200000000 1.0
C      1  0.5000000000000  0.4844260000000  0.5309600000000 1.0
C      1  0.4731880000000  0.5155740000000  0.5154800000000 1.0
C      1  0.5268120000000  0.5155740000000  0.5154800000000 1.0
C      1  0.5000000000000  0.5155740000000  0.4690400000000 1.0
C      1  0.4731880000000  0.4844260000000  0.5154800000000 1.0
C      1  0.5268120000000  0.4844260000000  0.5154800000000 1.0
C      1  0.5000000000000  0.4844260000000  0.4690400000000 1.0
C      1  0.5000000000000  0.4425610000000  0.5325860000000 1.0
C      1  0.4717800000000  0.4425610000000  0.4837070000000 1.0
C      1  0.5282200000000  0.4425610000000  0.4837070000000 1.0
C      1  0.5000000000000  0.5574390000000  0.5325860000000 1.0
C      1  0.4717800000000  0.5574390000000  0.4837070000000 1.0
C      1  0.5282200000000  0.5574390000000  0.4837070000000 1.0
C      1  0.5000000000000  0.4425610000000  0.4674140000000 1.0
C      1  0.4717800000000  0.4425610000000  0.5162930000000 1.0
C      1  0.5282200000000  0.4425610000000  0.5162930000000 1.0
C      1  0.5000000000000  0.5574390000000  0.4674140000000 1.0
C      1  0.4717800000000  0.5574390000000  0.5162930000000 1.0
C      1  0.5282200000000  0.5574390000000  0.5162930000000 1.0
END
