TITL C-3985253-1688-863 -9.51284364891762e-07 125000 -355.234103631713 0 0 60 (C5) n - 1
REM
REM in /home/nfs/bkarasulu/CARBON/AIRSS/Generating-Clusters/TERSOFF/Higher-Symm/Only-C60
REM
REM
REM
REM
REM
REM ./C.cell (28575a23ae977d3b5fae324c64b13b57)
REM
REM compiler GCC version 9.2.1 20190827 (Red Hat 9.2.1-1)
REM options -cpp -mtune=generic -march=x86-64 -g -O0 -fpre-include=/usr/include/finclude/math-vector-fortran.h
REM seed -581998454 2118406497 -670782512 -1611340647 -2126860349 -1186331270 1479695251 1708391156 -2073645405 -1165250073 1838253833 -1961737161 163698586 164720877 -160789148 472164628 1959412057 -1030196357 1231388484 -1921404368 420856228 1568192165 1507901240 1890107165 628137913 256191735 -2031734137 1790061675 -1408402301 -697315398 234332516 666618903 -251357875
REM
CELL 1.54180   50.00000   50.00000   50.00000   90.00000   90.00000   90.00000
LATT -1
SFAC C  
C      1  0.5010770000000  0.4769280000000  0.4900940000000 1.0
C      1  0.5010910000000  0.5022920000000  0.4749970000000 1.0
C      1  0.5010930000000  0.5244880000000  0.4944540000000 1.0
C      1  0.5010810000000  0.5128410000000  0.5215760000000 1.0
C      1  0.5010710000000  0.4834480000000  0.5188810000000 1.0
C      1  0.5187260000000  0.4502600000000  0.5480470000000 1.0
C      1  0.5187440000000  0.4389340000000  0.4675510000000 1.0
C      1  0.5187810000000  0.5119900000000  0.4319060000000 1.0
C      1  0.5187860000000  0.5684670000000  0.4903710000000 1.0
C      1  0.5187520000000  0.5303150000000  0.5621500000000 1.0
C      1  0.4728110000000  0.5586170000000  0.5101120000000 1.0
C      1  0.4727790000000  0.5084960000000  0.5588580000000 1.0
C      1  0.4727650000000  0.4466480000000  0.5262530000000 1.0
C      1  0.4727880000000  0.4585450000000  0.4573580000000 1.0
C      1  0.4728170000000  0.5277450000000  0.4473820000000 1.0
C      1  0.5210980000000  0.5835550000000  0.4643110000000 1.0
C      1  0.5210600000000  0.5597620000000  0.5684490000000 1.0
C      1  0.5210180000000  0.4533690000000  0.5780000000000 1.0
C      1  0.5210290000000  0.4114080000000  0.4797660000000 1.0
C      1  0.5210790000000  0.4918670000000  0.4095030000000 1.0
C      1  0.4922850000000  0.4508330000000  0.4787580000000 1.0
C      1  0.4923140000000  0.5050090000000  0.4466710000000 1.0
C      1  0.4923200000000  0.5522670000000  0.4882800000000 1.0
C      1  0.4922950000000  0.5272980000000  0.5460830000000 1.0
C      1  0.4922730000000  0.4646080000000  0.5401980000000 1.0
C      1  0.5299260000000  0.5722340000000  0.5211210000000 1.0
C      1  0.5298850000000  0.5022350000000  0.5752410000000 1.0
C      1  0.5298710000000  0.4291320000000  0.5253920000000 1.0
C      1  0.5299040000000  0.4539510000000  0.4404640000000 1.0
C      1  0.5299380000000  0.5423930000000  0.4378240000000 1.0
C      1  0.4850180000000  0.5562000000000  0.5370740000000 1.0
C      1  0.4849820000000  0.4821070000000  0.5648980000000 1.0
C      1  0.4849810000000  0.4327490000000  0.5030290000000 1.0
C      1  0.4850160000000  0.4763380000000  0.4369690000000 1.0
C      1  0.4850380000000  0.5526340000000  0.4580100000000 1.0
C      1  0.5499840000000  0.4766950000000  0.4575070000000 1.0
C      1  0.5500040000000  0.5332110000000  0.4647320000000 1.0
C      1  0.5499920000000  0.5438050000000  0.5207150000000 1.0
C      1  0.5499660000000  0.4938360000000  0.5480890000000 1.0
C      1  0.5499610000000  0.4523590000000  0.5090250000000 1.0
C      1  0.5406340000000  0.5457710000000  0.4903530000000 1.0
C      1  0.5406120000000  0.5233190000000  0.5405720000000 1.0
C      1  0.5405930000000  0.4686200000000  0.5347370000000 1.0
C      1  0.5406040000000  0.4572660000000  0.4809120000000 1.0
C      1  0.5406290000000  0.5049480000000  0.4534820000000 1.0
C      1  0.5099820000000  0.4810390000000  0.5829390000000 1.0
C      1  0.5099780000000  0.4152610000000  0.5076020000000 1.0
C      1  0.5100210000000  0.4665840000000  0.4217630000000 1.0
C      1  0.5100510000000  0.5640820000000  0.4440480000000 1.0
C      1  0.5100270000000  0.5730160000000  0.5436610000000 1.0
C      1  0.4445650000000  0.4539220000000  0.5256230000000 1.0
C      1  0.4445850000000  0.4613920000000  0.4640650000000 1.0
C      1  0.4446110000000  0.5222460000000  0.4521470000000 1.0
C      1  0.4446070000000  0.5523850000000  0.5063390000000 1.0
C      1  0.4445790000000  0.5101580000000  0.5517500000000 1.0
C      1  0.4339130000000  0.5254960000000  0.5030630000000 1.0
C      1  0.4338990000000  0.5049650000000  0.5251580000000 1.0
C      1  0.4338930000000  0.4776070000000  0.5124600000000 1.0
C      1  0.4339020000000  0.4812300000000  0.4825170000000 1.0
C      1  0.4339150000000  0.5108260000000  0.4767100000000 1.0
END
