TITL C-3985259-1859-721 -0.00261761297498698 125000 -323.999398445682 0 0 60 (C2) n - 1
REM
REM in /home/nfs/bkarasulu/CARBON/AIRSS/Generating-Clusters/TERSOFF/Higher-Symm/Only-C60
REM
REM
REM
REM
REM
REM ./C.cell (28575a23ae977d3b5fae324c64b13b57)
REM
REM compiler GCC version 9.2.1 20190827 (Red Hat 9.2.1-1)
REM options -cpp -mtune=generic -march=x86-64 -g -O0 -fpre-include=/usr/include/finclude/math-vector-fortran.h
REM seed -25354358 -1607987830 -519820974 122678332 1413791122 1726288450 2111785858 -2033866627 -1206941566 789378072 1234114585 952119767 117473901 931421544 -425185862 2101762534 -1245630526 -1949253313 -649288600 1971793143 923127461 -1092108031 2023850578 2011290828 -803385131 -946905939 -597421031 -1183319270 184956494 -17409356 1930820987 -896227140 274451955
REM
CELL 1.54180   50.00000   50.00000   50.00000   90.00000   90.00000   90.00000
LATT -1
SFAC C  
C      1  0.5072620000000  0.4782240000000  0.5633190000000 1.0
C      1  0.4927380000000  0.4782230000000  0.4366820000000 1.0
C      1  0.5243050000000  0.5100880000000  0.4753750000000 1.0
C      1  0.4756940000000  0.5100850000000  0.5246250000000 1.0
C      1  0.5652540000000  0.5142310000000  0.4913990000000 1.0
C      1  0.4347480000000  0.5142380000000  0.5086050000000 1.0
C      1  0.5189420000000  0.5297690000000  0.4361410000000 1.0
C      1  0.4810570000000  0.5297680000000  0.5638580000000 1.0
C      1  0.4558240000000  0.5088800000000  0.4856300000000 1.0
C      1  0.5441690000000  0.5088760000000  0.5143860000000 1.0
C      1  0.4382240000000  0.5443050000000  0.4995720000000 1.0
C      1  0.5617790000000  0.5443050000000  0.5004280000000 1.0
C      1  0.4460120000000  0.4394870000000  0.4892220000000 1.0
C      1  0.5539880000000  0.4394860000000  0.5107780000000 1.0
C      1  0.4934960000000  0.5099790000000  0.4372210000000 1.0
C      1  0.5065050000000  0.5099790000000  0.5627790000000 1.0
C      1  0.4621570000000  0.5596560000000  0.5201300000000 1.0
C      1  0.5378450000000  0.5596550000000  0.4798680000000 1.0
C      1  0.4431060000000  0.5219220000000  0.4479040000000 1.0
C      1  0.5568930000000  0.5219200000000  0.5520930000000 1.0
C      1  0.5127190000000  0.5532420000000  0.5359550000000 1.0
C      1  0.4872800000000  0.5532400000000  0.4640460000000 1.0
C      1  0.5191370000000  0.4618810000000  0.4414370000000 1.0
C      1  0.4808630000000  0.4618810000000  0.5585630000000 1.0
C      1  0.5327910000000  0.5230700000000  0.5697460000000 1.0
C      1  0.4672090000000  0.5230700000000  0.4302530000000 1.0
C      1  0.5749410000000  0.4815150000000  0.5067950000000 1.0
C      1  0.4250550000000  0.4815040000000  0.4932040000000 1.0
C      1  0.4444160000000  0.5059990000000  0.5376960000000 1.0
C      1  0.5555840000000  0.5060000000000  0.4623050000000 1.0
C      1  0.5137360000000  0.4299410000000  0.5037240000000 1.0
C      1  0.4862640000000  0.4299420000000  0.4962760000000 1.0
C      1  0.4836080000000  0.4774340000000  0.4859470000000 1.0
C      1  0.5163850000000  0.4774380000000  0.5140500000000 1.0
C      1  0.4848760000000  0.5544520000000  0.5461670000000 1.0
C      1  0.5151190000000  0.5544610000000  0.4538160000000 1.0
C      1  0.4729150000000  0.4499440000000  0.4726310000000 1.0
C      1  0.5270870000000  0.4499410000000  0.5273700000000 1.0
C      1  0.4442270000000  0.4899820000000  0.4631360000000 1.0
C      1  0.5557780000000  0.4899810000000  0.5368560000000 1.0
C      1  0.4358220000000  0.4766690000000  0.5273590000000 1.0
C      1  0.5641810000000  0.4766640000000  0.4726430000000 1.0
C      1  0.5622870000000  0.5460870000000  0.5319960000000 1.0
C      1  0.4377150000000  0.5460890000000  0.4680020000000 1.0
C      1  0.4943520000000  0.5045200000000  0.4693170000000 1.0
C      1  0.5056570000000  0.5045230000000  0.5306850000000 1.0
C      1  0.5212670000000  0.5295680000000  0.5197580000000 1.0
C      1  0.4787310000000  0.5295680000000  0.4802430000000 1.0
C      1  0.4654780000000  0.4687100000000  0.4491390000000 1.0
C      1  0.5345210000000  0.4687090000000  0.5508620000000 1.0
C      1  0.4781290000000  0.5352590000000  0.5094630000000 1.0
C      1  0.5218710000000  0.5352570000000  0.4905490000000 1.0
C      1  0.4622130000000  0.4344390000000  0.5164500000000 1.0
C      1  0.5377870000000  0.4344390000000  0.4835500000000 1.0
C      1  0.5358170000000  0.4603510000000  0.4684530000000 1.0
C      1  0.4641830000000  0.4603480000000  0.5315450000000 1.0
C      1  0.4544810000000  0.5179740000000  0.5634890000000 1.0
C      1  0.5455180000000  0.5179770000000  0.4365070000000 1.0
C      1  0.4747430000000  0.4824320000000  0.5128250000000 1.0
C      1  0.5252580000000  0.4824230000000  0.4871780000000 1.0
END
