TITL C-3985250-725-215 0.000137789987533903 125000 -295.837624773548 0 0 60 (C5) n - 1
REM
REM in /home/nfs/bkarasulu/CARBON/AIRSS/Generating-Clusters/TERSOFF/Higher-Symm/Only-C60
REM
REM
REM
REM
REM
REM ./C.cell (28575a23ae977d3b5fae324c64b13b57)
REM
REM compiler GCC version 9.2.1 20190827 (Red Hat 9.2.1-1)
REM options -cpp -mtune=generic -march=x86-64 -g -O0 -fpre-include=/usr/include/finclude/math-vector-fortran.h
REM seed 525607981 1631690142 786236183 100028868 1012266687 627156270 -265228643 -215277744 -1025819192 -1886695262 1343331551 -1897481774 -1849974745 -1924455564 89618747 -616403241 2066162849 1856149620 -1398837718 761220547 1971048509 -1219556853 1633775635 946619379 1288905502 684789614 -921562202 -260466652 1015570117 1470066703 -17926604 1072253380 554857904
REM
CELL 1.54180   50.00000   50.00000   50.00000   90.00000   90.00000   90.00000
LATT -1
SFAC C  
C      1  0.4659050000000  0.5507920000000  0.4576050000000 1.0
C      1  0.4491430000000  0.5507930000000  0.5193260000000 1.0
C      1  0.5026650000000  0.5507930000000  0.5543420000000 1.0
C      1  0.5525050000000  0.5507910000000  0.5142590000000 1.0
C      1  0.5297860000000  0.5507920000000  0.4544730000000 1.0
C      1  0.5009300000000  0.4548460000000  0.5584290000000 1.0
C      1  0.5558530000000  0.4548450000000  0.5171720000000 1.0
C      1  0.5335890000000  0.4548430000000  0.4521890000000 1.0
C      1  0.4649060000000  0.4548440000000  0.4532810000000 1.0
C      1  0.4447210000000  0.4548450000000  0.5189400000000 1.0
C      1  0.5010350000000  0.5586060000000  0.5257960000000 1.0
C      1  0.5248530000000  0.5586050000000  0.5069880000000 1.0
C      1  0.5143260000000  0.5586040000000  0.4785250000000 1.0
C      1  0.4840020000000  0.5586040000000  0.4797410000000 1.0
C      1  0.4757880000000  0.5586060000000  0.5089560000000 1.0
C      1  0.4731830000000  0.5011430000000  0.4850910000000 1.0
C      1  0.4775350000000  0.5011450000000  0.5208960000000 1.0
C      1  0.5129340000000  0.5011450000000  0.5278200000000 1.0
C      1  0.5304570000000  0.5011430000000  0.4962950000000 1.0
C      1  0.5058900000000  0.5011420000000  0.4698870000000 1.0
C      1  0.4730290000000  0.5038060000000  0.5646130000000 1.0
C      1  0.5531150000000  0.5038050000000  0.5456170000000 1.0
C      1  0.5597970000000  0.5038040000000  0.4635810000000 1.0
C      1  0.4838410000000  0.5038050000000  0.4318760000000 1.0
C      1  0.4302160000000  0.5038060000000  0.4943170000000 1.0
C      1  0.5324310000000  0.5413290000000  0.5628250000000 1.0
C      1  0.5697730000000  0.5413290000000  0.4885710000000 1.0
C      1  0.5106910000000  0.5413310000000  0.4301120000000 1.0
C      1  0.4368360000000  0.5413310000000  0.4682370000000 1.0
C      1  0.4502720000000  0.5413310000000  0.5502580000000 1.0
C      1  0.4994040000000  0.4437980000000  0.4559570000000 1.0
C      1  0.4579300000000  0.4438020000000  0.4869580000000 1.0
C      1  0.4745960000000  0.4438080000000  0.5359760000000 1.0
C      1  0.5263640000000  0.4438080000000  0.5352780000000 1.0
C      1  0.5417030000000  0.4438020000000  0.4858260000000 1.0
C      1  0.5554200000000  0.4724900000000  0.5449480000000 1.0
C      1  0.5598710000000  0.4724890000000  0.4611830000000 1.0
C      1  0.4815830000000  0.4724900000000  0.4310650000000 1.0
C      1  0.4287450000000  0.4724910000000  0.4962140000000 1.0
C      1  0.4743780000000  0.4724910000000  0.5665980000000 1.0
C      1  0.5240180000000  0.4685760000000  0.4925530000000 1.0
C      1  0.5003440000000  0.4685740000000  0.4748520000000 1.0
C      1  0.4761950000000  0.4685760000000  0.4918990000000 1.0
C      1  0.4849440000000  0.4685800000000  0.5201330000000 1.0
C      1  0.5145000000000  0.4685800000000  0.5205370000000 1.0
C      1  0.4526520000000  0.5087070000000  0.5413080000000 1.0
C      1  0.5246540000000  0.5087060000000  0.5577950000000 1.0
C      1  0.5625880000000  0.5087060000000  0.4944120000000 1.0
C      1  0.5140270000000  0.5087070000000  0.4387460000000 1.0
C      1  0.4460790000000  0.5087070000000  0.4677320000000 1.0
C      1  0.4963680000000  0.5203200000000  0.5668120000000 1.0
C      1  0.5624190000000  0.5203180000000  0.5241010000000 1.0
C      1  0.5422090000000  0.5203190000000  0.4480840000000 1.0
C      1  0.4636680000000  0.5203190000000  0.4438150000000 1.0
C      1  0.4353380000000  0.5203200000000  0.5171920000000 1.0
C      1  0.5679880000000  0.4755820000000  0.4935770000000 1.0
C      1  0.5148990000000  0.4755810000000  0.4333570000000 1.0
C      1  0.4412200000000  0.4755820000000  0.4652350000000 1.0
C      1  0.4487700000000  0.4755850000000  0.5451610000000 1.0
C      1  0.5271180000000  0.4755840000000  0.5626790000000 1.0
END
