TITL C-3985251-913-554 0.0181756044436803 125000 -290.093044175698 0 0 60 (C3i) n - 1
REM
REM in /home/nfs/bkarasulu/CARBON/AIRSS/Generating-Clusters/TERSOFF/Higher-Symm/Only-C60
REM
REM
REM
REM
REM
REM ./C.cell (28575a23ae977d3b5fae324c64b13b57)
REM
REM compiler GCC version 9.2.1 20190827 (Red Hat 9.2.1-1)
REM options -cpp -mtune=generic -march=x86-64 -g -O0 -fpre-include=/usr/include/finclude/math-vector-fortran.h
REM seed 1737641249 1740119291 -1338160997 863970672 1595566313 1014048187 492518892 668731924 -342762888 1116059958 1890010967 1562188659 -362416821 305176599 -1593674009 -752054258 1776178087 537668776 1004220956 -792216787 -1073990118 -73272187 -997148390 -266199419 -1325888554 -300947886 541767349 551683306 1417044689 -673878439 1088308669 -893911745 -306350665
REM
CELL 1.54180   50.00000   50.00000   50.00000   90.00000   90.00000   90.00000
LATT -1
SFAC C  
C      1  0.4761370000000  0.4849300000000  0.4598110000000 1.0
C      1  0.4750230000000  0.5130890000000  0.5401420000000 1.0
C      1  0.4989750000000  0.5281250000000  0.4597740000000 1.0
C      1  0.5238630000000  0.5150700000000  0.5401890000000 1.0
C      1  0.5249770000000  0.4869110000000  0.4598580000000 1.0
C      1  0.5010250000000  0.4718750000000  0.5402260000000 1.0
C      1  0.4313210000000  0.4859260000000  0.4720300000000 1.0
C      1  0.4534760000000  0.5524330000000  0.5280770000000 1.0
C      1  0.5221680000000  0.5665490000000  0.4720230000000 1.0
C      1  0.5686790000000  0.5140740000000  0.5279700000000 1.0
C      1  0.5465240000000  0.4475670000000  0.4719230000000 1.0
C      1  0.4778320000000  0.4334510000000  0.5279770000000 1.0
C      1  0.5584040000000  0.5241070000000  0.4738850000000 1.0
C      1  0.5500080000000  0.4615140000000  0.5260960000000 1.0
C      1  0.4916890000000  0.4374340000000  0.4738950000000 1.0
C      1  0.4415960000000  0.4758930000000  0.5261150000000 1.0
C      1  0.4499920000000  0.5384860000000  0.4739040000000 1.0
C      1  0.5083110000000  0.5625660000000  0.5261050000000 1.0
C      1  0.4852420000000  0.4750180000000  0.4935530000000 1.0
C      1  0.4710320000000  0.5003160000000  0.5063950000000 1.0
C      1  0.4857620000000  0.5252910000000  0.4935230000000 1.0
C      1  0.5147580000000  0.5249820000000  0.5064470000000 1.0
C      1  0.5289680000000  0.4996840000000  0.4936050000000 1.0
C      1  0.5142380000000  0.4747090000000  0.5064770000000 1.0
C      1  0.5329720000000  0.5447850000000  0.5395670000000 1.0
C      1  0.5552990000000  0.4938600000000  0.4604190000000 1.0
C      1  0.5223090000000  0.4490960000000  0.5395500000000 1.0
C      1  0.4670280000000  0.4552150000000  0.4604330000000 1.0
C      1  0.4447010000000  0.5061400000000  0.5395810000000 1.0
C      1  0.4776910000000  0.5509040000000  0.4604500000000 1.0
C      1  0.5481350000000  0.4939110000000  0.5395130000000 1.0
C      1  0.5188590000000  0.4552530000000  0.4605180000000 1.0
C      1  0.4706300000000  0.4613380000000  0.5395170000000 1.0
C      1  0.4518650000000  0.5060890000000  0.4604870000000 1.0
C      1  0.4811410000000  0.5447470000000  0.5394820000000 1.0
C      1  0.5293700000000  0.5386620000000  0.4604830000000 1.0
C      1  0.4938220000000  0.5182080000000  0.4307490000000 1.0
C      1  0.5126830000000  0.5144580000000  0.5691550000000 1.0
C      1  0.5188570000000  0.4962450000000  0.4308770000000 1.0
C      1  0.5061780000000  0.4817920000000  0.5692510000000 1.0
C      1  0.4873170000000  0.4855420000000  0.4308450000000 1.0
C      1  0.4811430000000  0.5037550000000  0.5691230000000 1.0
C      1  0.5333740000000  0.4477430000000  0.4991070000000 1.0
C      1  0.4715120000000  0.4450080000000  0.5008690000000 1.0
C      1  0.4381760000000  0.4971710000000  0.4991980000000 1.0
C      1  0.4666260000000  0.5522570000000  0.5008930000000 1.0
C      1  0.5284880000000  0.5549920000000  0.4991310000000 1.0
C      1  0.5618240000000  0.5028290000000  0.5008020000000 1.0
C      1  0.4389150000000  0.4574490000000  0.4720010000000 1.0
C      1  0.4325790000000  0.5316160000000  0.5280150000000 1.0
C      1  0.4936610000000  0.5740890000000  0.4719980000000 1.0
C      1  0.5610850000000  0.5425510000000  0.5279990000000 1.0
C      1  0.5674210000000  0.4683840000000  0.4719850000000 1.0
C      1  0.5063390000000  0.4259110000000  0.5280020000000 1.0
C      1  0.5133260000000  0.4254160000000  0.4990640000000 1.0
C      1  0.4420780000000  0.4511720000000  0.5009280000000 1.0
C      1  0.4287830000000  0.5257360000000  0.4991020000000 1.0
C      1  0.4866740000000  0.5745840000000  0.5009360000000 1.0
C      1  0.5579220000000  0.5488280000000  0.4990720000000 1.0
C      1  0.5712170000000  0.4742640000000  0.5008980000000 1.0
END
