TITL C-3985259-1859-1254 0.00258990818991783 125000 -321.727609201928 0 0 60 (C2) n - 1
REM
REM in /home/nfs/bkarasulu/CARBON/AIRSS/Generating-Clusters/TERSOFF/Higher-Symm/Only-C60
REM
REM
REM
REM
REM
REM ./C.cell (28575a23ae977d3b5fae324c64b13b57)
REM
REM compiler GCC version 9.2.1 20190827 (Red Hat 9.2.1-1)
REM options -cpp -mtune=generic -march=x86-64 -g -O0 -fpre-include=/usr/include/finclude/math-vector-fortran.h
REM seed -1973417355 -1905503176 -1744238732 2047108927 1046921558 352865457 756524660 -1701197214 1928919940 -703939406 9415178 -949830390 1140483835 1866357005 -1349299029 1743060332 -1964470055 261592173 -1180001896 1820080377 -1153043196 -243743322 -931760281 1895052026 1499609662 -177708359 -1235292098 2079235169 466506534 -1388374380 424163231 -1692509618 1984564558
REM
CELL 1.54180   50.00000   50.00000   50.00000   90.00000   90.00000   90.00000
LATT -1
SFAC C  
C      1  0.4555510000000  0.5514070000000  0.4946640000000 1.0
C      1  0.5444480000000  0.4485910000000  0.4946670000000 1.0
C      1  0.4636950000000  0.5209560000000  0.5680650000000 1.0
C      1  0.5363040000000  0.4790400000000  0.5680620000000 1.0
C      1  0.5007380000000  0.4529150000000  0.4558210000000 1.0
C      1  0.4992610000000  0.5470830000000  0.4558160000000 1.0
C      1  0.5262300000000  0.5443780000000  0.4411400000000 1.0
C      1  0.4737680000000  0.4556160000000  0.4411340000000 1.0
C      1  0.5276430000000  0.4912050000000  0.4344750000000 1.0
C      1  0.4723570000000  0.5088130000000  0.4344580000000 1.0
C      1  0.5205460000000  0.5105280000000  0.5450930000000 1.0
C      1  0.4794590000000  0.4894720000000  0.5450940000000 1.0
C      1  0.4638070000000  0.5002450000000  0.4979060000000 1.0
C      1  0.5361770000000  0.4997660000000  0.4979210000000 1.0
C      1  0.5599230000000  0.4575140000000  0.5192020000000 1.0
C      1  0.4400810000000  0.5424890000000  0.5192050000000 1.0
C      1  0.5019910000000  0.5289030000000  0.5122560000000 1.0
C      1  0.4980190000000  0.4711180000000  0.5122530000000 1.0
C      1  0.5346190000000  0.5586250000000  0.4906010000000 1.0
C      1  0.4653850000000  0.4413760000000  0.4906090000000 1.0
C      1  0.5675230000000  0.5188880000000  0.4648020000000 1.0
C      1  0.4324670000000  0.4811070000000  0.4648000000000 1.0
C      1  0.5184000000000  0.4363400000000  0.4966030000000 1.0
C      1  0.4815980000000  0.5636640000000  0.4966070000000 1.0
C      1  0.4844680000000  0.4984440000000  0.5734410000000 1.0
C      1  0.5155370000000  0.5015580000000  0.5734400000000 1.0
C      1  0.5220390000000  0.4882310000000  0.5218290000000 1.0
C      1  0.4779730000000  0.5117730000000  0.5218240000000 1.0
C      1  0.4497100000000  0.4492910000000  0.4650040000000 1.0
C      1  0.5502840000000  0.5507150000000  0.4650040000000 1.0
C      1  0.4570080000000  0.5282070000000  0.4760020000000 1.0
C      1  0.5429860000000  0.4718000000000  0.4760160000000 1.0
C      1  0.5058900000000  0.5474530000000  0.4862430000000 1.0
C      1  0.4941120000000  0.4525590000000  0.4862420000000 1.0
C      1  0.4288290000000  0.4898930000000  0.5386150000000 1.0
C      1  0.5711720000000  0.5101060000000  0.5386170000000 1.0
C      1  0.4634090000000  0.5346660000000  0.5403490000000 1.0
C      1  0.5365960000000  0.4653220000000  0.5403570000000 1.0
C      1  0.5221220000000  0.5174760000000  0.4772640000000 1.0
C      1  0.4778500000000  0.4825280000000  0.4772300000000 1.0
C      1  0.5112080000000  0.4470100000000  0.5440760000000 1.0
C      1  0.4888150000000  0.5529520000000  0.5440090000000 1.0
C      1  0.4073410000000  0.4988830000000  0.5171160000000 1.0
C      1  0.5926570000000  0.5011170000000  0.5171190000000 1.0
C      1  0.4201790000000  0.5218620000000  0.5032650000000 1.0
C      1  0.5798220000000  0.4781370000000  0.5032670000000 1.0
C      1  0.5174870000000  0.5403320000000  0.5366580000000 1.0
C      1  0.4825140000000  0.4596500000000  0.5366620000000 1.0
C      1  0.5351770000000  0.5151660000000  0.4488530000000 1.0
C      1  0.4648140000000  0.4848370000000  0.4488460000000 1.0
C      1  0.5261820000000  0.4679050000000  0.4513460000000 1.0
C      1  0.4738270000000  0.5320900000000  0.4513540000000 1.0
C      1  0.5561690000000  0.5214310000000  0.5129880000000 1.0
C      1  0.4438340000000  0.4785730000000  0.5129920000000 1.0
C      1  0.5416410000000  0.5468910000000  0.5173370000000 1.0
C      1  0.4583620000000  0.4531090000000  0.5173400000000 1.0
C      1  0.5696420000000  0.4864990000000  0.4749760000000 1.0
C      1  0.4303540000000  0.5134970000000  0.4749820000000 1.0
C      1  0.4185890000000  0.4759340000000  0.4940410000000 1.0
C      1  0.5814110000000  0.5240670000000  0.4940410000000 1.0
END
