TITL C-3985257-5396-167 0.000174130565956035 125000 -311.658942630738 0 0 60 (C1) n - 1
REM
REM in /home/nfs/bkarasulu/CARBON/AIRSS/Generating-Clusters/TERSOFF/Higher-Symm/Only-C60
REM
REM
REM
REM
REM
REM ./C.cell (28575a23ae977d3b5fae324c64b13b57)
REM
REM compiler GCC version 9.2.1 20190827 (Red Hat 9.2.1-1)
REM options -cpp -mtune=generic -march=x86-64 -g -O0 -fpre-include=/usr/include/finclude/math-vector-fortran.h
REM seed -1336151796 -2135860733 1584893316 -1858983144 1480351096 -728300510 -1328836474 -55954682 1714155845 1164676165 596080316 76881394 -898310652 -725340739 1240872294 -1013292596 -1663492900 270389010 -1280984803 991822906 -480435320 361274696 750052391 -1521788401 26003152 2087104459 1785145376 255804944 918291180 293159741 -1180392206 -148863720 -1306455464
REM
CELL 1.54180   50.00000   50.00000   50.00000   90.00000   90.00000   90.00000
LATT -1
SFAC C  
C      1  0.5275520000000  0.4696150000000  0.4315810000000 1.0
C      1  0.4226770000000  0.5163310000000  0.4878410000000 1.0
C      1  0.4989080000000  0.4715580000000  0.4254570000000 1.0
C      1  0.4279850000000  0.4901770000000  0.4751630000000 1.0
C      1  0.4843210000000  0.4963630000000  0.4364930000000 1.0
C      1  0.4832310000000  0.4358820000000  0.4699260000000 1.0
C      1  0.4718830000000  0.4213920000000  0.4918100000000 1.0
C      1  0.4832720000000  0.5443830000000  0.4453860000000 1.0
C      1  0.4691290000000  0.4329310000000  0.5184250000000 1.0
C      1  0.5005900000000  0.4905760000000  0.4628410000000 1.0
C      1  0.5246630000000  0.5175190000000  0.5013330000000 1.0
C      1  0.5673820000000  0.5299010000000  0.5029250000000 1.0
C      1  0.5380690000000  0.4441610000000  0.5136270000000 1.0
C      1  0.5285030000000  0.4638300000000  0.5516150000000 1.0
C      1  0.5616880000000  0.5125100000000  0.4745080000000 1.0
C      1  0.5596830000000  0.4604980000000  0.4913360000000 1.0
C      1  0.5429130000000  0.5336300000000  0.4579990000000 1.0
C      1  0.4884210000000  0.4508660000000  0.5578110000000 1.0
C      1  0.5433120000000  0.4967020000000  0.4275300000000 1.0
C      1  0.4812210000000  0.4637220000000  0.5282330000000 1.0
C      1  0.5180040000000  0.4632120000000  0.4925710000000 1.0
C      1  0.5129660000000  0.5056500000000  0.5284460000000 1.0
C      1  0.5171000000000  0.4358540000000  0.5417640000000 1.0
C      1  0.4530000000000  0.5304990000000  0.5433170000000 1.0
C      1  0.5343650000000  0.5577580000000  0.4741590000000 1.0
C      1  0.5285480000000  0.5227220000000  0.4333710000000 1.0
C      1  0.5477650000000  0.4929740000000  0.4990520000000 1.0
C      1  0.4670830000000  0.4792390000000  0.4852870000000 1.0
C      1  0.4596080000000  0.5019080000000  0.4621660000000 1.0
C      1  0.5359510000000  0.5236060000000  0.5424280000000 1.0
C      1  0.4704330000000  0.5078570000000  0.5062420000000 1.0
C      1  0.4986600000000  0.5121160000000  0.4842050000000 1.0
C      1  0.4374240000000  0.4679970000000  0.5020650000000 1.0
C      1  0.4750410000000  0.5330000000000  0.4729530000000 1.0
C      1  0.5061410000000  0.4763740000000  0.5183610000000 1.0
C      1  0.4968060000000  0.5450770000000  0.5267840000000 1.0
C      1  0.4825100000000  0.4977210000000  0.5626020000000 1.0
C      1  0.4871070000000  0.5567210000000  0.4976150000000 1.0
C      1  0.5405560000000  0.4630030000000  0.4644140000000 1.0
C      1  0.4400990000000  0.5023240000000  0.5468350000000 1.0
C      1  0.4544730000000  0.4552130000000  0.5593490000000 1.0
C      1  0.4552330000000  0.4852820000000  0.5248810000000 1.0
C      1  0.4452610000000  0.5266190000000  0.5022230000000 1.0
C      1  0.5638570000000  0.5189470000000  0.5314890000000 1.0
C      1  0.4921810000000  0.4630750000000  0.4759600000000 1.0
C      1  0.5394640000000  0.5678680000000  0.5226790000000 1.0
C      1  0.4425120000000  0.4456460000000  0.5299190000000 1.0
C      1  0.5071780000000  0.5694830000000  0.4749190000000 1.0
C      1  0.5488470000000  0.4737730000000  0.5296220000000 1.0
C      1  0.5572220000000  0.4889840000000  0.4541270000000 1.0
C      1  0.4944330000000  0.5710250000000  0.4486050000000 1.0
C      1  0.5722000000000  0.4916540000000  0.5371280000000 1.0
C      1  0.5427740000000  0.5487340000000  0.5006130000000 1.0
C      1  0.4546640000000  0.4852100000000  0.5668620000000 1.0
C      1  0.4837220000000  0.5186340000000  0.5371220000000 1.0
C      1  0.4429370000000  0.5497320000000  0.5210130000000 1.0
C      1  0.5230880000000  0.5512110000000  0.5395220000000 1.0
C      1  0.4983360000000  0.5233300000000  0.4309410000000 1.0
C      1  0.4617520000000  0.5691950000000  0.5088360000000 1.0
C      1  0.5052970000000  0.4782250000000  0.5677100000000 1.0
END
