TITL C-3985247-764-724 0.000133657764087039 125000 -316.891814434815 0 0 60 (C2h) n - 1
REM
REM in /home/nfs/bkarasulu/CARBON/AIRSS/Generating-Clusters/TERSOFF/Higher-Symm/Only-C60
REM
REM
REM
REM
REM
REM ./C.cell (28575a23ae977d3b5fae324c64b13b57)
REM
REM compiler GCC version 9.2.1 20190827 (Red Hat 9.2.1-1)
REM options -cpp -mtune=generic -march=x86-64 -g -O0 -fpre-include=/usr/include/finclude/math-vector-fortran.h
REM seed 1620666004 1626675236 1334682251 -1745499550 -718581542 -191773799 1928410986 -1508566074 665391178 1410370654 -705964474 90209588 1108005013 154665379 -1362504768 -2131996900 -1538156057 568543155 -1963507160 1175101696 1119399999 881251585 -1104447825 1432618509 489896237 -944342095 1380351605 -834967035 392838095 936663871 -1687859200 884042394 135440960
REM
CELL 1.54180   50.00000   50.00000   50.00000   90.00000   90.00000   90.00000
LATT -1
SFAC C  
C      1  0.5335130000000  0.4901250000000  0.5330430000000 1.0
C      1  0.4664850000000  0.5098730000000  0.5330410000000 1.0
C      1  0.5335140000000  0.4901250000000  0.4669580000000 1.0
C      1  0.4664860000000  0.5098750000000  0.4669590000000 1.0
C      1  0.5418500000000  0.5398150000000  0.4848320000000 1.0
C      1  0.4581540000000  0.4601890000000  0.4848330000000 1.0
C      1  0.5418420000000  0.5398180000000  0.5151650000000 1.0
C      1  0.4581500000000  0.4601840000000  0.5151700000000 1.0
C      1  0.5568350000000  0.4786510000000  0.5162200000000 1.0
C      1  0.4431640000000  0.5213500000000  0.5162200000000 1.0
C      1  0.5568350000000  0.4786480000000  0.4837820000000 1.0
C      1  0.4431660000000  0.5213530000000  0.4837810000000 1.0
C      1  0.5210970000000  0.4463710000000  0.5478730000000 1.0
C      1  0.4789000000000  0.5536280000000  0.5478730000000 1.0
C      1  0.5210960000000  0.4463720000000  0.4521270000000 1.0
C      1  0.4789050000000  0.5536290000000  0.4521260000000 1.0
C      1  0.4380410000000  0.5522770000000  0.4833730000000 1.0
C      1  0.5619600000000  0.4477260000000  0.4833740000000 1.0
C      1  0.4380400000000  0.5522690000000  0.5166210000000 1.0
C      1  0.5619580000000  0.4477280000000  0.5166220000000 1.0
C      1  0.5214620000000  0.5016530000000  0.5822190000000 1.0
C      1  0.4785390000000  0.4983460000000  0.5822210000000 1.0
C      1  0.5214620000000  0.5016510000000  0.4177800000000 1.0
C      1  0.4785390000000  0.4983490000000  0.4177800000000 1.0
C      1  0.4551500000000  0.4826470000000  0.4495060000000 1.0
C      1  0.5448510000000  0.5173540000000  0.4495060000000 1.0
C      1  0.4551500000000  0.4826440000000  0.5504950000000 1.0
C      1  0.5448480000000  0.5173510000000  0.5504980000000 1.0
C      1  0.5080620000000  0.4744600000000  0.4828510000000 1.0
C      1  0.4919380000000  0.5255400000000  0.4828510000000 1.0
C      1  0.5080610000000  0.4744600000000  0.5171490000000 1.0
C      1  0.4919380000000  0.5255400000000  0.5171500000000 1.0
C      1  0.5216740000000  0.5143420000000  0.5157080000000 1.0
C      1  0.4783270000000  0.4856570000000  0.5157030000000 1.0
C      1  0.5216730000000  0.5143420000000  0.4842970000000 1.0
C      1  0.4783280000000  0.4856600000000  0.4842960000000 1.0
C      1  0.4555450000000  0.5661880000000  0.4645970000000 1.0
C      1  0.5444540000000  0.4338110000000  0.4645960000000 1.0
C      1  0.4555470000000  0.5661880000000  0.5354020000000 1.0
C      1  0.5444560000000  0.4338130000000  0.5353990000000 1.0
C      1  0.5083470000000  0.5264180000000  0.5729290000000 1.0
C      1  0.4916540000000  0.4735810000000  0.5729300000000 1.0
C      1  0.5083470000000  0.5264200000000  0.4270720000000 1.0
C      1  0.4916530000000  0.4735800000000  0.4270720000000 1.0
C      1  0.4864050000000  0.4254340000000  0.4852880000000 1.0
C      1  0.5135960000000  0.5745650000000  0.4852840000000 1.0
C      1  0.4864050000000  0.4254350000000  0.5147130000000 1.0
C      1  0.5135940000000  0.5745670000000  0.5147160000000 1.0
C      1  0.5252710000000  0.5410420000000  0.5537130000000 1.0
C      1  0.4747330000000  0.4589580000000  0.5537210000000 1.0
C      1  0.5252690000000  0.5410410000000  0.4462800000000 1.0
C      1  0.4747300000000  0.4589600000000  0.4462850000000 1.0
C      1  0.4947550000000  0.4479970000000  0.4682710000000 1.0
C      1  0.5052460000000  0.5520020000000  0.4682720000000 1.0
C      1  0.4947540000000  0.4479970000000  0.5317290000000 1.0
C      1  0.5052470000000  0.5520030000000  0.5317250000000 1.0
C      1  0.4768850000000  0.5248340000000  0.4358390000000 1.0
C      1  0.5231150000000  0.4751670000000  0.4358420000000 1.0
C      1  0.4768850000000  0.5248340000000  0.5641600000000 1.0
C      1  0.5231160000000  0.4751660000000  0.5641580000000 1.0
END
