TITL C-3985250-725-328 -3.04562976245512e-07 125000 -292.411301845631 0 0 60 (Td) n - 1
REM
REM in /home/nfs/bkarasulu/CARBON/AIRSS/Generating-Clusters/TERSOFF/Higher-Symm/Only-C60
REM
REM
REM
REM
REM
REM ./C.cell (28575a23ae977d3b5fae324c64b13b57)
REM
REM compiler GCC version 9.2.1 20190827 (Red Hat 9.2.1-1)
REM options -cpp -mtune=generic -march=x86-64 -g -O0 -fpre-include=/usr/include/finclude/math-vector-fortran.h
REM seed -1666574332 1177832086 -261179522 -537818685 -1829354961 -4883232 -398361099 1406019383 427772371 -1329944263 1299803840 1331437370 1847960333 396643165 1838247457 1911923370 82514143 180337591 -1507753003 -1303095857 1526384039 -1502312442 -643825753 -73735721 1708437625 236710009 -2080654615 1181105952 -1826503710 423583905 1740920361 645897992 -989751218
REM
CELL 1.54180   50.00000   50.00000   50.00000   90.00000   90.00000   90.00000
LATT -1
SFAC C  
C      1  0.5648840000000  0.5217050000000  0.5424790000000 1.0
C      1  0.5424790000000  0.5648840000000  0.5217050000000 1.0
C      1  0.5217050000000  0.5424790000000  0.5648840000000 1.0
C      1  0.5648840000000  0.4782950000000  0.4575210000000 1.0
C      1  0.4351160000000  0.4782950000000  0.5424790000000 1.0
C      1  0.4351160000000  0.5217050000000  0.4575210000000 1.0
C      1  0.5424790000000  0.4351160000000  0.4782950000000 1.0
C      1  0.4575210000000  0.4351160000000  0.5217050000000 1.0
C      1  0.4575210000000  0.5648840000000  0.4782950000000 1.0
C      1  0.5217050000000  0.4575210000000  0.4351160000000 1.0
C      1  0.4782950000000  0.4575210000000  0.5648840000000 1.0
C      1  0.4782950000000  0.5424790000000  0.4351160000000 1.0
C      1  0.5648840000000  0.5424790000000  0.5217050000000 1.0
C      1  0.5424790000000  0.5217050000000  0.5648840000000 1.0
C      1  0.5217050000000  0.5648840000000  0.5424790000000 1.0
C      1  0.5648840000000  0.4575210000000  0.4782950000000 1.0
C      1  0.4351160000000  0.5424790000000  0.4782950000000 1.0
C      1  0.4351160000000  0.4575210000000  0.5217050000000 1.0
C      1  0.5424790000000  0.4782950000000  0.4351160000000 1.0
C      1  0.4575210000000  0.5217050000000  0.4351160000000 1.0
C      1  0.4575210000000  0.4782950000000  0.5648840000000 1.0
C      1  0.5217050000000  0.4351160000000  0.4575210000000 1.0
C      1  0.4782950000000  0.5648840000000  0.4575210000000 1.0
C      1  0.4782950000000  0.4351160000000  0.5424790000000 1.0
C      1  0.5085700000000  0.4676600000000  0.5559420000000 1.0
C      1  0.5559420000000  0.5085700000000  0.4676600000000 1.0
C      1  0.4676600000000  0.5559420000000  0.5085700000000 1.0
C      1  0.5085700000000  0.5323400000000  0.4440580000000 1.0
C      1  0.4914300000000  0.5323400000000  0.5559420000000 1.0
C      1  0.4914300000000  0.4676600000000  0.4440580000000 1.0
C      1  0.5559420000000  0.4914300000000  0.5323400000000 1.0
C      1  0.4440580000000  0.4914300000000  0.4676600000000 1.0
C      1  0.4440580000000  0.5085700000000  0.5323400000000 1.0
C      1  0.4676600000000  0.4440580000000  0.4914300000000 1.0
C      1  0.5323400000000  0.4440580000000  0.5085700000000 1.0
C      1  0.5323400000000  0.5559420000000  0.4914300000000 1.0
C      1  0.5085700000000  0.5559420000000  0.4676600000000 1.0
C      1  0.5559420000000  0.4676600000000  0.5085700000000 1.0
C      1  0.4676600000000  0.5085700000000  0.5559420000000 1.0
C      1  0.5085700000000  0.4440580000000  0.5323400000000 1.0
C      1  0.4914300000000  0.5559420000000  0.5323400000000 1.0
C      1  0.4914300000000  0.4440580000000  0.4676600000000 1.0
C      1  0.5559420000000  0.5323400000000  0.4914300000000 1.0
C      1  0.4440580000000  0.4676600000000  0.4914300000000 1.0
C      1  0.4440580000000  0.5323400000000  0.5085700000000 1.0
C      1  0.4676600000000  0.4914300000000  0.4440580000000 1.0
C      1  0.5323400000000  0.5085700000000  0.4440580000000 1.0
C      1  0.5323400000000  0.4914300000000  0.5559420000000 1.0
C      1  0.5367950000000  0.5111730000000  0.5111730000000 1.0
C      1  0.5111730000000  0.5367950000000  0.5111730000000 1.0
C      1  0.5367950000000  0.4888270000000  0.4888270000000 1.0
C      1  0.4632050000000  0.4888270000000  0.5111730000000 1.0
C      1  0.4632050000000  0.5111730000000  0.4888270000000 1.0
C      1  0.5111730000000  0.4632050000000  0.4888270000000 1.0
C      1  0.4888270000000  0.4632050000000  0.5111730000000 1.0
C      1  0.4888270000000  0.5367950000000  0.4888270000000 1.0
C      1  0.4888270000000  0.4888270000000  0.5367950000000 1.0
C      1  0.4888270000000  0.5111730000000  0.4632050000000 1.0
C      1  0.5111730000000  0.4888270000000  0.4632050000000 1.0
C      1  0.5111730000000  0.5111730000000  0.5367950000000 1.0
END
