TITL C-3985251-913-470 -0.000578929125594616 125000 -299.408037551312 0 0 60 (C2) n - 1
REM
REM in /home/nfs/bkarasulu/CARBON/AIRSS/Generating-Clusters/TERSOFF/Higher-Symm/Only-C60
REM
REM
REM
REM
REM
REM ./C.cell (28575a23ae977d3b5fae324c64b13b57)
REM
REM compiler GCC version 9.2.1 20190827 (Red Hat 9.2.1-1)
REM options -cpp -mtune=generic -march=x86-64 -g -O0 -fpre-include=/usr/include/finclude/math-vector-fortran.h
REM seed 431078207 1664330926 -1822443692 149494711 1166885396 -346091819 401149316 -754853927 1968033476 1227422375 -1831146029 -1140918180 1380847347 822594769 -989329717 506054808 1876860586 1887503648 847534627 -895068503 -1947301539 462094211 1089287740 1513525966 592016907 -732291035 412420329 -746887433 -1975491930 1289744115 918344651 1113790995 -2005207898
REM
CELL 1.54180   50.00000   50.00000   50.00000   90.00000   90.00000   90.00000
LATT -1
SFAC C  
C      1  0.4515940000000  0.5277560000000  0.4791630000000 1.0
C      1  0.4729110000000  0.5334180000000  0.4547220000000 1.0
C      1  0.5048570000000  0.5285570000000  0.4477410000000 1.0
C      1  0.5354160000000  0.5343690000000  0.4601710000000 1.0
C      1  0.5523210000000  0.5319110000000  0.4881420000000 1.0
C      1  0.5484060000000  0.5277560000000  0.5208370000000 1.0
C      1  0.5270890000000  0.5334180000000  0.5452780000000 1.0
C      1  0.4951430000000  0.5285570000000  0.5522590000000 1.0
C      1  0.4645840000000  0.5343690000000  0.5398290000000 1.0
C      1  0.4476790000000  0.5319110000000  0.5118580000000 1.0
C      1  0.4497440000000  0.5666370000000  0.5114490000000 1.0
C      1  0.4533650000000  0.5597350000000  0.4809230000000 1.0
C      1  0.4750860000000  0.5694080000000  0.4594550000000 1.0
C      1  0.5043900000000  0.5607750000000  0.4500620000000 1.0
C      1  0.5326950000000  0.5688840000000  0.4615830000000 1.0
C      1  0.5502560000000  0.5666370000000  0.4885510000000 1.0
C      1  0.5466350000000  0.5597350000000  0.5190770000000 1.0
C      1  0.5249140000000  0.5694080000000  0.5405450000000 1.0
C      1  0.4956100000000  0.5607750000000  0.5499380000000 1.0
C      1  0.4673050000000  0.5688840000000  0.5384170000000 1.0
C      1  0.4613800000000  0.4877660000000  0.4329710000000 1.0
C      1  0.5080470000000  0.4831200000000  0.4225880000000 1.0
C      1  0.5516980000000  0.4886560000000  0.4417880000000 1.0
C      1  0.5769040000000  0.4857770000000  0.4849490000000 1.0
C      1  0.5713140000000  0.4823380000000  0.5314610000000 1.0
C      1  0.5386200000000  0.4877660000000  0.5670290000000 1.0
C      1  0.4919530000000  0.4831200000000  0.5774120000000 1.0
C      1  0.4483020000000  0.4886560000000  0.5582120000000 1.0
C      1  0.4230960000000  0.4857770000000  0.5150510000000 1.0
C      1  0.4286860000000  0.4823380000000  0.4685390000000 1.0
C      1  0.5485310000000  0.4654660000000  0.5212470000000 1.0
C      1  0.5260610000000  0.4713050000000  0.5454380000000 1.0
C      1  0.4940790000000  0.4664530000000  0.5524030000000 1.0
C      1  0.4644860000000  0.4722270000000  0.5393050000000 1.0
C      1  0.4474270000000  0.4684940000000  0.5112140000000 1.0
C      1  0.4514700000000  0.4654660000000  0.4787520000000 1.0
C      1  0.4739390000000  0.4713050000000  0.4545620000000 1.0
C      1  0.5059210000000  0.4664530000000  0.4475970000000 1.0
C      1  0.5355140000000  0.4722270000000  0.4606950000000 1.0
C      1  0.5525730000000  0.4684940000000  0.4887860000000 1.0
C      1  0.5395290000000  0.5166970000000  0.5670270000000 1.0
C      1  0.4928030000000  0.5120430000000  0.5770960000000 1.0
C      1  0.4480130000000  0.5175550000000  0.5584700000000 1.0
C      1  0.4238320000000  0.5147100000000  0.5182010000000 1.0
C      1  0.4289580000000  0.5112580000000  0.4688330000000 1.0
C      1  0.4604710000000  0.5166970000000  0.4329730000000 1.0
C      1  0.5071970000000  0.5120430000000  0.4229040000000 1.0
C      1  0.5519870000000  0.5175550000000  0.4415300000000 1.0
C      1  0.5761680000000  0.5147100000000  0.4817990000000 1.0
C      1  0.5710420000000  0.5112580000000  0.5311670000000 1.0
C      1  0.5059920000000  0.4305310000000  0.4529060000000 1.0
C      1  0.5347700000000  0.4403120000000  0.4632640000000 1.0
C      1  0.5508520000000  0.4339550000000  0.4895670000000 1.0
C      1  0.5454060000000  0.4308000000000  0.5211480000000 1.0
C      1  0.5245970000000  0.4390860000000  0.5434700000000 1.0
C      1  0.4940080000000  0.4305310000000  0.5470940000000 1.0
C      1  0.4652300000000  0.4403120000000  0.5367360000000 1.0
C      1  0.4491480000000  0.4339550000000  0.5104330000000 1.0
C      1  0.4545940000000  0.4308000000000  0.4788520000000 1.0
C      1  0.4754020000000  0.4390860000000  0.4565300000000 1.0
END
