TITL C-3985248-2097-189 -1.43260855719205e-06 125000 -315.839260792113 0 0 60 (S4) n - 1
REM
REM in /home/nfs/bkarasulu/CARBON/AIRSS/Generating-Clusters/TERSOFF/Higher-Symm/Only-C60
REM
REM
REM
REM
REM
REM ./C.cell (28575a23ae977d3b5fae324c64b13b57)
REM
REM compiler GCC version 9.2.1 20190827 (Red Hat 9.2.1-1)
REM options -cpp -mtune=generic -march=x86-64 -g -O0 -fpre-include=/usr/include/finclude/math-vector-fortran.h
REM seed 973859667 -752320370 613887109 -469458997 332781277 -1232499321 1269518372 200669612 -1628909232 63233937 -907812659 -52511819 -1967479111 -34597574 1575947507 -1777026814 538968085 945045651 1413432571 396951469 1530587450 -776614509 -994331143 1492255381 -139694956 1939540156 -1019798432 -1109686768 859273427 2046903945 408728793 315566980 -1919524881
REM
CELL 1.54180   50.00000   50.00000   50.00000   90.00000   90.00000   90.00000
LATT -1
SFAC C  
C      1  0.4782270000000  0.4559090000000  0.5460720000000 1.0
C      1  0.4539280000000  0.5440910000000  0.4782270000000 1.0
C      1  0.5217730000000  0.4559090000000  0.4539280000000 1.0
C      1  0.5460720000000  0.5440910000000  0.5217730000000 1.0
C      1  0.5690000000000  0.4872080000000  0.5052010000000 1.0
C      1  0.4947990000000  0.5127920000000  0.5690000000000 1.0
C      1  0.4310000000000  0.4872080000000  0.4947990000000 1.0
C      1  0.5052010000000  0.5127920000000  0.4310000000000 1.0
C      1  0.4634050000000  0.4801660000000  0.5366060000000 1.0
C      1  0.4633940000000  0.5198340000000  0.4634050000000 1.0
C      1  0.5365950000000  0.4801660000000  0.4633940000000 1.0
C      1  0.5366060000000  0.5198340000000  0.5365950000000 1.0
C      1  0.4311280000000  0.5119510000000  0.5384490000000 1.0
C      1  0.4615510000000  0.4880490000000  0.4311280000000 1.0
C      1  0.5688720000000  0.5119510000000  0.4615510000000 1.0
C      1  0.5384490000000  0.4880490000000  0.5688720000000 1.0
C      1  0.4419180000000  0.5097860000000  0.5106570000000 1.0
C      1  0.4893430000000  0.4902140000000  0.4419180000000 1.0
C      1  0.5580820000000  0.5097860000000  0.4893430000000 1.0
C      1  0.5106570000000  0.4902140000000  0.5580820000000 1.0
C      1  0.5315190000000  0.4415140000000  0.4997180000000 1.0
C      1  0.5002820000000  0.5584860000000  0.5315190000000 1.0
C      1  0.4684810000000  0.4415140000000  0.5002820000000 1.0
C      1  0.4997180000000  0.5584860000000  0.4684810000000 1.0
C      1  0.4746770000000  0.5695140000000  0.5150530000000 1.0
C      1  0.4849470000000  0.4304860000000  0.4746770000000 1.0
C      1  0.5253230000000  0.5695140000000  0.4849470000000 1.0
C      1  0.5150530000000  0.4304860000000  0.5253230000000 1.0
C      1  0.4945490000000  0.5039720000000  0.4752280000000 1.0
C      1  0.5247720000000  0.4960280000000  0.4945490000000 1.0
C      1  0.5054510000000  0.5039720000000  0.5247720000000 1.0
C      1  0.4752280000000  0.4960280000000  0.5054510000000 1.0
C      1  0.4721570000000  0.4694530000000  0.4834630000000 1.0
C      1  0.5165370000000  0.5305470000000  0.4721570000000 1.0
C      1  0.5278430000000  0.4694530000000  0.5165370000000 1.0
C      1  0.4834630000000  0.5305470000000  0.5278430000000 1.0
C      1  0.4521250000000  0.4679640000000  0.4534300000000 1.0
C      1  0.5465700000000  0.5320360000000  0.4521250000000 1.0
C      1  0.5478750000000  0.4679640000000  0.5465700000000 1.0
C      1  0.4534300000000  0.5320360000000  0.5478750000000 1.0
C      1  0.4676560000000  0.5064270000000  0.5583080000000 1.0
C      1  0.4416920000000  0.4935730000000  0.4676560000000 1.0
C      1  0.5323440000000  0.5064270000000  0.4416920000000 1.0
C      1  0.5583080000000  0.4935730000000  0.5323440000000 1.0
C      1  0.5252500000000  0.5639900000000  0.5156010000000 1.0
C      1  0.4843990000000  0.4360100000000  0.5252500000000 1.0
C      1  0.4747500000000  0.5639900000000  0.4843990000000 1.0
C      1  0.5156010000000  0.4360100000000  0.4747500000000 1.0
C      1  0.4430540000000  0.4641940000000  0.5130690000000 1.0
C      1  0.4869310000000  0.5358060000000  0.4430540000000 1.0
C      1  0.5569460000000  0.4641940000000  0.4869310000000 1.0
C      1  0.5130690000000  0.5358060000000  0.5569460000000 1.0
C      1  0.4495240000000  0.5551590000000  0.5250320000000 1.0
C      1  0.4749680000000  0.4448410000000  0.4495240000000 1.0
C      1  0.5504760000000  0.5551590000000  0.4749680000000 1.0
C      1  0.5250320000000  0.4448410000000  0.5504760000000 1.0
C      1  0.4979300000000  0.4618300000000  0.4395760000000 1.0
C      1  0.5604240000000  0.5381700000000  0.4979300000000 1.0
C      1  0.5020700000000  0.4618300000000  0.5604240000000 1.0
C      1  0.4395760000000  0.5381700000000  0.5020700000000 1.0
END
