TITL C-3985255-5397-137 -0.000318463035656836 125000 -317.334430145985 0 0 60 (C1) n - 1
REM
REM in /home/nfs/bkarasulu/CARBON/AIRSS/Generating-Clusters/TERSOFF/Higher-Symm/Only-C60
REM
REM
REM
REM
REM
REM ./C.cell (28575a23ae977d3b5fae324c64b13b57)
REM
REM compiler GCC version 9.2.1 20190827 (Red Hat 9.2.1-1)
REM options -cpp -mtune=generic -march=x86-64 -g -O0 -fpre-include=/usr/include/finclude/math-vector-fortran.h
REM seed 924643852 1504509062 932496733 1098693639 1470878997 -790663730 1162201037 341816288 2110765413 331891854 1503948885 1150897874 -404049632 -215956743 1845013823 -178766980 -1788822626 -403902906 -709243577 -512212750 1838715765 1631683207 308972596 -1234907153 -95335035 941972900 -678803303 1772989092 2058766218 -321005003 -1106515004 1284337202 1029045452
REM
CELL 1.54180   50.00000   50.00000   50.00000   90.00000   90.00000   90.00000
LATT -1
SFAC C  
C      1  0.5286570000000  0.5522500000000  0.4530670000000 1.0
C      1  0.5373350000000  0.5233530000000  0.5190600000000 1.0
C      1  0.5135610000000  0.4720430000000  0.4933130000000 1.0
C      1  0.4241560000000  0.5016390000000  0.5274590000000 1.0
C      1  0.5099340000000  0.5270480000000  0.4388550000000 1.0
C      1  0.4612030000000  0.5474110000000  0.5278450000000 1.0
C      1  0.5344570000000  0.5518790000000  0.5226760000000 1.0
C      1  0.5662560000000  0.4956940000000  0.4723120000000 1.0
C      1  0.4919880000000  0.4849160000000  0.5608740000000 1.0
C      1  0.4917900000000  0.5574140000000  0.5261610000000 1.0
C      1  0.4348590000000  0.4534140000000  0.5051620000000 1.0
C      1  0.5733170000000  0.5208520000000  0.4975810000000 1.0
C      1  0.5240940000000  0.4755310000000  0.4359400000000 1.0
C      1  0.4934580000000  0.5236290000000  0.5156480000000 1.0
C      1  0.5368140000000  0.4541170000000  0.4545540000000 1.0
C      1  0.5333640000000  0.5432690000000  0.5663860000000 1.0
C      1  0.5572020000000  0.4666490000000  0.4751740000000 1.0
C      1  0.5550500000000  0.4796130000000  0.5255220000000 1.0
C      1  0.5236640000000  0.4948170000000  0.5592090000000 1.0
C      1  0.4722820000000  0.4425880000000  0.5312440000000 1.0
C      1  0.5232720000000  0.5035110000000  0.4238670000000 1.0
C      1  0.4630860000000  0.5310980000000  0.5546520000000 1.0
C      1  0.4749050000000  0.4415610000000  0.5005480000000 1.0
C      1  0.5221720000000  0.4483080000000  0.5422660000000 1.0
C      1  0.5426350000000  0.4683440000000  0.4999850000000 1.0
C      1  0.4755670000000  0.5312130000000  0.4443140000000 1.0
C      1  0.4767750000000  0.4542650000000  0.4558050000000 1.0
C      1  0.5341480000000  0.5691550000000  0.4987700000000 1.0
C      1  0.4828330000000  0.4800050000000  0.4422830000000 1.0
C      1  0.5049990000000  0.5521480000000  0.4720900000000 1.0
C      1  0.4544250000000  0.4942100000000  0.4862220000000 1.0
C      1  0.4981790000000  0.4818590000000  0.5167830000000 1.0
C      1  0.5146020000000  0.5108600000000  0.4661200000000 1.0
C      1  0.4463130000000  0.4579170000000  0.5319880000000 1.0
C      1  0.4950070000000  0.4605600000000  0.5395030000000 1.0
C      1  0.4488480000000  0.5365150000000  0.5006000000000 1.0
C      1  0.4486370000000  0.4876290000000  0.5366420000000 1.0
C      1  0.4695060000000  0.4965810000000  0.5135600000000 1.0
C      1  0.5014440000000  0.5785150000000  0.5044610000000 1.0
C      1  0.4988410000000  0.4305230000000  0.4886700000000 1.0
C      1  0.5462030000000  0.5171890000000  0.5595620000000 1.0
C      1  0.4682920000000  0.5229800000000  0.4754400000000 1.0
C      1  0.5149890000000  0.5062680000000  0.5293900000000 1.0
C      1  0.5401090000000  0.4704180000000  0.5491390000000 1.0
C      1  0.4862660000000  0.5767720000000  0.4748340000000 1.0
C      1  0.5310260000000  0.4273350000000  0.5241060000000 1.0
C      1  0.5523550000000  0.5452280000000  0.4795360000000 1.0
C      1  0.5433960000000  0.5162070000000  0.4686860000000 1.0
C      1  0.5074810000000  0.4827870000000  0.4636910000000 1.0
C      1  0.4662940000000  0.5011990000000  0.5564810000000 1.0
C      1  0.4690980000000  0.5612430000000  0.4522910000000 1.0
C      1  0.5636870000000  0.5105980000000  0.5280600000000 1.0
C      1  0.4288300000000  0.5120200000000  0.5005280000000 1.0
C      1  0.4723520000000  0.4158840000000  0.5435280000000 1.0
C      1  0.5179100000000  0.5599100000000  0.5465970000000 1.0
C      1  0.4661320000000  0.5031900000000  0.4355430000000 1.0
C      1  0.4530540000000  0.4611060000000  0.4794670000000 1.0
C      1  0.5064620000000  0.4399530000000  0.4622310000000 1.0
C      1  0.4965300000000  0.5265650000000  0.4851400000000 1.0
C      1  0.4298990000000  0.4602440000000  0.4585810000000 1.0
END
