TITL C-3985250-725-642 3.71168048223909e-07 125000 -331.55501091878 0 0 60 (S4) n - 1
REM
REM in /home/nfs/bkarasulu/CARBON/AIRSS/Generating-Clusters/TERSOFF/Higher-Symm/Only-C60
REM
REM
REM
REM
REM
REM ./C.cell (28575a23ae977d3b5fae324c64b13b57)
REM
REM compiler GCC version 9.2.1 20190827 (Red Hat 9.2.1-1)
REM options -cpp -mtune=generic -march=x86-64 -g -O0 -fpre-include=/usr/include/finclude/math-vector-fortran.h
REM seed -303114341 1377929398 1191938666 -203109476 -256045609 117198024 -1732531233 1333676654 -1664133982 -497559897 -2116667515 -1410864634 938473310 -1198952750 -74408862 953898987 1506303477 243107907 317687664 142942394 -1979894165 -1208520656 -318090949 -513827305 266449280 -864931782 1955495386 298635133 1955868511 1703652309 -1596643266 1291521420 716097584
REM
CELL 1.54180   50.00000   50.00000   50.00000   90.00000   90.00000   90.00000
LATT -1
SFAC C  
C      1  0.5491060000000  0.5456920000000  0.5528610000000 1.0
C      1  0.4508940000000  0.5528610000000  0.4543080000000 1.0
C      1  0.5491060000000  0.4543080000000  0.4471390000000 1.0
C      1  0.4508940000000  0.4471390000000  0.5456920000000 1.0
C      1  0.4946160000000  0.5040100000000  0.5732640000000 1.0
C      1  0.5053840000000  0.5732640000000  0.4959900000000 1.0
C      1  0.4946160000000  0.4959900000000  0.4267360000000 1.0
C      1  0.5053840000000  0.4267360000000  0.5040100000000 1.0
C      1  0.5465130000000  0.4626920000000  0.5035890000000 1.0
C      1  0.4534870000000  0.5035890000000  0.5373080000000 1.0
C      1  0.5465130000000  0.5373080000000  0.4964110000000 1.0
C      1  0.4534870000000  0.4964110000000  0.4626920000000 1.0
C      1  0.4982680000000  0.5536240000000  0.4463140000000 1.0
C      1  0.5017320000000  0.4463140000000  0.4463760000000 1.0
C      1  0.4982680000000  0.4463760000000  0.5536860000000 1.0
C      1  0.5017320000000  0.5536860000000  0.5536240000000 1.0
C      1  0.5580230000000  0.5016130000000  0.4605430000000 1.0
C      1  0.4419770000000  0.4605430000000  0.4983870000000 1.0
C      1  0.5580230000000  0.4983870000000  0.5394570000000 1.0
C      1  0.4419770000000  0.5394570000000  0.5016130000000 1.0
C      1  0.5065930000000  0.5284590000000  0.5140840000000 1.0
C      1  0.4934070000000  0.5140840000000  0.4715410000000 1.0
C      1  0.5065930000000  0.4715410000000  0.4859160000000 1.0
C      1  0.4934070000000  0.4859160000000  0.5284590000000 1.0
C      1  0.5105780000000  0.4686340000000  0.4281220000000 1.0
C      1  0.4894220000000  0.4281220000000  0.5313660000000 1.0
C      1  0.5105780000000  0.5313660000000  0.5718780000000 1.0
C      1  0.4894220000000  0.5718780000000  0.4686340000000 1.0
C      1  0.4725600000000  0.4609310000000  0.5597090000000 1.0
C      1  0.5274400000000  0.5597090000000  0.5390690000000 1.0
C      1  0.4725600000000  0.5390690000000  0.4402910000000 1.0
C      1  0.5274400000000  0.4402910000000  0.4609310000000 1.0
C      1  0.4518770000000  0.4888960000000  0.5099840000000 1.0
C      1  0.5481230000000  0.5099840000000  0.5111040000000 1.0
C      1  0.4518770000000  0.5111040000000  0.4900160000000 1.0
C      1  0.5481230000000  0.4900160000000  0.4888960000000 1.0
C      1  0.5482520000000  0.5321670000000  0.4656950000000 1.0
C      1  0.4517480000000  0.4656950000000  0.4678330000000 1.0
C      1  0.5482520000000  0.4678330000000  0.5343050000000 1.0
C      1  0.4517480000000  0.5343050000000  0.5321670000000 1.0
C      1  0.5440720000000  0.5174540000000  0.5649930000000 1.0
C      1  0.4559280000000  0.5649930000000  0.4825460000000 1.0
C      1  0.5440720000000  0.4825460000000  0.4350070000000 1.0
C      1  0.4559280000000  0.4350070000000  0.5174540000000 1.0
C      1  0.5184610000000  0.5040680000000  0.5266480000000 1.0
C      1  0.4815390000000  0.5266480000000  0.4959320000000 1.0
C      1  0.5184610000000  0.4959320000000  0.4733520000000 1.0
C      1  0.4815390000000  0.4733520000000  0.5040680000000 1.0
C      1  0.5242660000000  0.5535420000000  0.5098390000000 1.0
C      1  0.4757340000000  0.5098390000000  0.4464580000000 1.0
C      1  0.5242660000000  0.4464580000000  0.4901610000000 1.0
C      1  0.4757340000000  0.4901610000000  0.5535420000000 1.0
C      1  0.5212850000000  0.5070130000000  0.4409830000000 1.0
C      1  0.4787150000000  0.4409830000000  0.4929870000000 1.0
C      1  0.5212850000000  0.4929870000000  0.5590170000000 1.0
C      1  0.4787150000000  0.5590170000000  0.5070130000000 1.0
C      1  0.4753060000000  0.4453390000000  0.4622940000000 1.0
C      1  0.5246940000000  0.4622940000000  0.5546610000000 1.0
C      1  0.4753060000000  0.5546610000000  0.5377060000000 1.0
C      1  0.5246940000000  0.5377060000000  0.4453390000000 1.0
END
