TITL C-3985251-913-367 -0.00277781937451562 125000 -320.204443448738 0 0 60 (C1) n - 1
REM
REM in /home/nfs/bkarasulu/CARBON/AIRSS/Generating-Clusters/TERSOFF/Higher-Symm/Only-C60
REM
REM
REM
REM
REM
REM ./C.cell (28575a23ae977d3b5fae324c64b13b57)
REM
REM compiler GCC version 9.2.1 20190827 (Red Hat 9.2.1-1)
REM options -cpp -mtune=generic -march=x86-64 -g -O0 -fpre-include=/usr/include/finclude/math-vector-fortran.h
REM seed -1578642840 1284280671 1158547945 -2145581098 1600311207 2008998883 -1854482825 -1710152978 1353011381 -1995753610 1805262181 1449530573 -298585874 -1468876257 1325872889 -967686630 1457817122 658962269 1097660074 1138618467 -513941070 -1995424762 -1733165132 -388365893 -1308601433 -960244613 -185170056 433755549 548649981 -1149473502 -1523906374 1562025137 -33188681
REM
CELL 1.54180   50.00000   50.00000   50.00000   90.00000   90.00000   90.00000
LATT -1
SFAC C  
C      1  0.5487360000000  0.5500670000000  0.4787860000000 1.0
C      1  0.4741260000000  0.5504440000000  0.5463080000000 1.0
C      1  0.5435970000000  0.4755070000000  0.5473340000000 1.0
C      1  0.4516280000000  0.5557740000000  0.5234440000000 1.0
C      1  0.5553660000000  0.4408410000000  0.5207820000000 1.0
C      1  0.4555500000000  0.4480310000000  0.4763350000000 1.0
C      1  0.5235770000000  0.5485620000000  0.4440100000000 1.0
C      1  0.4782860000000  0.4556240000000  0.4556440000000 1.0
C      1  0.5239870000000  0.4516010000000  0.5549960000000 1.0
C      1  0.4427490000000  0.4826760000000  0.4485600000000 1.0
C      1  0.5493040000000  0.5289600000000  0.4540900000000 1.0
C      1  0.4422970000000  0.5199680000000  0.5543540000000 1.0
C      1  0.5549700000000  0.4417810000000  0.4788060000000 1.0
C      1  0.4791820000000  0.4541480000000  0.5459370000000 1.0
C      1  0.5592210000000  0.5149260000000  0.5560590000000 1.0
C      1  0.4556680000000  0.4482350000000  0.5245050000000 1.0
C      1  0.5473020000000  0.5540700000000  0.5249270000000 1.0
C      1  0.4553170000000  0.5434470000000  0.4789410000000 1.0
C      1  0.5240340000000  0.4532620000000  0.4454660000000 1.0
C      1  0.4802910000000  0.5546650000000  0.4417740000000 1.0
C      1  0.5232100000000  0.5496460000000  0.5457020000000 1.0
C      1  0.4462250000000  0.5254760000000  0.4548400000000 1.0
C      1  0.5470040000000  0.4757700000000  0.4518550000000 1.0
C      1  0.4441490000000  0.4781070000000  0.5516810000000 1.0
C      1  0.5690600000000  0.5107600000000  0.5279270000000 1.0
C      1  0.5258560000000  0.5740910000000  0.5117140000000 1.0
C      1  0.5133900000000  0.5246710000000  0.5577210000000 1.0
C      1  0.4254430000000  0.5140730000000  0.4782450000000 1.0
C      1  0.5618530000000  0.4831370000000  0.4763500000000 1.0
C      1  0.4325810000000  0.4838810000000  0.5249630000000 1.0
C      1  0.4768280000000  0.5629270000000  0.4828260000000 1.0
C      1  0.5289680000000  0.4294050000000  0.4847870000000 1.0
C      1  0.4775240000000  0.4263760000000  0.5146120000000 1.0
C      1  0.4831580000000  0.5281510000000  0.4289930000000 1.0
C      1  0.5112080000000  0.4783760000000  0.4301630000000 1.0
C      1  0.4836920000000  0.4754560000000  0.5655310000000 1.0
C      1  0.5614180000000  0.4822080000000  0.5247040000000 1.0
C      1  0.5290760000000  0.4287870000000  0.5150100000000 1.0
C      1  0.5116380000000  0.4756280000000  0.5744450000000 1.0
C      1  0.4308060000000  0.4850000000000  0.4753060000000 1.0
C      1  0.5657460000000  0.5118200000000  0.4779700000000 1.0
C      1  0.4317640000000  0.5138430000000  0.5278170000000 1.0
C      1  0.4774540000000  0.4263390000000  0.4856070000000 1.0
C      1  0.5266700000000  0.5681550000000  0.4828960000000 1.0
C      1  0.4753370000000  0.5724930000000  0.5106150000000 1.0
C      1  0.4835920000000  0.4792340000000  0.4393500000000 1.0
C      1  0.5127790000000  0.5262510000000  0.4264170000000 1.0
C      1  0.4838000000000  0.5247740000000  0.5586110000000 1.0
C      1  0.4649330000000  0.5004680000000  0.5668630000000 1.0
C      1  0.5329450000000  0.5026060000000  0.4350910000000 1.0
C      1  0.5677480000000  0.4632360000000  0.5000030000000 1.0
C      1  0.4363080000000  0.5334250000000  0.5052250000000 1.0
C      1  0.5016600000000  0.5657860000000  0.4639410000000 1.0
C      1  0.4997170000000  0.5707280000000  0.5317280000000 1.0
C      1  0.5053820000000  0.4349280000000  0.5336870000000 1.0
C      1  0.5050680000000  0.4358070000000  0.4666110000000 1.0
C      1  0.4648000000000  0.5042480000000  0.4376290000000 1.0
C      1  0.5315430000000  0.5019410000000  0.5659830000000 1.0
C      1  0.4417730000000  0.4675350000000  0.4991810000000 1.0
C      1  0.5627070000000  0.5318680000000  0.5063410000000 1.0
END
