TITL C-3985259-1859-1025 0.00118845048454176 125000 -321.030191580295 0 0 60 (C1) n - 1
REM
REM in /home/nfs/bkarasulu/CARBON/AIRSS/Generating-Clusters/TERSOFF/Higher-Symm/Only-C60
REM
REM
REM
REM
REM
REM ./C.cell (28575a23ae977d3b5fae324c64b13b57)
REM
REM compiler GCC version 9.2.1 20190827 (Red Hat 9.2.1-1)
REM options -cpp -mtune=generic -march=x86-64 -g -O0 -fpre-include=/usr/include/finclude/math-vector-fortran.h
REM seed -199506316 -366058099 -1574316285 -1637395757 411774116 -953319046 -1989909733 2070682624 -1093224882 1096957563 439657095 1673387311 -487690378 1264786827 -274840367 -1407410649 1787718220 -2032127651 1471845452 1831316492 -366316295 829591808 194876105 -549501373 65482643 -861784520 1323687741 427791974 1954393613 435604311 162364969 -1054693568 799624307
REM
CELL 1.54180   50.00000   50.00000   50.00000   90.00000   90.00000   90.00000
LATT -1
SFAC C  
C      1  0.5516670000000  0.4430280000000  0.5326460000000 1.0
C      1  0.5500430000000  0.5005990000000  0.4342740000000 1.0
C      1  0.5526760000000  0.5560800000000  0.5335270000000 1.0
C      1  0.5532120000000  0.5286460000000  0.4406080000000 1.0
C      1  0.5546340000000  0.5357530000000  0.5543640000000 1.0
C      1  0.5555290000000  0.4355200000000  0.5048620000000 1.0
C      1  0.4300150000000  0.5024950000000  0.5212550000000 1.0
C      1  0.4325540000000  0.4733030000000  0.4710750000000 1.0
C      1  0.4290530000000  0.5265950000000  0.4955410000000 1.0
C      1  0.5122440000000  0.4723060000000  0.5617790000000 1.0
C      1  0.5136390000000  0.4615750000000  0.4457790000000 1.0
C      1  0.5152330000000  0.5684090000000  0.4925620000000 1.0
C      1  0.5175530000000  0.4417160000000  0.4722450000000 1.0
C      1  0.5148280000000  0.5539760000000  0.4618050000000 1.0
C      1  0.5157630000000  0.5042750000000  0.5650390000000 1.0
C      1  0.5488040000000  0.4793510000000  0.4789570000000 1.0
C      1  0.5476960000000  0.5298170000000  0.4915830000000 1.0
C      1  0.5477870000000  0.4916990000000  0.5293150000000 1.0
C      1  0.4921360000000  0.5496570000000  0.4968430000000 1.0
C      1  0.4901170000000  0.4790870000000  0.5424720000000 1.0
C      1  0.4869260000000  0.4667870000000  0.4577180000000 1.0
C      1  0.4978750000000  0.5501720000000  0.5475340000000 1.0
C      1  0.4977520000000  0.4361040000000  0.5210590000000 1.0
C      1  0.4934310000000  0.5113250000000  0.4371370000000 1.0
C      1  0.4942050000000  0.4315950000000  0.4919650000000 1.0
C      1  0.4890230000000  0.5396600000000  0.4482350000000 1.0
C      1  0.4918480000000  0.5244770000000  0.5620030000000 1.0
C      1  0.5206260000000  0.4937560000000  0.4426440000000 1.0
C      1  0.5228220000000  0.5545660000000  0.5251130000000 1.0
C      1  0.5220080000000  0.4523440000000  0.5339270000000 1.0
C      1  0.5658160000000  0.5471970000000  0.5081670000000 1.0
C      1  0.5653720000000  0.4689950000000  0.5370990000000 1.0
C      1  0.5650930000000  0.4845100000000  0.4544060000000 1.0
C      1  0.5409150000000  0.5104090000000  0.5512000000000 1.0
C      1  0.5424270000000  0.4508060000000  0.4842150000000 1.0
C      1  0.5401790000000  0.5389860000000  0.4641140000000 1.0
C      1  0.5242630000000  0.5243100000000  0.5152620000000 1.0
C      1  0.5224530000000  0.4758430000000  0.5114410000000 1.0
C      1  0.5230110000000  0.5010170000000  0.4736250000000 1.0
C      1  0.4399000000000  0.5255310000000  0.5431150000000 1.0
C      1  0.4422190000000  0.4544500000000  0.4926650000000 1.0
C      1  0.4373800000000  0.5254730000000  0.4651800000000 1.0
C      1  0.4690010000000  0.4836340000000  0.5064650000000 1.0
C      1  0.4695460000000  0.5056090000000  0.4832570000000 1.0
C      1  0.4691220000000  0.5177970000000  0.5141320000000 1.0
C      1  0.4620730000000  0.5137490000000  0.5600630000000 1.0
C      1  0.4634900000000  0.4332040000000  0.4828960000000 1.0
C      1  0.4598610000000  0.5462080000000  0.4601240000000 1.0
C      1  0.4949170000000  0.4735340000000  0.4922700000000 1.0
C      1  0.4976250000000  0.5185560000000  0.4834470000000 1.0
C      1  0.4982580000000  0.5077030000000  0.5240790000000 1.0
C      1  0.4797460000000  0.5568220000000  0.5251410000000 1.0
C      1  0.4749450000000  0.4513570000000  0.5325950000000 1.0
C      1  0.4733750000000  0.4900760000000  0.4444590000000 1.0
C      1  0.4609070000000  0.4852330000000  0.5526720000000 1.0
C      1  0.4702860000000  0.4428230000000  0.4563170000000 1.0
C      1  0.4634390000000  0.5585240000000  0.4865810000000 1.0
C      1  0.4455430000000  0.4699660000000  0.5228400000000 1.0
C      1  0.4483310000000  0.4970300000000  0.4609150000000 1.0
C      1  0.4488080000000  0.5459690000000  0.5173890000000 1.0
END
