TITL C-3985244-725-464 -0.00104258590822576 125000 -330.332168772622 0 0 60 (C1) n - 1
REM
REM in /home/nfs/bkarasulu/CARBON/AIRSS/Generating-Clusters/TERSOFF/Higher-Symm/Only-C60
REM
REM
REM
REM
REM
REM ./C.cell (28575a23ae977d3b5fae324c64b13b57)
REM
REM compiler GCC version 9.2.1 20190827 (Red Hat 9.2.1-1)
REM options -cpp -mtune=generic -march=x86-64 -g -O0 -fpre-include=/usr/include/finclude/math-vector-fortran.h
REM seed 1860872619 -1447040935 -1636104418 -1985393174 -542757132 -345248374 -1445306174 -389961101 374934743 -48211750 -1158744493 -299863965 -195170623 1035873147 174037630 -1860868894 1152176561 1946303637 989912375 660586146 1042375687 1142671985 1445944502 1418636060 -1123565290 -1608268899 1479374997 -1995120164 1067185853 -95169235 1199673863 388956251 -1443825791
REM
CELL 1.54180   50.00000   50.00000   50.00000   90.00000   90.00000   90.00000
LATT -1
SFAC C  
C      1  0.4711660000000  0.5081390000000  0.4369390000000 1.0
C      1  0.5261270000000  0.5136030000000  0.4382290000000 1.0
C      1  0.5014230000000  0.4885700000000  0.4335530000000 1.0
C      1  0.4582100000000  0.4413470000000  0.5194200000000 1.0
C      1  0.4700480000000  0.5631870000000  0.5182240000000 1.0
C      1  0.5699410000000  0.4934730000000  0.5186970000000 1.0
C      1  0.5564120000000  0.5391690000000  0.4894720000000 1.0
C      1  0.5052360000000  0.4302460000000  0.4896950000000 1.0
C      1  0.4362150000000  0.5293620000000  0.4891300000000 1.0
C      1  0.4843500000000  0.4476960000000  0.5059630000000 1.0
C      1  0.4623330000000  0.5371520000000  0.5053970000000 1.0
C      1  0.5505240000000  0.5126970000000  0.5065270000000 1.0
C      1  0.5168300000000  0.4261640000000  0.5215330000000 1.0
C      1  0.4271090000000  0.5222780000000  0.5225820000000 1.0
C      1  0.5560690000000  0.5512300000000  0.5221140000000 1.0
C      1  0.4430690000000  0.4816200000000  0.5508660000000 1.0
C      1  0.5129430000000  0.5586230000000  0.5496830000000 1.0
C      1  0.5444300000000  0.4594860000000  0.5501650000000 1.0
C      1  0.4497100000000  0.5117800000000  0.5430910000000 1.0
C      1  0.5362140000000  0.5377720000000  0.5433990000000 1.0
C      1  0.5152320000000  0.4496890000000  0.5428080000000 1.0
C      1  0.4890390000000  0.4527780000000  0.5598170000000 1.0
C      1  0.4650060000000  0.5330680000000  0.5598560000000 1.0
C      1  0.5466190000000  0.5135680000000  0.5601320000000 1.0
C      1  0.5672620000000  0.5204130000000  0.4668760000000 1.0
C      1  0.4885940000000  0.4390110000000  0.4643250000000 1.0
C      1  0.4475640000000  0.5444250000000  0.4635360000000 1.0
C      1  0.5293510000000  0.5481720000000  0.4756130000000 1.0
C      1  0.5271810000000  0.4499210000000  0.4768840000000 1.0
C      1  0.4402600000000  0.5000780000000  0.4774090000000 1.0
C      1  0.4223900000000  0.4699370000000  0.5313850000000 1.0
C      1  0.5131420000000  0.5793930000000  0.5270650000000 1.0
C      1  0.5644270000000  0.4480940000000  0.5298150000000 1.0
C      1  0.4519140000000  0.4799000000000  0.4956940000000 1.0
C      1  0.5042660000000  0.5458670000000  0.4917200000000 1.0
C      1  0.5397440000000  0.4704230000000  0.4953850000000 1.0
C      1  0.5019260000000  0.5265870000000  0.5147310000000 1.0
C      1  0.5227620000000  0.4830670000000  0.5174070000000 1.0
C      1  0.4749270000000  0.4884410000000  0.5118030000000 1.0
C      1  0.4804660000000  0.5546840000000  0.5466640000000 1.0
C      1  0.5571130000000  0.4892830000000  0.5468610000000 1.0
C      1  0.4623450000000  0.4555510000000  0.5472600000000 1.0
C      1  0.4970860000000  0.4695720000000  0.5220080000000 1.0
C      1  0.4745140000000  0.5149890000000  0.5214420000000 1.0
C      1  0.5256660000000  0.5134390000000  0.5235250000000 1.0
C      1  0.4944760000000  0.5518550000000  0.4394310000000 1.0
C      1  0.5518590000000  0.4748700000000  0.4415730000000 1.0
C      1  0.4557590000000  0.4685000000000  0.4469920000000 1.0
C      1  0.5213420000000  0.5421060000000  0.4463550000000 1.0
C      1  0.5238340000000  0.4625050000000  0.4460390000000 1.0
C      1  0.4455810000000  0.4951550000000  0.4480930000000 1.0
C      1  0.4990970000000  0.4948840000000  0.4748250000000 1.0
C      1  0.4884760000000  0.5241950000000  0.4750160000000 1.0
C      1  0.5293570000000  0.4919290000000  0.4768730000000 1.0
C      1  0.4835270000000  0.4674340000000  0.4567530000000 1.0
C      1  0.4732440000000  0.5346250000000  0.4510370000000 1.0
C      1  0.5477400000000  0.5017010000000  0.4548120000000 1.0
C      1  0.5681420000000  0.4659200000000  0.5058770000000 1.0
C      1  0.4354320000000  0.4577840000000  0.5073470000000 1.0
C      1  0.4949780000000  0.5725910000000  0.5042810000000 1.0
END
