TITL C-3985254-1270-1581 0.00167260432835875 125000 -315.782094408413 0 0 60 (C1) n - 1
REM
REM in /home/nfs/bkarasulu/CARBON/AIRSS/Generating-Clusters/TERSOFF/Higher-Symm/Only-C60
REM
REM
REM
REM
REM
REM ./C.cell (28575a23ae977d3b5fae324c64b13b57)
REM
REM compiler GCC version 9.2.1 20190827 (Red Hat 9.2.1-1)
REM options -cpp -mtune=generic -march=x86-64 -g -O0 -fpre-include=/usr/include/finclude/math-vector-fortran.h
REM seed 1891013869 -530354407 -1817097173 -903356678 -1764055699 1215442180 -1898476172 348941469 -1953489832 -389466197 -1844661470 -807318553 1873026125 1473986776 534251897 -903444043 1182693223 -401666667 181783349 450408046 -1566608188 -1930980336 -973262214 232701648 152456037 1196089217 730883563 1441671727 1273305457 -36261834 -1995623508 -2020620971 -711233402
REM
CELL 1.54180   50.00000   50.00000   50.00000   90.00000   90.00000   90.00000
LATT -1
SFAC C  
C      1  0.5147930000000  0.5270000000000  0.4803850000000 1.0
C      1  0.5430350000000  0.4371580000000  0.5158230000000 1.0
C      1  0.5364470000000  0.5068450000000  0.5523440000000 1.0
C      1  0.5220130000000  0.5291350000000  0.4506320000000 1.0
C      1  0.5109760000000  0.4329160000000  0.5129070000000 1.0
C      1  0.4803500000000  0.4432270000000  0.4977030000000 1.0
C      1  0.4226300000000  0.5093410000000  0.4688460000000 1.0
C      1  0.5640620000000  0.4478170000000  0.4912550000000 1.0
C      1  0.4453380000000  0.4796810000000  0.4993020000000 1.0
C      1  0.4958810000000  0.4926240000000  0.4133180000000 1.0
C      1  0.5492810000000  0.5105760000000  0.4592660000000 1.0
C      1  0.4400380000000  0.5036420000000  0.5135210000000 1.0
C      1  0.4760640000000  0.5252630000000  0.5705060000000 1.0
C      1  0.4989250000000  0.4730920000000  0.4350090000000 1.0
C      1  0.5584350000000  0.5205640000000  0.5329580000000 1.0
C      1  0.5234070000000  0.5537730000000  0.4885380000000 1.0
C      1  0.4825050000000  0.5686820000000  0.4805860000000 1.0
C      1  0.4938390000000  0.4889970000000  0.5550850000000 1.0
C      1  0.4779500000000  0.5645740000000  0.5492250000000 1.0
C      1  0.5613980000000  0.5044170000000  0.5082280000000 1.0
C      1  0.5436970000000  0.4677780000000  0.5219630000000 1.0
C      1  0.5373480000000  0.4764560000000  0.5494260000000 1.0
C      1  0.4342370000000  0.4814780000000  0.4720550000000 1.0
C      1  0.5414320000000  0.4791560000000  0.4552360000000 1.0
C      1  0.5168160000000  0.4369910000000  0.4779460000000 1.0
C      1  0.5526700000000  0.5488080000000  0.5252770000000 1.0
C      1  0.5211530000000  0.4802900000000  0.5002720000000 1.0
C      1  0.5120430000000  0.4644870000000  0.5586310000000 1.0
C      1  0.4598380000000  0.4829970000000  0.4557020000000 1.0
C      1  0.4470150000000  0.5013550000000  0.5414000000000 1.0
C      1  0.4971490000000  0.4887770000000  0.5206900000000 1.0
C      1  0.4869990000000  0.5200940000000  0.4169590000000 1.0
C      1  0.5431170000000  0.4517370000000  0.4699710000000 1.0
C      1  0.4546180000000  0.5530530000000  0.5273410000000 1.0
C      1  0.4755810000000  0.4578030000000  0.4453280000000 1.0
C      1  0.4676750000000  0.4480330000000  0.5431640000000 1.0
C      1  0.5525320000000  0.5525250000000  0.4952240000000 1.0
C      1  0.4754460000000  0.4731140000000  0.5009750000000 1.0
C      1  0.4577650000000  0.4369320000000  0.5173180000000 1.0
C      1  0.5371130000000  0.5053120000000  0.4899780000000 1.0
C      1  0.4981450000000  0.4428880000000  0.5426370000000 1.0
C      1  0.5112550000000  0.4802720000000  0.4647870000000 1.0
C      1  0.5661430000000  0.5326550000000  0.4768180000000 1.0
C      1  0.4568850000000  0.5109070000000  0.4446660000000 1.0
C      1  0.4738550000000  0.5483860000000  0.4598180000000 1.0
C      1  0.5726470000000  0.4756870000000  0.5097980000000 1.0
C      1  0.4452840000000  0.5335720000000  0.4648930000000 1.0
C      1  0.4828190000000  0.4898630000000  0.4767260000000 1.0
C      1  0.4885260000000  0.5298350000000  0.5193240000000 1.0
C      1  0.5068870000000  0.5196760000000  0.5689780000000 1.0
C      1  0.4640530000000  0.4783160000000  0.5524310000000 1.0
C      1  0.5164740000000  0.5175650000000  0.5281620000000 1.0
C      1  0.5050890000000  0.5511280000000  0.5547120000000 1.0
C      1  0.4996780000000  0.5619370000000  0.5071170000000 1.0
C      1  0.4851440000000  0.4384690000000  0.4661930000000 1.0
C      1  0.4839370000000  0.5189170000000  0.4879750000000 1.0
C      1  0.4632160000000  0.5255460000000  0.5443820000000 1.0
C      1  0.4515060000000  0.5300580000000  0.4996860000000 1.0
C      1  0.5224070000000  0.5518860000000  0.5304600000000 1.0
C      1  0.4944410000000  0.5359370000000  0.4401420000000 1.0
END
