TITL C-3985245-9316-808 1.59598177184334e-05 125000 -352.281688205943 0 0 60 (C2h) n - 1
REM
REM in /home/nfs/bkarasulu/CARBON/AIRSS/Generating-Clusters/TERSOFF/Higher-Symm/Only-C60
REM
REM
REM
REM
REM
REM ./C.cell (28575a23ae977d3b5fae324c64b13b57)
REM
REM compiler GCC version 9.2.1 20190827 (Red Hat 9.2.1-1)
REM options -cpp -mtune=generic -march=x86-64 -g -O0 -fpre-include=/usr/include/finclude/math-vector-fortran.h
REM seed 1025494712 1305799973 209037469 -149287821 -1837221770 -1885231912 2021396406 1587349177 1298088316 342731368 2097072281 1345879257 609189272 1306814564 1831001242 -18987360 1892912370 108901185 1561273439 -823853509 1044444644 -816801094 -1591144173 -1077071550 -1642448028 -1948985265 -948108074 1163004540 1667600736 1818047808 1166088624 -2129540051 262792009
REM
CELL 1.54180   50.00000   50.00000   50.00000   90.00000   90.00000   90.00000
LATT -1
SFAC C  
C      1  0.4808720000000  0.5326350000000  0.4242340000000 1.0
C      1  0.5191390000000  0.4673500000000  0.4242470000000 1.0
C      1  0.4808690000000  0.5326370000000  0.5757650000000 1.0
C      1  0.5191360000000  0.4673520000000  0.5757550000000 1.0
C      1  0.5338240000000  0.5166060000000  0.4292870000000 1.0
C      1  0.4661870000000  0.4833830000000  0.4292860000000 1.0
C      1  0.5338230000000  0.5166070000000  0.5707150000000 1.0
C      1  0.4661860000000  0.4833850000000  0.5707120000000 1.0
C      1  0.5015280000000  0.5354200000000  0.4857130000000 1.0
C      1  0.4984600000000  0.4646000000000  0.4857130000000 1.0
C      1  0.5015290000000  0.5354190000000  0.5142870000000 1.0
C      1  0.4984610000000  0.4645990000000  0.5142870000000 1.0
C      1  0.5139090000000  0.4960250000000  0.5795680000000 1.0
C      1  0.4860990000000  0.5039650000000  0.5795690000000 1.0
C      1  0.5139120000000  0.4960230000000  0.4204340000000 1.0
C      1  0.4861020000000  0.5039620000000  0.4204300000000 1.0
C      1  0.5427720000000  0.5427060000000  0.5161590000000 1.0
C      1  0.4572200000000  0.4572940000000  0.5161560000000 1.0
C      1  0.5427720000000  0.5427060000000  0.4838430000000 1.0
C      1  0.4572200000000  0.4572930000000  0.4838430000000 1.0
C      1  0.4435370000000  0.4924950000000  0.4455300000000 1.0
C      1  0.5564720000000  0.5075000000000  0.4455410000000 1.0
C      1  0.4435360000000  0.4924980000000  0.5544660000000 1.0
C      1  0.5564700000000  0.5075010000000  0.5544630000000 1.0
C      1  0.5375740000000  0.4911470000000  0.4849980000000 1.0
C      1  0.4624110000000  0.5088560000000  0.4849960000000 1.0
C      1  0.5375740000000  0.4911470000000  0.5150040000000 1.0
C      1  0.4624110000000  0.5088560000000  0.5150010000000 1.0
C      1  0.5242940000000  0.5440910000000  0.5644490000000 1.0
C      1  0.4757120000000  0.4559030000000  0.5644380000000 1.0
C      1  0.5242960000000  0.5440900000000  0.4355520000000 1.0
C      1  0.4757140000000  0.4559010000000  0.4355610000000 1.0
C      1  0.5088130000000  0.4887400000000  0.4758410000000 1.0
C      1  0.4911740000000  0.5112780000000  0.4758470000000 1.0
C      1  0.5088120000000  0.4887390000000  0.5241590000000 1.0
C      1  0.4911730000000  0.5112780000000  0.5241530000000 1.0
C      1  0.5605960000000  0.4779800000000  0.4478670000000 1.0
C      1  0.4394110000000  0.5220170000000  0.4478520000000 1.0
C      1  0.5605940000000  0.4779810000000  0.5521360000000 1.0
C      1  0.4394110000000  0.5220190000000  0.5521440000000 1.0
C      1  0.4856200000000  0.4461110000000  0.5354330000000 1.0
C      1  0.5143790000000  0.5538910000000  0.5354460000000 1.0
C      1  0.4856220000000  0.4461100000000  0.4645670000000 1.0
C      1  0.5143800000000  0.5538900000000  0.4645540000000 1.0
C      1  0.5556930000000  0.4413620000000  0.4853770000000 1.0
C      1  0.4443100000000  0.5586460000000  0.4853700000000 1.0
C      1  0.5556920000000  0.4413620000000  0.5146270000000 1.0
C      1  0.4443120000000  0.5586480000000  0.5146260000000 1.0
C      1  0.5515380000000  0.5151940000000  0.4738670000000 1.0
C      1  0.4484560000000  0.4848050000000  0.4738610000000 1.0
C      1  0.5515370000000  0.5151940000000  0.5261350000000 1.0
C      1  0.4484550000000  0.4848050000000  0.5261360000000 1.0
C      1  0.5433060000000  0.4622130000000  0.5314640000000 1.0
C      1  0.4566930000000  0.5377920000000  0.5314670000000 1.0
C      1  0.5433070000000  0.4622120000000  0.4685390000000 1.0
C      1  0.4566930000000  0.5377900000000  0.4685300000000 1.0
C      1  0.5182770000000  0.4536510000000  0.5495890000000 1.0
C      1  0.4817240000000  0.5463470000000  0.5496030000000 1.0
C      1  0.5182790000000  0.4536490000000  0.4504130000000 1.0
C      1  0.4817260000000  0.5463450000000  0.4503960000000 1.0
END
