TITL C-3985254-1270-1404 5.55305364573427e-05 125000 -300.578414168233 0 0 60 (D2d) n - 1
REM
REM in /home/nfs/bkarasulu/CARBON/AIRSS/Generating-Clusters/TERSOFF/Higher-Symm/Only-C60
REM
REM
REM
REM
REM
REM ./C.cell (28575a23ae977d3b5fae324c64b13b57)
REM
REM compiler GCC version 9.2.1 20190827 (Red Hat 9.2.1-1)
REM options -cpp -mtune=generic -march=x86-64 -g -O0 -fpre-include=/usr/include/finclude/math-vector-fortran.h
REM seed -1279208002 1430094983 2146543363 2119407460 -1066468529 -1745556634 1459924753 143464566 2094484163 2077331601 1921100592 -1670525926 -1163653867 1229048660 -2025614189 -716492270 -1006314831 386325176 47048145 2123099080 157662803 782587016 -1464570274 -439019845 -1714537813 1334111310 -917549892 1332191958 -1445892427 -1880631754 -666978808 -178916850 497217025
REM
CELL 1.54180   50.00000   50.00000   50.00000   90.00000   90.00000   90.00000
LATT -1
SFAC C  
C      1  0.5529770000000  0.5393520000000  0.4695980000000 1.0
C      1  0.4470230000000  0.5393520000000  0.5304020000000 1.0
C      1  0.5529760000000  0.4606480000000  0.5304020000000 1.0
C      1  0.4470240000000  0.4606490000000  0.4695980000000 1.0
C      1  0.4695980000000  0.5393520000000  0.5529770000000 1.0
C      1  0.5304020000000  0.5393520000000  0.4470230000000 1.0
C      1  0.5304020000000  0.4606480000000  0.5529770000000 1.0
C      1  0.4695980000000  0.4606480000000  0.4470240000000 1.0
C      1  0.5252040000000  0.5071160000000  0.4520360000000 1.0
C      1  0.4747960000000  0.5071160000000  0.5479640000000 1.0
C      1  0.5252040000000  0.4928840000000  0.5479640000000 1.0
C      1  0.4747950000000  0.4928850000000  0.4520360000000 1.0
C      1  0.4520370000000  0.5071160000000  0.5252040000000 1.0
C      1  0.5479640000000  0.5071160000000  0.4747960000000 1.0
C      1  0.5479640000000  0.4928840000000  0.5252040000000 1.0
C      1  0.4520350000000  0.4928850000000  0.4747960000000 1.0
C      1  0.5479450000000  0.4482670000000  0.5033740000000 1.0
C      1  0.4520550000000  0.4482670000000  0.4966260000000 1.0
C      1  0.5479450000000  0.5517330000000  0.4966260000000 1.0
C      1  0.4520550000000  0.5517320000000  0.5033740000000 1.0
C      1  0.5033740000000  0.4482670000000  0.5479450000000 1.0
C      1  0.4966260000000  0.4482670000000  0.4520550000000 1.0
C      1  0.4966260000000  0.5517330000000  0.5479450000000 1.0
C      1  0.5033740000000  0.5517330000000  0.4520550000000 1.0
C      1  0.5247720000000  0.5169630000000  0.5000370000000 1.0
C      1  0.4752290000000  0.5169630000000  0.4999630000000 1.0
C      1  0.5247720000000  0.4830370000000  0.4999630000000 1.0
C      1  0.4752280000000  0.4830370000000  0.5000360000000 1.0
C      1  0.5000370000000  0.5169630000000  0.5247720000000 1.0
C      1  0.4999630000000  0.5169630000000  0.4752280000000 1.0
C      1  0.4999630000000  0.4830370000000  0.5247720000000 1.0
C      1  0.5000360000000  0.4830370000000  0.4752280000000 1.0
C      1  0.5806010000000  0.4873730000000  0.4923750000000 1.0
C      1  0.4194010000000  0.4873730000000  0.5076240000000 1.0
C      1  0.5806010000000  0.5126270000000  0.5076250000000 1.0
C      1  0.4193970000000  0.5126270000000  0.4923730000000 1.0
C      1  0.4923750000000  0.4873730000000  0.5806010000000 1.0
C      1  0.5076250000000  0.4873730000000  0.4194000000000 1.0
C      1  0.5076250000000  0.5126270000000  0.5806010000000 1.0
C      1  0.4923740000000  0.5126270000000  0.4194000000000 1.0
C      1  0.4821350000000  0.4725450000000  0.5544720000000 1.0
C      1  0.5178650000000  0.4725460000000  0.4455280000000 1.0
C      1  0.4821350000000  0.5274540000000  0.4455280000000 1.0
C      1  0.5178650000000  0.5274550000000  0.5544720000000 1.0
C      1  0.5544720000000  0.4725460000000  0.4821350000000 1.0
C      1  0.4455280000000  0.4725450000000  0.5178660000000 1.0
C      1  0.4455290000000  0.5274550000000  0.4821350000000 1.0
C      1  0.5544720000000  0.5274540000000  0.5178650000000 1.0
C      1  0.4996720000000  0.5685370000000  0.5232840000000 1.0
C      1  0.5003280000000  0.5685370000000  0.4767160000000 1.0
C      1  0.4996720000000  0.4314640000000  0.4767170000000 1.0
C      1  0.5003280000000  0.4314640000000  0.5232840000000 1.0
C      1  0.5232840000000  0.5685370000000  0.4996720000000 1.0
C      1  0.4767160000000  0.5685370000000  0.5003280000000 1.0
C      1  0.4767160000000  0.4314630000000  0.4996720000000 1.0
C      1  0.5232840000000  0.4314630000000  0.5003280000000 1.0
C      1  0.4543310000000  0.5360080000000  0.4543300000000 1.0
C      1  0.5456700000000  0.4639910000000  0.4543300000000 1.0
C      1  0.4543300000000  0.4639910000000  0.5456700000000 1.0
C      1  0.5456700000000  0.5360090000000  0.5456700000000 1.0
END
