TITL C-3985257-5396-123 -4.10865360856551e-07 125000 -319.936349719215 0 0 60 (C4) n - 1
REM
REM in /home/nfs/bkarasulu/CARBON/AIRSS/Generating-Clusters/TERSOFF/Higher-Symm/Only-C60
REM
REM
REM
REM
REM
REM ./C.cell (28575a23ae977d3b5fae324c64b13b57)
REM
REM compiler GCC version 9.2.1 20190827 (Red Hat 9.2.1-1)
REM options -cpp -mtune=generic -march=x86-64 -g -O0 -fpre-include=/usr/include/finclude/math-vector-fortran.h
REM seed -1494365782 -2049218697 184357242 318521689 -1713731647 -164977086 1381979955 -34545347 -939417589 -1326523562 1704394356 52693822 352942192 1382421665 -626577197 540302647 482248004 194358834 -770388733 -678010107 -1165210298 1003395606 1055260055 -1955539100 -1634285120 1775803363 1076927574 1883581014 -1223673918 -929190335 2141456978 306403938 -157330388
REM
CELL 1.54180   50.00000   50.00000   50.00000   90.00000   90.00000   90.00000
LATT -1
SFAC C  
C      1  0.5432140000000  0.4498330000000  0.5394820000000 1.0
C      1  0.4498330000000  0.4567860000000  0.5394820000000 1.0
C      1  0.4567860000000  0.5501670000000  0.5394820000000 1.0
C      1  0.5501670000000  0.5432140000000  0.5394820000000 1.0
C      1  0.4858500000000  0.4794370000000  0.4736880000000 1.0
C      1  0.4794370000000  0.5141500000000  0.4736880000000 1.0
C      1  0.5141500000000  0.5205630000000  0.4736880000000 1.0
C      1  0.5205630000000  0.4858500000000  0.4736880000000 1.0
C      1  0.4404520000000  0.4708080000000  0.4748160000000 1.0
C      1  0.4708080000000  0.5595480000000  0.4748160000000 1.0
C      1  0.5595480000000  0.5291920000000  0.4748160000000 1.0
C      1  0.5291920000000  0.4404520000000  0.4748160000000 1.0
C      1  0.5156570000000  0.4581960000000  0.4531050000000 1.0
C      1  0.4581960000000  0.4843430000000  0.4531050000000 1.0
C      1  0.4843430000000  0.5418040000000  0.4531050000000 1.0
C      1  0.5418040000000  0.5156570000000  0.4531050000000 1.0
C      1  0.5087220000000  0.4787690000000  0.4297940000000 1.0
C      1  0.4787690000000  0.4912780000000  0.4297940000000 1.0
C      1  0.4912780000000  0.5212310000000  0.4297940000000 1.0
C      1  0.5212310000000  0.5087220000000  0.4297940000000 1.0
C      1  0.5648330000000  0.5420570000000  0.5143640000000 1.0
C      1  0.5420570000000  0.4351670000000  0.5143640000000 1.0
C      1  0.4351670000000  0.4579430000000  0.5143640000000 1.0
C      1  0.4579430000000  0.5648330000000  0.5143640000000 1.0
C      1  0.4967630000000  0.4497030000000  0.5243580000000 1.0
C      1  0.4497030000000  0.5032370000000  0.5243580000000 1.0
C      1  0.5032370000000  0.5502970000000  0.5243580000000 1.0
C      1  0.5502970000000  0.4967630000000  0.5243580000000 1.0
C      1  0.4489650000000  0.4427870000000  0.4887380000000 1.0
C      1  0.4427870000000  0.5510350000000  0.4887380000000 1.0
C      1  0.5510350000000  0.5572130000000  0.4887380000000 1.0
C      1  0.5572130000000  0.4489650000000  0.4887380000000 1.0
C      1  0.5703180000000  0.5087470000000  0.5016340000000 1.0
C      1  0.5087470000000  0.4296820000000  0.5016340000000 1.0
C      1  0.4296820000000  0.4912530000000  0.5016340000000 1.0
C      1  0.4912530000000  0.5703180000000  0.5016340000000 1.0
C      1  0.4320640000000  0.5210910000000  0.4831700000000 1.0
C      1  0.5210910000000  0.5679360000000  0.4831700000000 1.0
C      1  0.5679360000000  0.4789090000000  0.4831700000000 1.0
C      1  0.4789090000000  0.4320640000000  0.4831700000000 1.0
C      1  0.5275410000000  0.5600700000000  0.5369290000000 1.0
C      1  0.5600700000000  0.4724590000000  0.5369290000000 1.0
C      1  0.4724590000000  0.4399300000000  0.5369290000000 1.0
C      1  0.4399300000000  0.5275410000000  0.5369290000000 1.0
C      1  0.4863640000000  0.4503770000000  0.4607400000000 1.0
C      1  0.4503770000000  0.5136360000000  0.4607400000000 1.0
C      1  0.5136360000000  0.5496230000000  0.4607400000000 1.0
C      1  0.5496230000000  0.4863640000000  0.4607400000000 1.0
C      1  0.5080240000000  0.4783800000000  0.5647350000000 1.0
C      1  0.4783800000000  0.4919760000000  0.5647350000000 1.0
C      1  0.4919760000000  0.5216200000000  0.5647350000000 1.0
C      1  0.5216200000000  0.5080240000000  0.5647350000000 1.0
C      1  0.4766670000000  0.5048730000000  0.5080040000000 1.0
C      1  0.5048730000000  0.5233330000000  0.5080040000000 1.0
C      1  0.5233330000000  0.4951270000000  0.5080040000000 1.0
C      1  0.4951270000000  0.4766670000000  0.5080040000000 1.0
C      1  0.5155910000000  0.4563910000000  0.5464430000000 1.0
C      1  0.4563910000000  0.4844090000000  0.5464430000000 1.0
C      1  0.4844090000000  0.5436090000000  0.5464430000000 1.0
C      1  0.5436090000000  0.5155910000000  0.5464430000000 1.0
END
