TITL C-3985259-1859-1324 -0.00295594085652977 125000 -319.425081269522 0 0 60 (Ci) n - 1
REM
REM in /home/nfs/bkarasulu/CARBON/AIRSS/Generating-Clusters/TERSOFF/Higher-Symm/Only-C60
REM
REM
REM
REM
REM
REM ./C.cell (28575a23ae977d3b5fae324c64b13b57)
REM
REM compiler GCC version 9.2.1 20190827 (Red Hat 9.2.1-1)
REM options -cpp -mtune=generic -march=x86-64 -g -O0 -fpre-include=/usr/include/finclude/math-vector-fortran.h
REM seed -874224682 -935560409 1512918264 -291451163 -1766651377 -1827295169 -552161197 216225253 1060558524 -2134340807 389267528 -429229652 -895226235 -1452089324 1708186871 2077294087 1181818715 465514296 1777339961 1432702679 2133820861 222963556 -1876427233 -483038831 -622052948 -1248836912 -1435392187 814020766 1599340183 1948360016 -262879991 891444060 -1036154960
REM
CELL 1.54180   50.00000   50.00000   50.00000   90.00000   90.00000   90.00000
LATT -1
SFAC C  
C      1  0.5348720000000  0.4458690000000  0.5062960000000 1.0
C      1  0.4651290000000  0.5541300000000  0.4937040000000 1.0
C      1  0.5259020000000  0.5414500000000  0.5610730000000 1.0
C      1  0.4740980000000  0.4585500000000  0.4389270000000 1.0
C      1  0.4554440000000  0.5368140000000  0.5169420000000 1.0
C      1  0.5445560000000  0.4631860000000  0.4830580000000 1.0
C      1  0.4916540000000  0.4676800000000  0.5234180000000 1.0
C      1  0.5083600000000  0.5323430000000  0.4765620000000 1.0
C      1  0.4701350000000  0.4226930000000  0.5161650000000 1.0
C      1  0.5298730000000  0.5772930000000  0.4838440000000 1.0
C      1  0.5066950000000  0.4943610000000  0.5521270000000 1.0
C      1  0.4933080000000  0.5056430000000  0.4478770000000 1.0
C      1  0.5447400000000  0.5451720000000  0.5107770000000 1.0
C      1  0.4552580000000  0.4548280000000  0.4892230000000 1.0
C      1  0.5412100000000  0.4601510000000  0.5324630000000 1.0
C      1  0.4587910000000  0.5398480000000  0.4675370000000 1.0
C      1  0.4791230000000  0.4904030000000  0.5634240000000 1.0
C      1  0.5208860000000  0.5096130000000  0.4365780000000 1.0
C      1  0.5596720000000  0.4992340000000  0.4559580000000 1.0
C      1  0.4403310000000  0.5007690000000  0.5440510000000 1.0
C      1  0.4671310000000  0.4909480000000  0.5232490000000 1.0
C      1  0.5328610000000  0.5090490000000  0.4767540000000 1.0
C      1  0.4338050000000  0.4682300000000  0.5347780000000 1.0
C      1  0.5662020000000  0.5317750000000  0.4652170000000 1.0
C      1  0.4737250000000  0.4353880000000  0.5435540000000 1.0
C      1  0.5262520000000  0.5645870000000  0.4564590000000 1.0
C      1  0.4846260000000  0.5328830000000  0.4553520000000 1.0
C      1  0.5153730000000  0.4671200000000  0.5446470000000 1.0
C      1  0.5047500000000  0.4446080000000  0.5071150000000 1.0
C      1  0.4952440000000  0.5553950000000  0.4928850000000 1.0
C      1  0.5744730000000  0.4789280000000  0.4808310000000 1.0
C      1  0.4255270000000  0.5210720000000  0.5191690000000 1.0
C      1  0.4387740000000  0.5185410000000  0.4704710000000 1.0
C      1  0.5612260000000  0.4814590000000  0.5295290000000 1.0
C      1  0.4873470000000  0.4833950000000  0.4700830000000 1.0
C      1  0.5126530000000  0.5166050000000  0.5299170000000 1.0
C      1  0.4524010000000  0.4881340000000  0.4777340000000 1.0
C      1  0.5475990000000  0.5118660000000  0.5222660000000 1.0
C      1  0.4677190000000  0.5109480000000  0.5017100000000 1.0
C      1  0.5322800000000  0.4890530000000  0.4982890000000 1.0
C      1  0.4831850000000  0.4367950000000  0.4856660000000 1.0
C      1  0.5168180000000  0.5632110000000  0.5143360000000 1.0
C      1  0.5627580000000  0.5516830000000  0.4887930000000 1.0
C      1  0.4372330000000  0.4483220000000  0.5112040000000 1.0
C      1  0.4175130000000  0.5260030000000  0.4891800000000 1.0
C      1  0.5824840000000  0.4740060000000  0.5108160000000 1.0
C      1  0.4722280000000  0.5387130000000  0.5432860000000 1.0
C      1  0.5277720000000  0.4612880000000  0.4567140000000 1.0
C      1  0.5377230000000  0.4846620000000  0.4389930000000 1.0
C      1  0.4622770000000  0.5153400000000  0.5610060000000 1.0
C      1  0.5035980000000  0.5453360000000  0.5404430000000 1.0
C      1  0.4964020000000  0.4546640000000  0.4595570000000 1.0
C      1  0.5707660000000  0.5108770000000  0.4945510000000 1.0
C      1  0.4292380000000  0.4891140000000  0.5054460000000 1.0
C      1  0.5390510000000  0.5385520000000  0.4476350000000 1.0
C      1  0.4609440000000  0.4614200000000  0.5523630000000 1.0
C      1  0.4519700000000  0.4752610000000  0.4478270000000 1.0
C      1  0.5480300000000  0.5247390000000  0.5521730000000 1.0
C      1  0.5021550000000  0.4855390000000  0.4982310000000 1.0
C      1  0.4978490000000  0.5144620000000  0.5017650000000 1.0
END
