TITL C-3985250-725-993 7.53272572305303e-07 125000 -341.851305403473 0 0 60 (C6) n - 1
REM
REM in /home/nfs/bkarasulu/CARBON/AIRSS/Generating-Clusters/TERSOFF/Higher-Symm/Only-C60
REM
REM
REM
REM
REM
REM ./C.cell (28575a23ae977d3b5fae324c64b13b57)
REM
REM compiler GCC version 9.2.1 20190827 (Red Hat 9.2.1-1)
REM options -cpp -mtune=generic -march=x86-64 -g -O0 -fpre-include=/usr/include/finclude/math-vector-fortran.h
REM seed -342915426 -168212197 -836462131 -1691833434 2129053411 -413358973 -1637830134 437440900 -1260397724 49909359 -14487210 465592693 -1761425474 1987797535 -210010969 -310133826 -725325695 866001171 1043299698 1070965262 -8699196 -2007408827 801249513 -868078928 -1598691458 411733593 1982029895 -1088184776 45177859 942449739 -172840067 -298923375 -329159211
REM
CELL 1.54180   50.00000   50.00000   50.00000   90.00000   90.00000   90.00000
LATT -1
SFAC C  
C      1  0.5169420000000  0.5181340000000  0.5247820000000 1.0
C      1  0.5169420000000  0.5305280000000  0.4966870000000 1.0
C      1  0.5169420000000  0.5123950000000  0.4719050000000 1.0
C      1  0.5169420000000  0.4818660000000  0.4752180000000 1.0
C      1  0.5169420000000  0.4694720000000  0.5033130000000 1.0
C      1  0.5169420000000  0.4876050000000  0.5280950000000 1.0
C      1  0.4830580000000  0.5181340000000  0.4752180000000 1.0
C      1  0.4830580000000  0.5305280000000  0.5033130000000 1.0
C      1  0.4830580000000  0.5123950000000  0.5280950000000 1.0
C      1  0.4830580000000  0.4818660000000  0.5247820000000 1.0
C      1  0.4830580000000  0.4694720000000  0.4966870000000 1.0
C      1  0.4830580000000  0.4876050000000  0.4719050000000 1.0
C      1  0.4904990000000  0.5111710000000  0.4181690000000 1.0
C      1  0.4904990000000  0.4347180000000  0.4494100000000 1.0
C      1  0.4904990000000  0.4235460000000  0.5312410000000 1.0
C      1  0.4904990000000  0.4888290000000  0.5818310000000 1.0
C      1  0.4904990000000  0.5652820000000  0.5505900000000 1.0
C      1  0.4904990000000  0.5764540000000  0.4687590000000 1.0
C      1  0.5095010000000  0.5111710000000  0.5818310000000 1.0
C      1  0.5095010000000  0.4347180000000  0.5505900000000 1.0
C      1  0.5095010000000  0.4235460000000  0.4687590000000 1.0
C      1  0.5095010000000  0.4888290000000  0.4181690000000 1.0
C      1  0.5095010000000  0.5652820000000  0.4494100000000 1.0
C      1  0.5095010000000  0.5764540000000  0.5312410000000 1.0
C      1  0.4677930000000  0.5505330000000  0.5394450000000 1.0
C      1  0.4677930000000  0.5594270000000  0.4759600000000 1.0
C      1  0.4677930000000  0.5088940000000  0.4365150000000 1.0
C      1  0.4677930000000  0.4494670000000  0.4605550000000 1.0
C      1  0.4677930000000  0.4405730000000  0.5240400000000 1.0
C      1  0.4677930000000  0.4911060000000  0.5634850000000 1.0
C      1  0.5322070000000  0.5505330000000  0.4605550000000 1.0
C      1  0.5322070000000  0.5594270000000  0.5240400000000 1.0
C      1  0.5322070000000  0.5088940000000  0.5634850000000 1.0
C      1  0.5322070000000  0.4494670000000  0.5394450000000 1.0
C      1  0.5322070000000  0.4405730000000  0.4759600000000 1.0
C      1  0.5322070000000  0.4911060000000  0.4365150000000 1.0
C      1  0.4637750000000  0.4791010000000  0.4493710000000 1.0
C      1  0.4637750000000  0.4457050000000  0.4927850000000 1.0
C      1  0.4637750000000  0.4666040000000  0.5434130000000 1.0
C      1  0.4637750000000  0.5208990000000  0.5506290000000 1.0
C      1  0.4637750000000  0.5542950000000  0.5072150000000 1.0
C      1  0.4637750000000  0.5333960000000  0.4565870000000 1.0
C      1  0.5362250000000  0.4791010000000  0.5506290000000 1.0
C      1  0.5362250000000  0.4457050000000  0.5072150000000 1.0
C      1  0.5362250000000  0.4666040000000  0.4565870000000 1.0
C      1  0.5362250000000  0.5208990000000  0.4493710000000 1.0
C      1  0.5362250000000  0.5542950000000  0.4927850000000 1.0
C      1  0.5362250000000  0.5333960000000  0.5434130000000 1.0
C      1  0.4979980000000  0.4628780000000  0.5937200000000 1.0
C      1  0.4979980000000  0.5626030000000  0.5790090000000 1.0
C      1  0.4979980000000  0.5997250000000  0.4852890000000 1.0
C      1  0.4979980000000  0.5371220000000  0.4062800000000 1.0
C      1  0.4979980000000  0.4373970000000  0.4209910000000 1.0
C      1  0.4979980000000  0.4002750000000  0.5147110000000 1.0
C      1  0.5020020000000  0.4628780000000  0.4062800000000 1.0
C      1  0.5020020000000  0.5626030000000  0.4209910000000 1.0
C      1  0.5020020000000  0.5997250000000  0.5147110000000 1.0
C      1  0.5020020000000  0.5371220000000  0.5937200000000 1.0
C      1  0.5020020000000  0.4373970000000  0.5790090000000 1.0
C      1  0.5020020000000  0.4002750000000  0.4852890000000 1.0
END
