TITL C-3985253-1688-535 -2.0900733227672e-08 125000 -284.636651395371 0 0 60 (Th) n - 1
REM
REM in /home/nfs/bkarasulu/CARBON/AIRSS/Generating-Clusters/TERSOFF/Higher-Symm/Only-C60
REM
REM
REM
REM
REM
REM ./C.cell (28575a23ae977d3b5fae324c64b13b57)
REM
REM compiler GCC version 9.2.1 20190827 (Red Hat 9.2.1-1)
REM options -cpp -mtune=generic -march=x86-64 -g -O0 -fpre-include=/usr/include/finclude/math-vector-fortran.h
REM seed 921574710 -687587092 -1895795876 -620269808 456809308 -863702960 -1387375390 1305600738 30520647 2040255004 1667219507 1544341286 -986178449 -532867730 -1308028389 -364639395 795596809 1464107768 1803368367 -1086095113 -600015357 572432456 -1271812399 1426649744 1956514885 1282957974 431090751 2028010595 -1030172280 -592221779 -48365578 987550633 -1379435303
REM
CELL 1.54180   50.00000   50.00000   50.00000   90.00000   90.00000   90.00000
LATT -1
SFAC C  
C      1  0.4251420000000  0.5160460000000  0.5247190000000 1.0
C      1  0.5247190000000  0.4251420000000  0.5160460000000 1.0
C      1  0.5160460000000  0.5247190000000  0.4251420000000 1.0
C      1  0.5748580000000  0.4839540000000  0.5247190000000 1.0
C      1  0.5748580000000  0.5160460000000  0.4752810000000 1.0
C      1  0.4251420000000  0.4839540000000  0.4752810000000 1.0
C      1  0.4752810000000  0.5748580000000  0.5160460000000 1.0
C      1  0.4752810000000  0.4251420000000  0.4839540000000 1.0
C      1  0.5247190000000  0.5748580000000  0.4839540000000 1.0
C      1  0.4839540000000  0.4752810000000  0.4251420000000 1.0
C      1  0.4839540000000  0.5247190000000  0.5748580000000 1.0
C      1  0.5160460000000  0.4752810000000  0.5748580000000 1.0
C      1  0.4251420000000  0.5160460000000  0.4752810000000 1.0
C      1  0.5247190000000  0.4251420000000  0.4839540000000 1.0
C      1  0.5160460000000  0.5247190000000  0.5748580000000 1.0
C      1  0.5748580000000  0.4839540000000  0.4752810000000 1.0
C      1  0.5748580000000  0.5160460000000  0.5247190000000 1.0
C      1  0.4251420000000  0.4839540000000  0.5247190000000 1.0
C      1  0.4752810000000  0.5748580000000  0.4839540000000 1.0
C      1  0.4752810000000  0.4251420000000  0.5160460000000 1.0
C      1  0.5247190000000  0.5748580000000  0.5160460000000 1.0
C      1  0.4839540000000  0.4752810000000  0.5748580000000 1.0
C      1  0.4839540000000  0.5247190000000  0.4251420000000 1.0
C      1  0.5160460000000  0.4752810000000  0.4251420000000 1.0
C      1  0.4823710000000  0.5429290000000  0.4827060000000 1.0
C      1  0.4827060000000  0.4823710000000  0.5429290000000 1.0
C      1  0.5429290000000  0.4827060000000  0.4823710000000 1.0
C      1  0.5176290000000  0.4570710000000  0.4827060000000 1.0
C      1  0.5176290000000  0.5429290000000  0.5172940000000 1.0
C      1  0.4823710000000  0.4570710000000  0.5172940000000 1.0
C      1  0.5172940000000  0.5176290000000  0.5429290000000 1.0
C      1  0.5172940000000  0.4823710000000  0.4570710000000 1.0
C      1  0.4827060000000  0.5176290000000  0.4570710000000 1.0
C      1  0.4570710000000  0.5172940000000  0.4823710000000 1.0
C      1  0.4570710000000  0.4827060000000  0.5176290000000 1.0
C      1  0.5429290000000  0.5172940000000  0.5176290000000 1.0
C      1  0.4823710000000  0.5429290000000  0.5172940000000 1.0
C      1  0.4827060000000  0.4823710000000  0.4570710000000 1.0
C      1  0.5429290000000  0.4827060000000  0.5176290000000 1.0
C      1  0.5176290000000  0.4570710000000  0.5172940000000 1.0
C      1  0.5176290000000  0.5429290000000  0.4827060000000 1.0
C      1  0.4823710000000  0.4570710000000  0.4827060000000 1.0
C      1  0.5172940000000  0.5176290000000  0.4570710000000 1.0
C      1  0.5172940000000  0.4823710000000  0.5429290000000 1.0
C      1  0.4827060000000  0.5176290000000  0.5429290000000 1.0
C      1  0.4570710000000  0.5172940000000  0.5176290000000 1.0
C      1  0.4570710000000  0.4827060000000  0.4823710000000 1.0
C      1  0.5429290000000  0.5172940000000  0.4823710000000 1.0
C      1  0.4739560000000  0.5000000000000  0.5882530000000 1.0
C      1  0.5260440000000  0.5000000000000  0.4117470000000 1.0
C      1  0.5260440000000  0.5000000000000  0.5882530000000 1.0
C      1  0.5882530000000  0.5260440000000  0.5000000000000 1.0
C      1  0.5000000000000  0.5882530000000  0.5260440000000 1.0
C      1  0.4739560000000  0.5000000000000  0.4117470000000 1.0
C      1  0.4117470000000  0.4739560000000  0.5000000000000 1.0
C      1  0.4117470000000  0.5260440000000  0.5000000000000 1.0
C      1  0.5882530000000  0.4739560000000  0.5000000000000 1.0
C      1  0.5000000000000  0.4117470000000  0.5260440000000 1.0
C      1  0.5000000000000  0.5882530000000  0.4739560000000 1.0
C      1  0.5000000000000  0.4117470000000  0.4739560000000 1.0
END
