TITL C-3985254-1270-635 -3.30597222456661e-06 125000 -302.826366658085 0 0 60 (C4) n - 1
REM
REM in /home/nfs/bkarasulu/CARBON/AIRSS/Generating-Clusters/TERSOFF/Higher-Symm/Only-C60
REM
REM
REM
REM
REM
REM ./C.cell (28575a23ae977d3b5fae324c64b13b57)
REM
REM compiler GCC version 9.2.1 20190827 (Red Hat 9.2.1-1)
REM options -cpp -mtune=generic -march=x86-64 -g -O0 -fpre-include=/usr/include/finclude/math-vector-fortran.h
REM seed -1478320085 -644274027 1943841731 -1485185588 -1111205452 -372583600 1071884915 -1652374811 926670698 -1924870026 -638553156 -687295053 -1548806612 -1200129123 -404308947 1172800876 -1348966693 310067317 -1801057943 -1907865841 -1650643333 -1583647074 -2116636402 -794570038 -1834972389 2088718867 -487577005 -726119081 1463176706 1502333978 -1259279837 -1585236398 2127726177
REM
CELL 1.54180   50.00000   50.00000   50.00000   90.00000   90.00000   90.00000
LATT -1
SFAC C  
C      1  0.5322900000000  0.5432190000000  0.4640440000000 1.0
C      1  0.5322900000000  0.4640440000000  0.4567810000000 1.0
C      1  0.5322900000000  0.4567810000000  0.5359560000000 1.0
C      1  0.5322900000000  0.5359560000000  0.5432190000000 1.0
C      1  0.4985970000000  0.5490480000000  0.4522700000000 1.0
C      1  0.4985970000000  0.4522700000000  0.4509520000000 1.0
C      1  0.4985970000000  0.4509520000000  0.5477300000000 1.0
C      1  0.4985970000000  0.5477300000000  0.5490480000000 1.0
C      1  0.4351550000000  0.5053260000000  0.4749620000000 1.0
C      1  0.4351550000000  0.4749620000000  0.4946740000000 1.0
C      1  0.4351550000000  0.4946740000000  0.5250380000000 1.0
C      1  0.4351550000000  0.5250380000000  0.5053260000000 1.0
C      1  0.5163290000000  0.4754410000000  0.5016000000000 1.0
C      1  0.5163290000000  0.5016000000000  0.5245590000000 1.0
C      1  0.5163290000000  0.5245590000000  0.4984000000000 1.0
C      1  0.5163290000000  0.4984000000000  0.4754410000000 1.0
C      1  0.4972380000000  0.5716280000000  0.5280910000000 1.0
C      1  0.4972380000000  0.5280910000000  0.4283720000000 1.0
C      1  0.4972380000000  0.4283720000000  0.4719090000000 1.0
C      1  0.4972380000000  0.4719090000000  0.5716280000000 1.0
C      1  0.5680840000000  0.4903390000000  0.5207520000000 1.0
C      1  0.5680840000000  0.5207520000000  0.5096610000000 1.0
C      1  0.5680840000000  0.5096610000000  0.4792480000000 1.0
C      1  0.5680840000000  0.4792480000000  0.4903390000000 1.0
C      1  0.4843130000000  0.4922510000000  0.5229080000000 1.0
C      1  0.4843130000000  0.5229080000000  0.5077490000000 1.0
C      1  0.4843130000000  0.5077490000000  0.4770920000000 1.0
C      1  0.4843130000000  0.4770920000000  0.4922510000000 1.0
C      1  0.5488860000000  0.5414350000000  0.5187500000000 1.0
C      1  0.5488860000000  0.5187500000000  0.4585650000000 1.0
C      1  0.5488860000000  0.4585650000000  0.4812500000000 1.0
C      1  0.5488860000000  0.4812500000000  0.5414350000000 1.0
C      1  0.5236640000000  0.5768120000000  0.5162740000000 1.0
C      1  0.5236640000000  0.5162730000000  0.4231880000000 1.0
C      1  0.5236640000000  0.4231880000000  0.4837260000000 1.0
C      1  0.5236640000000  0.4837260000000  0.5768120000000 1.0
C      1  0.4800110000000  0.4979390000000  0.5687840000000 1.0
C      1  0.4800110000000  0.5687840000000  0.5020610000000 1.0
C      1  0.4800110000000  0.5020610000000  0.4312160000000 1.0
C      1  0.4800110000000  0.4312160000000  0.4979390000000 1.0
C      1  0.5328590000000  0.5556360000000  0.4947550000000 1.0
C      1  0.5328590000000  0.4947560000000  0.4443640000000 1.0
C      1  0.5328590000000  0.4443640000000  0.5052450000000 1.0
C      1  0.5328590000000  0.5052450000000  0.5556360000000 1.0
C      1  0.4437030000000  0.4692800000000  0.5452600000000 1.0
C      1  0.4437030000000  0.5452600000000  0.5307200000000 1.0
C      1  0.4437030000000  0.5307200000000  0.4547400000000 1.0
C      1  0.4437030000000  0.4547400000000  0.4692800000000 1.0
C      1  0.4720160000000  0.4653020000000  0.4637840000000 1.0
C      1  0.4720160000000  0.4637840000000  0.5346980000000 1.0
C      1  0.4720160000000  0.5346980000000  0.5362160000000 1.0
C      1  0.4720160000000  0.5362160000000  0.4653020000000 1.0
C      1  0.5025420000000  0.5187360000000  0.5672340000000 1.0
C      1  0.5025410000000  0.5672340000000  0.4812630000000 1.0
C      1  0.5025410000000  0.4812640000000  0.4327650000000 1.0
C      1  0.5025420000000  0.4327660000000  0.5187370000000 1.0
C      1  0.4643130000000  0.4567630000000  0.5056920000000 1.0
C      1  0.4643130000000  0.5056920000000  0.5432370000000 1.0
C      1  0.4643130000000  0.5432370000000  0.4943080000000 1.0
C      1  0.4643130000000  0.4943080000000  0.4567630000000 1.0
END
