TITL C-3985254-1270-1190 7.00590105886617e-09 125000 -279.708094907142 0 0 60 (D5) n - 1
REM
REM in /home/nfs/bkarasulu/CARBON/AIRSS/Generating-Clusters/TERSOFF/Higher-Symm/Only-C60
REM
REM
REM
REM
REM
REM ./C.cell (28575a23ae977d3b5fae324c64b13b57)
REM
REM compiler GCC version 9.2.1 20190827 (Red Hat 9.2.1-1)
REM options -cpp -mtune=generic -march=x86-64 -g -O0 -fpre-include=/usr/include/finclude/math-vector-fortran.h
REM seed 888000135 -2100673996 938856457 1679351653 502569505 -1810114501 1891458114 1876794710 -1962326850 -1820050242 1388607956 1968555731 -1462111499 -1828680778 1309119613 -907757072 -2136957847 -1359972946 -1857820368 -375314928 -879940035 -86885972 790167759 1290480132 -1620380610 73187749 620764170 -2081293690 1154174335 282862288 1513679841 1204917459 -97448019
REM
CELL 1.54180   50.00000   50.00000   50.00000   90.00000   90.00000   90.00000
LATT -1
SFAC C  
C      1  0.5200200000000  0.5560250000000  0.4554480000000 1.0
C      1  0.4529040000000  0.5363530000000  0.4554480000000 1.0
C      1  0.4508730000000  0.4664430000000  0.4554480000000 1.0
C      1  0.5167340000000  0.4429080000000  0.4554480000000 1.0
C      1  0.5594690000000  0.4982730000000  0.4554480000000 1.0
C      1  0.4799800000000  0.5560250000000  0.5445520000000 1.0
C      1  0.5470960000000  0.5363530000000  0.5445520000000 1.0
C      1  0.5491270000000  0.4664430000000  0.5445520000000 1.0
C      1  0.4832660000000  0.4429080000000  0.5445520000000 1.0
C      1  0.4405310000000  0.4982730000000  0.5445520000000 1.0
C      1  0.4358870000000  0.4713900000000  0.4804110000000 1.0
C      1  0.5073970000000  0.4301840000000  0.4804110000000 1.0
C      1  0.5686850000000  0.4854610000000  0.4804110000000 1.0
C      1  0.5350530000000  0.5608310000000  0.4804110000000 1.0
C      1  0.4529780000000  0.5521350000000  0.4804110000000 1.0
C      1  0.5641130000000  0.4713900000000  0.5195890000000 1.0
C      1  0.4926030000000  0.4301840000000  0.5195890000000 1.0
C      1  0.4313150000000  0.4854610000000  0.5195890000000 1.0
C      1  0.4649470000000  0.5608310000000  0.5195890000000 1.0
C      1  0.5470220000000  0.5521350000000  0.5195890000000 1.0
C      1  0.4998580000000  0.4693050000000  0.4409110000000 1.0
C      1  0.5291490000000  0.4903800000000  0.4409110000000 1.0
C      1  0.5181570000000  0.5247500000000  0.4409110000000 1.0
C      1  0.4820730000000  0.5249170000000  0.4409110000000 1.0
C      1  0.4707630000000  0.4906500000000  0.4409110000000 1.0
C      1  0.5001420000000  0.4693050000000  0.5590890000000 1.0
C      1  0.4708510000000  0.4903800000000  0.5590890000000 1.0
C      1  0.4818430000000  0.5247500000000  0.5590890000000 1.0
C      1  0.5179270000000  0.5249170000000  0.5590890000000 1.0
C      1  0.5292370000000  0.4906500000000  0.5590890000000 1.0
C      1  0.4912040000000  0.5514710000000  0.4632110000000 1.0
C      1  0.4483290000000  0.5075400000000  0.4632100000000 1.0
C      1  0.4768620000000  0.4531880000000  0.4632100000000 1.0
C      1  0.5373710000000  0.4635290000000  0.4632100000000 1.0
C      1  0.5462330000000  0.5242720000000  0.4632110000000 1.0
C      1  0.5087960000000  0.5514710000000  0.5367890000000 1.0
C      1  0.5516710000000  0.5075400000000  0.5367900000000 1.0
C      1  0.5231380000000  0.4531880000000  0.5367900000000 1.0
C      1  0.4626290000000  0.4635290000000  0.5367900000000 1.0
C      1  0.4537670000000  0.5242720000000  0.5367890000000 1.0
C      1  0.4798970000000  0.5187900000000  0.5173700000000 1.0
C      1  0.4759160000000  0.4866870000000  0.5173700000000 1.0
C      1  0.5052180000000  0.4729800000000  0.5173710000000 1.0
C      1  0.5273090000000  0.4966120000000  0.5173710000000 1.0
C      1  0.5116600000000  0.5249250000000  0.5173710000000 1.0
C      1  0.5201030000000  0.5187900000000  0.4826300000000 1.0
C      1  0.5240840000000  0.4866870000000  0.4826300000000 1.0
C      1  0.4947820000000  0.4729800000000  0.4826290000000 1.0
C      1  0.4726910000000  0.4966120000000  0.4826290000000 1.0
C      1  0.4883400000000  0.5249250000000  0.4826290000000 1.0
C      1  0.4304840000000  0.5051110000000  0.4926710000000 1.0
C      1  0.4736580000000  0.4354660000000  0.4926710000000 1.0
C      1  0.5532360000000  0.4550060000000  0.4926710000000 1.0
C      1  0.5592430000000  0.5367270000000  0.4926710000000 1.0
C      1  0.4833780000000  0.5676930000000  0.4926710000000 1.0
C      1  0.5695160000000  0.5051110000000  0.5073290000000 1.0
C      1  0.5263420000000  0.4354660000000  0.5073290000000 1.0
C      1  0.4467640000000  0.4550060000000  0.5073290000000 1.0
C      1  0.4407570000000  0.5367270000000  0.5073290000000 1.0
C      1  0.5166220000000  0.5676930000000  0.5073290000000 1.0
END
