TITL C-3985250-725-1153 0.00921719349771847 125000 -274.022481800114 0 0 60 (C3) n - 1
REM
REM in /home/nfs/bkarasulu/CARBON/AIRSS/Generating-Clusters/TERSOFF/Higher-Symm/Only-C60
REM
REM
REM
REM
REM
REM ./C.cell (28575a23ae977d3b5fae324c64b13b57)
REM
REM compiler GCC version 9.2.1 20190827 (Red Hat 9.2.1-1)
REM options -cpp -mtune=generic -march=x86-64 -g -O0 -fpre-include=/usr/include/finclude/math-vector-fortran.h
REM seed 2139302776 -873907605 -1499739814 901140969 271088368 -1699692254 -2094780076 2135578392 547453833 277352111 786821444 -1955553236 -1103888762 1118462588 1598866431 -2120593904 391930731 -1439712144 -443483945 -1151157532 825215234 -774453469 -313159628 491838584 -885907747 -22989493 1881756782 -930517031 -1079437875 -728773243 1809424418 1495287523 -513069034
REM
CELL 1.54180   50.00000   50.00000   50.00000   90.00000   90.00000   90.00000
LATT -1
SFAC C  
C      1  0.4870880000000  0.4449830000000  0.4610660000000 1.0
C      1  0.5405780000000  0.4449530000000  0.5099370000000 1.0
C      1  0.4714840000000  0.4449760000000  0.5318780000000 1.0
C      1  0.4985270000000  0.4276790000000  0.5322340000000 1.0
C      1  0.4732440000000  0.4276790000000  0.4842860000000 1.0
C      1  0.5273790000000  0.4276880000000  0.4863610000000 1.0
C      1  0.5194800000000  0.5357640000000  0.5248960000000 1.0
C      1  0.4689950000000  0.5358530000000  0.5061100000000 1.0
C      1  0.5106250000000  0.5357670000000  0.4717030000000 1.0
C      1  0.4762240000000  0.5095050000000  0.4736940000000 1.0
C      1  0.5351500000000  0.5095020000000  0.4942340000000 1.0
C      1  0.4878860000000  0.5094740000000  0.5349760000000 1.0
C      1  0.4864680000000  0.5370130000000  0.4315480000000 1.0
C      1  0.5664880000000  0.5369830000000  0.5241700000000 1.0
C      1  0.4462220000000  0.5369640000000  0.5471550000000 1.0
C      1  0.4731390000000  0.4623020000000  0.4379140000000 1.0
C      1  0.5675660000000  0.4623230000000  0.5094460000000 1.0
C      1  0.4584250000000  0.4622650000000  0.5554740000000 1.0
C      1  0.5595130000000  0.4813190000000  0.5362430000000 1.0
C      1  0.4392340000000  0.4812810000000  0.5350880000000 1.0
C      1  0.5004050000000  0.4813310000000  0.4314850000000 1.0
C      1  0.4614510000000  0.5573100000000  0.4856870000000 1.0
C      1  0.5321000000000  0.5573180000000  0.4753870000000 1.0
C      1  0.5056450000000  0.5573070000000  0.5417230000000 1.0
C      1  0.5368010000000  0.5179520000000  0.5590980000000 1.0
C      1  0.4308240000000  0.5179050000000  0.5039950000000 1.0
C      1  0.5315050000000  0.5180290000000  0.4398330000000 1.0
C      1  0.4581900000000  0.5016350000000  0.5023810000000 1.0
C      1  0.5192730000000  0.5015550000000  0.4642350000000 1.0
C      1  0.5218080000000  0.5014760000000  0.5362810000000 1.0
C      1  0.5588500000000  0.5066420000000  0.5172410000000 1.0
C      1  0.4560220000000  0.5065540000000  0.5439950000000 1.0
C      1  0.4843260000000  0.5066110000000  0.4416040000000 1.0
C      1  0.5226570000000  0.5837690000000  0.4831570000000 1.0
C      1  0.5036730000000  0.5837620000000  0.5296440000000 1.0
C      1  0.4728890000000  0.5837440000000  0.4899810000000 1.0
C      1  0.5261910000000  0.4424420000000  0.5364410000000 1.0
C      1  0.4557620000000  0.4424470000000  0.5061440000000 1.0
C      1  0.5172490000000  0.4424230000000  0.4602740000000 1.0
C      1  0.4926140000000  0.4738710000000  0.5561590000000 1.0
C      1  0.4555340000000  0.4739240000000  0.4672270000000 1.0
C      1  0.5510610000000  0.4739420000000  0.4795200000000 1.0
C      1  0.5285950000000  0.4702290000000  0.4515340000000 1.0
C      1  0.5280900000000  0.4702030000000  0.5506530000000 1.0
C      1  0.4424940000000  0.4702210000000  0.5006580000000 1.0
C      1  0.4688800000000  0.5403160000000  0.4610350000000 1.0
C      1  0.5497610000000  0.5402960000000  0.4942260000000 1.0
C      1  0.4805670000000  0.5403350000000  0.5476240000000 1.0
C      1  0.4287400000000  0.5394890000000  0.5232600000000 1.0
C      1  0.5158730000000  0.5395970000000  0.4283420000000 1.0
C      1  0.5545420000000  0.5395350000000  0.5512260000000 1.0
C      1  0.5289530000000  0.4784760000000  0.5079960000000 1.0
C      1  0.4790280000000  0.4785990000000  0.5228210000000 1.0
C      1  0.4912020000000  0.4785130000000  0.4721720000000 1.0
C      1  0.4997240000000  0.5075330000000  0.5009220000000 1.0
C      1  0.4997350000000  0.5881560000000  0.5009250000000 1.0
C      1  0.4997240000000  0.4418130000000  0.5009740000000 1.0
C      1  0.4996890000000  0.4726670000000  0.5009970000000 1.0
C      1  0.4997300000000  0.4076850000000  0.5009430000000 1.0
C      1  0.4997880000000  0.5380180000000  0.5008650000000 1.0
END
