TITL C-3985251-913-237 -0.000676309237644157 125000 -313.347235679979 0 0 60 (C5) n - 1
REM
REM in /home/nfs/bkarasulu/CARBON/AIRSS/Generating-Clusters/TERSOFF/Higher-Symm/Only-C60
REM
REM
REM
REM
REM
REM ./C.cell (28575a23ae977d3b5fae324c64b13b57)
REM
REM compiler GCC version 9.2.1 20190827 (Red Hat 9.2.1-1)
REM options -cpp -mtune=generic -march=x86-64 -g -O0 -fpre-include=/usr/include/finclude/math-vector-fortran.h
REM seed 1049947404 1803948627 304863726 581998413 2052176267 -1944861494 1152400248 452051619 1469590852 -1679531331 -2114040818 309921310 -767637407 290900993 -879666225 468444106 805502387 1873121870 1509034748 -435355354 2045383852 2086973334 690758297 1830861096 -546481560 -2133821668 2077802779 -1751952756 -2008079613 -986358785 -1607650982 1173393844 -999113005
REM
CELL 1.54180   50.00000   50.00000   50.00000   90.00000   90.00000   90.00000
LATT -1
SFAC C  
C      1  0.5457430000000  0.5021060000000  0.5486450000000 1.0
C      1  0.5603940000000  0.5020910000000  0.4715060000000 1.0
C      1  0.4915770000000  0.5020630000000  0.4337550000000 1.0
C      1  0.4344090000000  0.5020840000000  0.4875510000000 1.0
C      1  0.4678730000000  0.5020990000000  0.5585370000000 1.0
C      1  0.4792410000000  0.5329050000000  0.4844340000000 1.0
C      1  0.4787590000000  0.5329490000000  0.5149350000000 1.0
C      1  0.5076200000000  0.5329700000000  0.5247960000000 1.0
C      1  0.5259170000000  0.5329410000000  0.5003900000000 1.0
C      1  0.5083660000000  0.5329010000000  0.4754630000000 1.0
C      1  0.4805840000000  0.5746910000000  0.5190040000000 1.0
C      1  0.5120780000000  0.5747110000000  0.5243780000000 1.0
C      1  0.5269210000000  0.5746880000000  0.4961020000000 1.0
C      1  0.5046020000000  0.5746530000000  0.4732380000000 1.0
C      1  0.4759860000000  0.5746550000000  0.4873950000000 1.0
C      1  0.4904380000000  0.4322770000000  0.5263460000000 1.0
C      1  0.5221230000000  0.4322740000000  0.5172450000000 1.0
C      1  0.5232780000000  0.4322310000000  0.4842880000000 1.0
C      1  0.4922660000000  0.4322070000000  0.4730010000000 1.0
C      1  0.4719770000000  0.4322340000000  0.4990170000000 1.0
C      1  0.5600570000000  0.5029850000000  0.5208490000000 1.0
C      1  0.5383700000000  0.5029490000000  0.4493390000000 1.0
C      1  0.4636630000000  0.5029330000000  0.4478570000000 1.0
C      1  0.4391220000000  0.5029940000000  0.5184530000000 1.0
C      1  0.4987270000000  0.5030070000000  0.5635980000000 1.0
C      1  0.4581460000000  0.4703960000000  0.4549510000000 1.0
C      1  0.4442300000000  0.4704490000000  0.5258280000000 1.0
C      1  0.5073420000000  0.4704750000000  0.5610020000000 1.0
C      1  0.5602930000000  0.4704660000000  0.5118500000000 1.0
C      1  0.5299240000000  0.4704170000000  0.4462860000000 1.0
C      1  0.4805130000000  0.5016150000000  0.4761950000000 1.0
C      1  0.4712600000000  0.5016640000000  0.5111700000000 1.0
C      1  0.5017080000000  0.5016900000000  0.5307670000000 1.0
C      1  0.5297490000000  0.5016750000000  0.5079030000000 1.0
C      1  0.5166560000000  0.5016320000000  0.4741440000000 1.0
C      1  0.4442070000000  0.4503470000000  0.4997340000000 1.0
C      1  0.4825330000000  0.4503710000000  0.5529460000000 1.0
C      1  0.5449670000000  0.4503810000000  0.5329730000000 1.0
C      1  0.5453110000000  0.4503390000000  0.4674010000000 1.0
C      1  0.4830070000000  0.4503180000000  0.4468400000000 1.0
C      1  0.4798230000000  0.4709140000000  0.4831640000000 1.0
C      1  0.4777760000000  0.4709600000000  0.5139280000000 1.0
C      1  0.5064100000000  0.4710050000000  0.5254250000000 1.0
C      1  0.5261870000000  0.4709870000000  0.5017310000000 1.0
C      1  0.5097860000000  0.4709390000000  0.4755970000000 1.0
C      1  0.5630180000000  0.4719950000000  0.4816130000000 1.0
C      1  0.5019810000000  0.4719700000000  0.4343650000000 1.0
C      1  0.4381940000000  0.4719680000000  0.4778020000000 1.0
C      1  0.4598410000000  0.4720120000000  0.5518710000000 1.0
C      1  0.5369380000000  0.4720180000000  0.5542250000000 1.0
C      1  0.4547020000000  0.5275870000000  0.5396950000000 1.0
C      1  0.5237490000000  0.5275880000000  0.5553330000000 1.0
C      1  0.5599290000000  0.5275610000000  0.4945140000000 1.0
C      1  0.5133040000000  0.5275320000000  0.4413070000000 1.0
C      1  0.4482830000000  0.5275480000000  0.4691880000000 1.0
C      1  0.5094960000000  0.5620950000000  0.4453850000000 1.0
C      1  0.4509740000000  0.5621160000000  0.4741490000000 1.0
C      1  0.4602750000000  0.5621490000000  0.5386830000000 1.0
C      1  0.5244900000000  0.5621210000000  0.5497740000000 1.0
C      1  0.5549050000000  0.5620990000000  0.4921440000000 1.0
END
