TITL C-3985250-725-399 -9.49858948263583e-08 125000 -313.954119129405 0 0 60 (C4v) n - 1
REM
REM in /home/nfs/bkarasulu/CARBON/AIRSS/Generating-Clusters/TERSOFF/Higher-Symm/Only-C60
REM
REM
REM
REM
REM
REM ./C.cell (28575a23ae977d3b5fae324c64b13b57)
REM
REM compiler GCC version 9.2.1 20190827 (Red Hat 9.2.1-1)
REM options -cpp -mtune=generic -march=x86-64 -g -O0 -fpre-include=/usr/include/finclude/math-vector-fortran.h
REM seed -1312857049 1895012637 -14273794 -1292627478 -1138660559 519173095 583540963 1686436730 563335803 -910209799 1630236851 -1845778842 -1715256981 1853710779 -746142992 -208676481 525507687 22457916 968611952 -887802725 -1263678119 174242934 1800862652 -348301068 1387553716 -1130887652 819657029 1757450269 -1479555 -840771299 -1536900556 -1462417700 -1731088137
REM
CELL 1.54180   50.00000   50.00000   50.00000   90.00000   90.00000   90.00000
LATT -1
SFAC C  
C      1  0.4990460000000  0.4843040000000  0.5708370000000 1.0
C      1  0.4990460000000  0.4291630000000  0.4843040000000 1.0
C      1  0.4990460000000  0.5156960000000  0.4291630000000 1.0
C      1  0.4990460000000  0.5708370000000  0.5156960000000 1.0
C      1  0.4990460000000  0.4843040000000  0.4291630000000 1.0
C      1  0.4990460000000  0.4291630000000  0.5156960000000 1.0
C      1  0.4990460000000  0.5156960000000  0.5708370000000 1.0
C      1  0.4990460000000  0.5708370000000  0.4843040000000 1.0
C      1  0.5735790000000  0.4851000000000  0.4617730000000 1.0
C      1  0.5735790000000  0.5382270000000  0.4851000000000 1.0
C      1  0.5735790000000  0.5149000000000  0.5382270000000 1.0
C      1  0.5735790000000  0.4617730000000  0.5149000000000 1.0
C      1  0.5735790000000  0.4851000000000  0.5382270000000 1.0
C      1  0.5735790000000  0.5382270000000  0.5149000000000 1.0
C      1  0.5735790000000  0.5149000000000  0.4617730000000 1.0
C      1  0.5735790000000  0.4617730000000  0.4851000000000 1.0
C      1  0.4730960000000  0.5632880000000  0.4732030000000 1.0
C      1  0.4730960000000  0.5267970000000  0.5632880000000 1.0
C      1  0.4730960000000  0.4367120000000  0.5267970000000 1.0
C      1  0.4730960000000  0.4732030000000  0.4367120000000 1.0
C      1  0.4730960000000  0.5632880000000  0.5267970000000 1.0
C      1  0.4730960000000  0.5267970000000  0.4367120000000 1.0
C      1  0.4730960000000  0.4367120000000  0.4732030000000 1.0
C      1  0.4730960000000  0.4732030000000  0.5632880000000 1.0
C      1  0.5223830000000  0.5489370000000  0.5158990000000 1.0
C      1  0.5223830000000  0.4841010000000  0.5489370000000 1.0
C      1  0.5223830000000  0.4510630000000  0.4841010000000 1.0
C      1  0.5223830000000  0.5158990000000  0.4510630000000 1.0
C      1  0.5223830000000  0.5489370000000  0.4841010000000 1.0
C      1  0.5223830000000  0.4841010000000  0.4510630000000 1.0
C      1  0.5223830000000  0.4510630000000  0.5158990000000 1.0
C      1  0.5223830000000  0.5158990000000  0.5489370000000 1.0
C      1  0.4238330000000  0.5382560000000  0.4842000000000 1.0
C      1  0.4238330000000  0.5158000000000  0.5382560000000 1.0
C      1  0.4238330000000  0.4617440000000  0.5158000000000 1.0
C      1  0.4238330000000  0.4842000000000  0.4617440000000 1.0
C      1  0.4238330000000  0.5382560000000  0.5158000000000 1.0
C      1  0.4238330000000  0.5158000000000  0.4617440000000 1.0
C      1  0.4238330000000  0.4617440000000  0.4842000000000 1.0
C      1  0.4238330000000  0.4842000000000  0.5382560000000 1.0
C      1  0.4572180000000  0.5168470000000  0.5399810000000 1.0
C      1  0.4572180000000  0.4600190000000  0.5168470000000 1.0
C      1  0.4572180000000  0.4831530000000  0.4600190000000 1.0
C      1  0.4572180000000  0.5399810000000  0.4831530000000 1.0
C      1  0.4572180000000  0.5168470000000  0.4600190000000 1.0
C      1  0.4572180000000  0.4600190000000  0.4831530000000 1.0
C      1  0.4572180000000  0.4831530000000  0.5399810000000 1.0
C      1  0.4572180000000  0.5399810000000  0.5168470000000 1.0
C      1  0.5485650000000  0.4481980000000  0.5298570000000 1.0
C      1  0.5485650000000  0.4701430000000  0.4481980000000 1.0
C      1  0.5485650000000  0.5518020000000  0.4701430000000 1.0
C      1  0.5485650000000  0.5298570000000  0.5518020000000 1.0
C      1  0.5485650000000  0.4481980000000  0.4701430000000 1.0
C      1  0.5485650000000  0.4701430000000  0.5518020000000 1.0
C      1  0.5485650000000  0.5518020000000  0.5298570000000 1.0
C      1  0.5485650000000  0.5298570000000  0.4481980000000 1.0
C      1  0.5095610000000  0.5180200000000  0.4819800000000 1.0
C      1  0.5095610000000  0.4819800000000  0.5180200000000 1.0
C      1  0.5095610000000  0.5180200000000  0.5180200000000 1.0
C      1  0.5095610000000  0.4819800000000  0.4819800000000 1.0
END
