TITL C-3985259-1859-793 0.000108457386422022 125000 -327.435875206107 0 0 60 (C1) n - 1
REM
REM in /home/nfs/bkarasulu/CARBON/AIRSS/Generating-Clusters/TERSOFF/Higher-Symm/Only-C60
REM
REM
REM
REM
REM
REM ./C.cell (28575a23ae977d3b5fae324c64b13b57)
REM
REM compiler GCC version 9.2.1 20190827 (Red Hat 9.2.1-1)
REM options -cpp -mtune=generic -march=x86-64 -g -O0 -fpre-include=/usr/include/finclude/math-vector-fortran.h
REM seed -552191643 1871973859 1810975944 -114455073 -155578015 -194374073 -1751175693 2121714196 2019499548 1247496529 -244082092 -1548489845 -263280345 33935896 171731808 -810828634 -1431507501 -1548020518 362043954 -1878665850 912150143 -843961945 1108387137 -1780874464 1720919227 1952055726 -958352377 48684798 -503800213 -1380351340 656546175 957046904 -1136564622
REM
CELL 1.54180   50.00000   50.00000   50.00000   90.00000   90.00000   90.00000
LATT -1
SFAC C  
C      1  0.5640500000000  0.5361110000000  0.4965930000000 1.0
C      1  0.4376060000000  0.4797820000000  0.5310030000000 1.0
C      1  0.5019540000000  0.5238360000000  0.4872870000000 1.0
C      1  0.4567260000000  0.5469780000000  0.4731550000000 1.0
C      1  0.4665050000000  0.5711080000000  0.4875980000000 1.0
C      1  0.5200340000000  0.4800010000000  0.5127460000000 1.0
C      1  0.4623940000000  0.4426520000000  0.5064220000000 1.0
C      1  0.4968430000000  0.5660060000000  0.5313170000000 1.0
C      1  0.4485650000000  0.4703370000000  0.5048650000000 1.0
C      1  0.4885670000000  0.4805890000000  0.4774740000000 1.0
C      1  0.5518130000000  0.4408870000000  0.4974210000000 1.0
C      1  0.5116900000000  0.5546000000000  0.4825790000000 1.0
C      1  0.5043310000000  0.4343030000000  0.5507970000000 1.0
C      1  0.5658040000000  0.5256210000000  0.4671800000000 1.0
C      1  0.5233730000000  0.5546220000000  0.4543710000000 1.0
C      1  0.4701270000000  0.5712510000000  0.5175540000000 1.0
C      1  0.5067060000000  0.4307980000000  0.5202100000000 1.0
C      1  0.5067150000000  0.4562130000000  0.5721000000000 1.0
C      1  0.4723240000000  0.4458840000000  0.5389780000000 1.0
C      1  0.5490270000000  0.5383710000000  0.4468230000000 1.0
C      1  0.5015490000000  0.5379900000000  0.4368350000000 1.0
C      1  0.5515070000000  0.5018290000000  0.5438550000000 1.0
C      1  0.5189470000000  0.4950920000000  0.5428560000000 1.0
C      1  0.4834990000000  0.4696520000000  0.4372860000000 1.0
C      1  0.4814120000000  0.5271740000000  0.5277440000000 1.0
C      1  0.5625090000000  0.4951500000000  0.4655480000000 1.0
C      1  0.4750220000000  0.4859550000000  0.5019350000000 1.0
C      1  0.4484030000000  0.5234090000000  0.4890790000000 1.0
C      1  0.5274630000000  0.5168050000000  0.4366590000000 1.0
C      1  0.4336730000000  0.4773610000000  0.4800530000000 1.0
C      1  0.5142130000000  0.4672980000000  0.4470400000000 1.0
C      1  0.5472940000000  0.5502730000000  0.5184780000000 1.0
C      1  0.5494170000000  0.5097680000000  0.5026760000000 1.0
C      1  0.5335240000000  0.4350200000000  0.4758970000000 1.0
C      1  0.4750430000000  0.4954090000000  0.4536500000000 1.0
C      1  0.4921030000000  0.5760180000000  0.4768410000000 1.0
C      1  0.4703970000000  0.5216660000000  0.5573090000000 1.0
C      1  0.4952140000000  0.5479840000000  0.5612740000000 1.0
C      1  0.5742920000000  0.4794160000000  0.4878070000000 1.0
C      1  0.5025490000000  0.4835060000000  0.5649070000000 1.0
C      1  0.4436110000000  0.5017850000000  0.4661610000000 1.0
C      1  0.4738970000000  0.5307960000000  0.4473500000000 1.0
C      1  0.4682530000000  0.4465140000000  0.4507880000000 1.0
C      1  0.4272220000000  0.5251500000000  0.5097010000000 1.0
C      1  0.5061950000000  0.4494590000000  0.4729230000000 1.0
C      1  0.5076810000000  0.4535790000000  0.5033070000000 1.0
C      1  0.5648810000000  0.4856760000000  0.5186920000000 1.0
C      1  0.4746850000000  0.4924530000000  0.5643340000000 1.0
C      1  0.4752770000000  0.5157680000000  0.5020980000000 1.0
C      1  0.5426440000000  0.5329310000000  0.5415650000000 1.0
C      1  0.5458600000000  0.4598180000000  0.5196110000000 1.0
C      1  0.4438510000000  0.5178000000000  0.4367770000000 1.0
C      1  0.4769830000000  0.4359690000000  0.4790280000000 1.0
C      1  0.4243180000000  0.5057370000000  0.5312080000000 1.0
C      1  0.5370890000000  0.4456110000000  0.5451100000000 1.0
C      1  0.5299730000000  0.4921970000000  0.4560980000000 1.0
C      1  0.5213970000000  0.5622760000000  0.5104710000000 1.0
C      1  0.4577690000000  0.4712910000000  0.5514600000000 1.0
C      1  0.5232210000000  0.5022150000000  0.4874420000000 1.0
C      1  0.5120070000000  0.5262520000000  0.5416750000000 1.0
END
