TITL C-3985254-1270-1439 -2.02675717381788e-08 125000 -364.003944400991 0 0 60 (C4) n - 1
REM
REM in /home/nfs/bkarasulu/CARBON/AIRSS/Generating-Clusters/TERSOFF/Higher-Symm/Only-C60
REM
REM
REM
REM
REM
REM ./C.cell (28575a23ae977d3b5fae324c64b13b57)
REM
REM compiler GCC version 9.2.1 20190827 (Red Hat 9.2.1-1)
REM options -cpp -mtune=generic -march=x86-64 -g -O0 -fpre-include=/usr/include/finclude/math-vector-fortran.h
REM seed -359245009 866477088 1073795003 1387019740 1037675703 -437454783 45226136 715468649 -627767692 -1088482173 -1830631664 1791687658 -395761224 1212582947 -1843968610 -472545329 1042747255 -2093428227 -675219250 96272514 -1524722881 1691073550 -1772287554 -1923799186 996185904 -711856358 1555494900 -2085723366 1130743262 -2002856455 -326257723 991853388 -496128013
REM
CELL 1.54180   50.00000   50.00000   50.00000   90.00000   90.00000   90.00000
LATT -1
SFAC C  
C      1  0.4969370000000  0.5261520000000  0.4306630000000 1.0
C      1  0.4969370000000  0.4306630000000  0.4738480000000 1.0
C      1  0.4969370000000  0.4738480000000  0.5693370000000 1.0
C      1  0.4969370000000  0.5693370000000  0.5261520000000 1.0
C      1  0.5197840000000  0.4695220000000  0.4700340000000 1.0
C      1  0.5197840000000  0.4700340000000  0.5304780000000 1.0
C      1  0.5197840000000  0.5304780000000  0.5299660000000 1.0
C      1  0.5197840000000  0.5299660000000  0.4695220000000 1.0
C      1  0.4487640000000  0.5389850000000  0.4865670000000 1.0
C      1  0.4487640000000  0.4865670000000  0.4610150000000 1.0
C      1  0.4487640000000  0.4610150000000  0.5134330000000 1.0
C      1  0.4487640000000  0.5134330000000  0.5389850000000 1.0
C      1  0.5724820000000  0.4743560000000  0.5259880000000 1.0
C      1  0.5724820000000  0.5259880000000  0.5256440000000 1.0
C      1  0.5724820000000  0.5256440000000  0.4740120000000 1.0
C      1  0.5724820000000  0.4740120000000  0.4743560000000 1.0
C      1  0.4267110000000  0.4931980000000  0.4787220000000 1.0
C      1  0.4267110000000  0.4787220000000  0.5068020000000 1.0
C      1  0.4267110000000  0.5068020000000  0.5212780000000 1.0
C      1  0.4267110000000  0.5212780000000  0.4931980000000 1.0
C      1  0.5414290000000  0.4996000000000  0.4410500000000 1.0
C      1  0.5414290000000  0.4410500000000  0.5004000000000 1.0
C      1  0.5414290000000  0.5004000000000  0.5589500000000 1.0
C      1  0.5414290000000  0.5589500000000  0.4996000000000 1.0
C      1  0.5247020000000  0.5581140000000  0.5232360000000 1.0
C      1  0.5247020000000  0.5232360000000  0.4418860000000 1.0
C      1  0.5247020000000  0.4418860000000  0.4767640000000 1.0
C      1  0.5247020000000  0.4767640000000  0.5581140000000 1.0
C      1  0.4817660000000  0.5001330000000  0.4261980000000 1.0
C      1  0.4817660000000  0.4261980000000  0.4998670000000 1.0
C      1  0.4817660000000  0.4998670000000  0.5738020000000 1.0
C      1  0.4817660000000  0.5738020000000  0.5001330000000 1.0
C      1  0.5246010000000  0.4761240000000  0.4424280000000 1.0
C      1  0.5246010000000  0.4424280000000  0.5238760000000 1.0
C      1  0.5246010000000  0.5238760000000  0.5575720000000 1.0
C      1  0.5246010000000  0.5575720000000  0.4761240000000 1.0
C      1  0.4711280000000  0.5292820000000  0.5294490000000 1.0
C      1  0.4711280000000  0.5294490000000  0.4707180000000 1.0
C      1  0.4711280000000  0.4707180000000  0.4705510000000 1.0
C      1  0.4711280000000  0.4705510000000  0.5292820000000 1.0
C      1  0.5631210000000  0.4625490000000  0.5002490000000 1.0
C      1  0.5631210000000  0.5002490000000  0.5374510000000 1.0
C      1  0.5631210000000  0.5374510000000  0.4997510000000 1.0
C      1  0.5631210000000  0.4997510000000  0.4625490000000 1.0
C      1  0.4957230000000  0.5161830000000  0.4834900000000 1.0
C      1  0.4957230000000  0.4834900000000  0.4838170000000 1.0
C      1  0.4957230000000  0.4838170000000  0.5165100000000 1.0
C      1  0.4957230000000  0.5165100000000  0.5161830000000 1.0
C      1  0.4539970000000  0.4998740000000  0.4358660000000 1.0
C      1  0.4539970000000  0.4358660000000  0.5001260000000 1.0
C      1  0.4539970000000  0.5001260000000  0.5641340000000 1.0
C      1  0.4539970000000  0.5641340000000  0.4998740000000 1.0
C      1  0.4968480000000  0.5690070000000  0.4734480000000 1.0
C      1  0.4968480000000  0.4734480000000  0.4309930000000 1.0
C      1  0.4968480000000  0.4309930000000  0.5265520000000 1.0
C      1  0.4968480000000  0.5265520000000  0.5690070000000 1.0
C      1  0.4820070000000  0.4518990000000  0.5506290000000 1.0
C      1  0.4820070000000  0.5506290000000  0.5481010000000 1.0
C      1  0.4820070000000  0.5481010000000  0.4493710000000 1.0
C      1  0.4820070000000  0.4493710000000  0.4518990000000 1.0
END
