TITL C-3985259-1859-126 -0.000350657554194444 125000 -354.295499753006 0 0 60 (D5) n - 1
REM
REM in /home/nfs/bkarasulu/CARBON/AIRSS/Generating-Clusters/TERSOFF/Higher-Symm/Only-C60
REM
REM
REM
REM
REM
REM ./C.cell (28575a23ae977d3b5fae324c64b13b57)
REM
REM compiler GCC version 9.2.1 20190827 (Red Hat 9.2.1-1)
REM options -cpp -mtune=generic -march=x86-64 -g -O0 -fpre-include=/usr/include/finclude/math-vector-fortran.h
REM seed 483536445 1579254080 1281993948 1868606153 1679132023 1703469984 -1269099014 1773093606 -2061517931 954569227 -1058457084 -601451074 -1471806582 616621385 335994870 -741824026 -1682881304 1182796233 -1494540787 -937535136 1006961081 45940934 -400485933 1151421046 334816055 519257139 -324543599 993519029 1519057465 -715557050 204624356 -1906148408 -212800158
REM
CELL 1.54180   50.00000   50.00000   50.00000   90.00000   90.00000   90.00000
LATT -1
SFAC C  
C      1  0.5266120000000  0.4410250000000  0.5414530000000 1.0
C      1  0.5643160000000  0.5070850000000  0.5414660000000 1.0
C      1  0.5131330000000  0.5633540000000  0.5414750000000 1.0
C      1  0.4438030000000  0.5320670000000  0.5414690000000 1.0
C      1  0.4521330000000  0.4564620000000  0.5414600000000 1.0
C      1  0.4733880000000  0.4410250000000  0.4585470000000 1.0
C      1  0.4356850000000  0.5070850000000  0.4585350000000 1.0
C      1  0.4868670000000  0.5633540000000  0.4585250000000 1.0
C      1  0.5561970000000  0.5320670000000  0.4585320000000 1.0
C      1  0.5478670000000  0.4564610000000  0.4585400000000 1.0
C      1  0.5449430000000  0.5327690000000  0.5012120000000 1.0
C      1  0.4827120000000  0.5528820000000  0.5012080000000 1.0
C      1  0.4443890000000  0.4999090000000  0.5012090000000 1.0
C      1  0.4829100000000  0.4470900000000  0.5012090000000 1.0
C      1  0.5450490000000  0.4673840000000  0.5012030000000 1.0
C      1  0.4550580000000  0.5327710000000  0.4987890000000 1.0
C      1  0.5172880000000  0.5528800000000  0.4987920000000 1.0
C      1  0.5556130000000  0.4999080000000  0.4987920000000 1.0
C      1  0.5170900000000  0.4470890000000  0.4987910000000 1.0
C      1  0.4549500000000  0.4673840000000  0.4987970000000 1.0
C      1  0.5246530000000  0.4917990000000  0.5665690000000 1.0
C      1  0.5154150000000  0.5209110000000  0.5665710000000 1.0
C      1  0.4848690000000  0.5211180000000  0.5665730000000 1.0
C      1  0.4752350000000  0.4921330000000  0.5665730000000 1.0
C      1  0.4998240000000  0.4740160000000  0.5665670000000 1.0
C      1  0.4753470000000  0.4917990000000  0.4334310000000 1.0
C      1  0.4845850000000  0.5209110000000  0.4334290000000 1.0
C      1  0.5151310000000  0.5211180000000  0.4334270000000 1.0
C      1  0.5247650000000  0.4921330000000  0.4334270000000 1.0
C      1  0.5001760000000  0.4740160000000  0.4334330000000 1.0
C      1  0.4789740000000  0.5152450000000  0.5193870000000 1.0
C      1  0.4790070000000  0.4847080000000  0.5193910000000 1.0
C      1  0.5080720000000  0.4752910000000  0.5193890000000 1.0
C      1  0.5259770000000  0.5000420000000  0.5193970000000 1.0
C      1  0.5079910000000  0.5247180000000  0.5193880000000 1.0
C      1  0.5210280000000  0.5152460000000  0.4806140000000 1.0
C      1  0.5209920000000  0.4847090000000  0.4806080000000 1.0
C      1  0.4919290000000  0.4752910000000  0.4806110000000 1.0
C      1  0.4740230000000  0.5000410000000  0.4806040000000 1.0
C      1  0.4920070000000  0.5247190000000  0.4806110000000 1.0
C      1  0.5302970000000  0.5415170000000  0.4492280000000 1.0
C      1  0.4698710000000  0.5416490000000  0.4492220000000 1.0
C      1  0.4510750000000  0.4842090000000  0.4492180000000 1.0
C      1  0.4998980000000  0.4485960000000  0.4492310000000 1.0
C      1  0.5488420000000  0.4840170000000  0.4492380000000 1.0
C      1  0.4697030000000  0.5415160000000  0.5507710000000 1.0
C      1  0.5301290000000  0.5416500000000  0.5507780000000 1.0
C      1  0.5489250000000  0.4842090000000  0.5507810000000 1.0
C      1  0.5001020000000  0.4485960000000  0.5507680000000 1.0
C      1  0.4511590000000  0.4840170000000  0.5507610000000 1.0
C      1  0.5595770000000  0.5046040000000  0.4677750000000 1.0
C      1  0.5140210000000  0.5580820000000  0.4677750000000 1.0
C      1  0.4490710000000  0.5313100000000  0.4677680000000 1.0
C      1  0.4545070000000  0.4612570000000  0.4677820000000 1.0
C      1  0.5227890000000  0.4447490000000  0.4677790000000 1.0
C      1  0.4404190000000  0.5046030000000  0.5322270000000 1.0
C      1  0.4859780000000  0.5580830000000  0.5322250000000 1.0
C      1  0.5509310000000  0.5313130000000  0.5322330000000 1.0
C      1  0.5454930000000  0.4612560000000  0.5322180000000 1.0
C      1  0.4772110000000  0.4447500000000  0.5322210000000 1.0
END
