TITL C-3985250-725-470 -0.000256917467678057 125000 -343.005402429445 0 0 60 (C1) n - 1
REM
REM in /home/nfs/bkarasulu/CARBON/AIRSS/Generating-Clusters/TERSOFF/Higher-Symm/Only-C60
REM
REM
REM
REM
REM
REM ./C.cell (28575a23ae977d3b5fae324c64b13b57)
REM
REM compiler GCC version 9.2.1 20190827 (Red Hat 9.2.1-1)
REM options -cpp -mtune=generic -march=x86-64 -g -O0 -fpre-include=/usr/include/finclude/math-vector-fortran.h
REM seed 1331994532 -563368690 -1644721088 -705113775 1106155752 -1757770977 1017351056 -1751343828 319178898 1899203907 -1608677277 2054502631 -451817994 1968268964 1897132352 1337752272 -1054959922 1619039042 -139046243 -1098311395 1163951240 -301299464 1248404716 -1087944522 -962464943 2078422286 -1694410375 21671057 1331419648 697553146 -326232386 -1557299894 1160429056
REM
CELL 1.54180   50.00000   50.00000   50.00000   90.00000   90.00000   90.00000
LATT -1
SFAC C  
C      1  0.4964640000000  0.4503390000000  0.4717410000000 1.0
C      1  0.4641730000000  0.5275900000000  0.4704710000000 1.0
C      1  0.5333750000000  0.5263050000000  0.4676280000000 1.0
C      1  0.4889950000000  0.5609420000000  0.4599750000000 1.0
C      1  0.5512090000000  0.4841760000000  0.4548480000000 1.0
C      1  0.4587230000000  0.4581320000000  0.4551510000000 1.0
C      1  0.4900150000000  0.4596140000000  0.5688590000000 1.0
C      1  0.4700830000000  0.5297460000000  0.5691260000000 1.0
C      1  0.5407000000000  0.5112930000000  0.5701980000000 1.0
C      1  0.4556740000000  0.4451640000000  0.4835530000000 1.0
C      1  0.4759150000000  0.5666720000000  0.4863190000000 1.0
C      1  0.5644950000000  0.4914430000000  0.4806940000000 1.0
C      1  0.5110570000000  0.4642200000000  0.4349300000000 1.0
C      1  0.4785500000000  0.5057920000000  0.4376560000000 1.0
C      1  0.5067600000000  0.4941140000000  0.4335700000000 1.0
C      1  0.4756350000000  0.4894780000000  0.5321230000000 1.0
C      1  0.5016550000000  0.5264500000000  0.5337560000000 1.0
C      1  0.5239410000000  0.4842460000000  0.5330150000000 1.0
C      1  0.5229670000000  0.5629890000000  0.5093700000000 1.0
C      1  0.5417670000000  0.4503200000000  0.5043120000000 1.0
C      1  0.4367440000000  0.4891830000000  0.5042820000000 1.0
C      1  0.4480310000000  0.4617600000000  0.5079120000000 1.0
C      1  0.4929640000000  0.5659470000000  0.5114590000000 1.0
C      1  0.5590360000000  0.4751730000000  0.5058720000000 1.0
C      1  0.5151360000000  0.5182070000000  0.5100040000000 1.0
C      1  0.5083520000000  0.4768050000000  0.5092450000000 1.0
C      1  0.4751310000000  0.5058300000000  0.5072860000000 1.0
C      1  0.4703840000000  0.4604300000000  0.5283610000000 1.0
C      1  0.4796700000000  0.5464020000000  0.5302480000000 1.0
C      1  0.5516050000000  0.4947700000000  0.5276830000000 1.0
C      1  0.4549210000000  0.4873990000000  0.4538770000000 1.0
C      1  0.5176090000000  0.5650710000000  0.4586900000000 1.0
C      1  0.5365960000000  0.4584850000000  0.4524850000000 1.0
C      1  0.4977150000000  0.5387620000000  0.5743110000000 1.0
C      1  0.5353790000000  0.4826170000000  0.5746360000000 1.0
C      1  0.4678400000000  0.4789630000000  0.5736230000000 1.0
C      1  0.4345350000000  0.4983420000000  0.4752330000000 1.0
C      1  0.5350110000000  0.5662000000000  0.4822260000000 1.0
C      1  0.5367230000000  0.4394550000000  0.4763810000000 1.0
C      1  0.5087570000000  0.5260460000000  0.4833290000000 1.0
C      1  0.5032560000000  0.4782620000000  0.4806800000000 1.0
C      1  0.4860070000000  0.5053870000000  0.4789340000000 1.0
C      1  0.5558220000000  0.5241440000000  0.5178990000000 1.0
C      1  0.4916880000000  0.4398040000000  0.5204170000000 1.0
C      1  0.4515990000000  0.5380990000000  0.5201610000000 1.0
C      1  0.4530880000000  0.5467420000000  0.4909370000000 1.0
C      1  0.5581690000000  0.5209970000000  0.4866720000000 1.0
C      1  0.4837750000000  0.4329300000000  0.4920310000000 1.0
C      1  0.4746970000000  0.5379070000000  0.4428440000000 1.0
C      1  0.5330570000000  0.5066550000000  0.4449370000000 1.0
C      1  0.4863210000000  0.4479220000000  0.4427430000000 1.0
C      1  0.5178500000000  0.4652560000000  0.5568120000000 1.0
C      1  0.4618940000000  0.5034840000000  0.5561210000000 1.0
C      1  0.5219350000000  0.5314330000000  0.5571740000000 1.0
C      1  0.4134020000000  0.5166590000000  0.4672850000000 1.0
C      1  0.5637630000000  0.5683630000000  0.4789470000000 1.0
C      1  0.5295390000000  0.4115440000000  0.4727080000000 1.0
C      1  0.4394600000000  0.5106610000000  0.5286400000000 1.0
C      1  0.5385900000000  0.5463620000000  0.5305390000000 1.0
C      1  0.5217940000000  0.4425110000000  0.5290800000000 1.0
END
