TITL C-3985247-764-141 -0.0029418857700485 125000 -333.026059265119 0 0 60 (C2) n - 1
REM
REM in /home/nfs/bkarasulu/CARBON/AIRSS/Generating-Clusters/TERSOFF/Higher-Symm/Only-C60
REM
REM
REM
REM
REM
REM ./C.cell (28575a23ae977d3b5fae324c64b13b57)
REM
REM compiler GCC version 9.2.1 20190827 (Red Hat 9.2.1-1)
REM options -cpp -mtune=generic -march=x86-64 -g -O0 -fpre-include=/usr/include/finclude/math-vector-fortran.h
REM seed -1718512390 -460714757 2034228590 -614697213 2069118294 5235843 -634747703 -62015679 1194486723 -355685521 -723983575 -1808063704 -708314983 -408708711 144448725 656599944 1864737153 1735013441 74817337 1147243952 1628831994 875751839 1308667735 -1323068766 402826690 519513646 -1462681008 1938228842 736614588 192073936 -678107274 -639561664 -480766389
REM
CELL 1.54180   50.00000   50.00000   50.00000   90.00000   90.00000   90.00000
LATT -1
SFAC C  
C      1  0.5396840000000  0.5560000000000  0.4601770000000 1.0
C      1  0.5460450000000  0.5296250000000  0.4454200000000 1.0
C      1  0.5406380000000  0.4718070000000  0.4444920000000 1.0
C      1  0.5325290000000  0.4452210000000  0.4520140000000 1.0
C      1  0.5485060000000  0.4423780000000  0.5097010000000 1.0
C      1  0.5396430000000  0.4439420000000  0.5395620000000 1.0
C      1  0.5461030000000  0.4701220000000  0.5546540000000 1.0
C      1  0.5402470000000  0.5280890000000  0.5552760000000 1.0
C      1  0.5322670000000  0.5547740000000  0.5479240000000 1.0
C      1  0.5485780000000  0.5578740000000  0.4900380000000 1.0
C      1  0.5679600000000  0.5124700000000  0.4556390000000 1.0
C      1  0.5644080000000  0.4831780000000  0.4559800000000 1.0
C      1  0.5797100000000  0.4662010000000  0.4743310000000 1.0
C      1  0.5719740000000  0.4602270000000  0.5020440000000 1.0
C      1  0.5838680000000  0.4753730000000  0.5236510000000 1.0
C      1  0.5678500000000  0.4874720000000  0.5443290000000 1.0
C      1  0.5640330000000  0.5167520000000  0.5438150000000 1.0
C      1  0.5794260000000  0.5338340000000  0.5256270000000 1.0
C      1  0.5718900000000  0.5398570000000  0.4978630000000 1.0
C      1  0.5838660000000  0.5246330000000  0.4763520000000 1.0
C      1  0.5157610000000  0.4448410000000  0.5010980000000 1.0
C      1  0.5082910000000  0.4538560000000  0.5354760000000 1.0
C      1  0.5165710000000  0.4815980000000  0.5574040000000 1.0
C      1  0.5178920000000  0.5115800000000  0.5626020000000 1.0
C      1  0.5105940000000  0.5597980000000  0.5294980000000 1.0
C      1  0.5158310000000  0.5559300000000  0.4988580000000 1.0
C      1  0.5083160000000  0.5462640000000  0.4647180000000 1.0
C      1  0.5165510000000  0.5180900000000  0.4433790000000 1.0
C      1  0.5179150000000  0.4882030000000  0.4380050000000 1.0
C      1  0.5106320000000  0.4406870000000  0.4703720000000 1.0
C      1  0.4232970000000  0.5389060000000  0.4679440000000 1.0
C      1  0.4289980000000  0.5107070000000  0.4547090000000 1.0
C      1  0.4149560000000  0.4862410000000  0.4622710000000 1.0
C      1  0.4285010000000  0.4623550000000  0.4723810000000 1.0
C      1  0.4245970000000  0.4506700000000  0.5015580000000 1.0
C      1  0.4231970000000  0.4611790000000  0.5319410000000 1.0
C      1  0.4291740000000  0.4893190000000  0.5451470000000 1.0
C      1  0.4153000000000  0.5138950000000  0.5376350000000 1.0
C      1  0.4289780000000  0.5376510000000  0.5274050000000 1.0
C      1  0.4247390000000  0.5493510000000  0.4983370000000 1.0
C      1  0.4852400000000  0.4333940000000  0.5030110000000 1.0
C      1  0.4809140000000  0.4446510000000  0.5432230000000 1.0
C      1  0.4855580000000  0.4791370000000  0.5667180000000 1.0
C      1  0.4929010000000  0.5246430000000  0.5656400000000 1.0
C      1  0.4821200000000  0.5616700000000  0.5385250000000 1.0
C      1  0.4851080000000  0.5668330000000  0.4968460000000 1.0
C      1  0.4808840000000  0.5553180000000  0.4566950000000 1.0
C      1  0.4857500000000  0.5206240000000  0.4335600000000 1.0
C      1  0.4930100000000  0.4749930000000  0.4349500000000 1.0
C      1  0.4821940000000  0.4387180000000  0.4611410000000 1.0
C      1  0.4598180000000  0.5403440000000  0.5317210000000 1.0
C      1  0.4605800000000  0.5486540000000  0.4988300000000 1.0
C      1  0.4572870000000  0.5391360000000  0.4671400000000 1.0
C      1  0.4605590000000  0.5096940000000  0.4501180000000 1.0
C      1  0.4704430000000  0.4811370000000  0.4510230000000 1.0
C      1  0.4594260000000  0.4595870000000  0.4684290000000 1.0
C      1  0.4603990000000  0.4511160000000  0.5011260000000 1.0
C      1  0.4572190000000  0.4606200000000  0.5327890000000 1.0
C      1  0.4606790000000  0.4900890000000  0.5497640000000 1.0
C      1  0.4705960000000  0.5186910000000  0.5491190000000 1.0
END
