TITL C-3985254-1270-494 -7.06331187029674e-07 125000 -348.917267950241 0 0 60 (C2) n - 1
REM
REM in /home/nfs/bkarasulu/CARBON/AIRSS/Generating-Clusters/TERSOFF/Higher-Symm/Only-C60
REM
REM
REM
REM
REM
REM ./C.cell (28575a23ae977d3b5fae324c64b13b57)
REM
REM compiler GCC version 9.2.1 20190827 (Red Hat 9.2.1-1)
REM options -cpp -mtune=generic -march=x86-64 -g -O0 -fpre-include=/usr/include/finclude/math-vector-fortran.h
REM seed -229047447 -852941031 -441433319 -1323756643 -785007217 -1441400712 -2047473714 1697208083 -1551117613 -1575490748 -306652731 -1761435609 -483238365 1952852552 -1347947678 1575700108 515827142 -1753305080 -1315692745 -1911924075 162228647 1136644519 -204353250 349118065 -1863438593 -859787219 -489221400 655557010 -1532969877 1673670946 -995966441 211612204 -1458200336
REM
CELL 1.54180   50.00000   50.00000   50.00000   90.00000   90.00000   90.00000
LATT -1
SFAC C  
C      1  0.5088620000000  0.4705190000000  0.4880330000000 1.0
C      1  0.5108970000000  0.5038410000000  0.5320040000000 1.0
C      1  0.5056610000000  0.5224300000000  0.4848720000000 1.0
C      1  0.4911380000000  0.4705190000000  0.5119670000000 1.0
C      1  0.4891020000000  0.5038400000000  0.4679950000000 1.0
C      1  0.4943390000000  0.5224300000000  0.5151280000000 1.0
C      1  0.5242920000000  0.4975610000000  0.5713060000000 1.0
C      1  0.5236770000000  0.5631200000000  0.4672380000000 1.0
C      1  0.5239350000000  0.4401460000000  0.4621780000000 1.0
C      1  0.4757090000000  0.4975620000000  0.4286960000000 1.0
C      1  0.4763230000000  0.5631190000000  0.5327620000000 1.0
C      1  0.4760650000000  0.4401460000000  0.5378220000000 1.0
C      1  0.4991820000000  0.5553120000000  0.4842180000000 1.0
C      1  0.4991650000000  0.4596040000000  0.4598870000000 1.0
C      1  0.4993540000000  0.4855930000000  0.5554780000000 1.0
C      1  0.5008180000000  0.5553120000000  0.5157820000000 1.0
C      1  0.5008350000000  0.4596040000000  0.5401130000000 1.0
C      1  0.5006460000000  0.4855930000000  0.4445220000000 1.0
C      1  0.4637990000000  0.5164500000000  0.5635260000000 1.0
C      1  0.4627420000000  0.5478610000000  0.4536950000000 1.0
C      1  0.4631200000000  0.4363660000000  0.4816740000000 1.0
C      1  0.5362010000000  0.5164500000000  0.4364730000000 1.0
C      1  0.5372580000000  0.5478610000000  0.5463050000000 1.0
C      1  0.5368800000000  0.4363660000000  0.5183260000000 1.0
C      1  0.5504960000000  0.5092940000000  0.4613640000000 1.0
C      1  0.5526720000000  0.4610600000000  0.5121770000000 1.0
C      1  0.5535510000000  0.5300940000000  0.5285620000000 1.0
C      1  0.4495040000000  0.5092940000000  0.5386360000000 1.0
C      1  0.4473280000000  0.4610600000000  0.4878230000000 1.0
C      1  0.4464490000000  0.5300940000000  0.4714380000000 1.0
C      1  0.4610110000000  0.4731570000000  0.5099140000000 1.0
C      1  0.4625740000000  0.5218600000000  0.5165990000000 1.0
C      1  0.4593290000000  0.5044380000000  0.4699830000000 1.0
C      1  0.5389890000000  0.4731570000000  0.4900860000000 1.0
C      1  0.5374260000000  0.5218600000000  0.4834010000000 1.0
C      1  0.5406710000000  0.5044370000000  0.5300170000000 1.0
C      1  0.5159340000000  0.4298820000000  0.4958060000000 1.0
C      1  0.5162550000000  0.5317070000000  0.5629200000000 1.0
C      1  0.5152240000000  0.5385780000000  0.4422560000000 1.0
C      1  0.4840660000000  0.4298820000000  0.5041940000000 1.0
C      1  0.4837450000000  0.5317080000000  0.4370790000000 1.0
C      1  0.4847760000000  0.5385790000000  0.5577440000000 1.0
C      1  0.4568550000000  0.4701030000000  0.4399430000000 1.0
C      1  0.4570900000000  0.4633280000000  0.5553870000000 1.0
C      1  0.4572580000000  0.5668980000000  0.5041410000000 1.0
C      1  0.5431450000000  0.4701030000000  0.5600570000000 1.0
C      1  0.5429100000000  0.4633280000000  0.4446130000000 1.0
C      1  0.5427420000000  0.5668980000000  0.4958590000000 1.0
C      1  0.4732470000000  0.5659660000000  0.4760490000000 1.0
C      1  0.4734200000000  0.4469910000000  0.4549700000000 1.0
C      1  0.4734400000000  0.4879560000000  0.5685040000000 1.0
C      1  0.5267530000000  0.5659660000000  0.5239510000000 1.0
C      1  0.5265800000000  0.4469910000000  0.5450300000000 1.0
C      1  0.5265600000000  0.4879560000000  0.4314960000000 1.0
C      1  0.5529410000000  0.5392100000000  0.5006850000000 1.0
C      1  0.5537460000000  0.4807840000000  0.4663090000000 1.0
C      1  0.5557810000000  0.4798920000000  0.5346360000000 1.0
C      1  0.4470590000000  0.5392100000000  0.4993150000000 1.0
C      1  0.4462540000000  0.4807840000000  0.5336910000000 1.0
C      1  0.4442190000000  0.4798920000000  0.4653640000000 1.0
END
