TITL C-3985247-764-267 -0.000229029113176529 125000 -338.480384896579 0 0 60 (C1) n - 1
REM
REM in /home/nfs/bkarasulu/CARBON/AIRSS/Generating-Clusters/TERSOFF/Higher-Symm/Only-C60
REM
REM
REM
REM
REM
REM ./C.cell (28575a23ae977d3b5fae324c64b13b57)
REM
REM compiler GCC version 9.2.1 20190827 (Red Hat 9.2.1-1)
REM options -cpp -mtune=generic -march=x86-64 -g -O0 -fpre-include=/usr/include/finclude/math-vector-fortran.h
REM seed 1372558831 1858294113 -1841101602 -1653867330 -445870685 -1085580059 -715519823 -38669620 1693964846 1351079348 -1986723842 172146827 211024823 -1163477626 -1477258923 1353562124 -371316045 -1595391737 1572543620 391897900 1856205085 -539179823 -1372272379 -1287676105 -118179951 1217058188 1930598084 1175665313 -400527117 2138017969 1662095415 -1497604134 -1832120597
REM
CELL 1.54180   50.00000   50.00000   50.00000   90.00000   90.00000   90.00000
LATT -1
SFAC C  
C      1  0.4840060000000  0.5524100000000  0.4423100000000 1.0
C      1  0.4834000000000  0.5242930000000  0.5738460000000 1.0
C      1  0.4837370000000  0.4235070000000  0.4837060000000 1.0
C      1  0.5159620000000  0.5522720000000  0.4422050000000 1.0
C      1  0.5157000000000  0.5244760000000  0.5737840000000 1.0
C      1  0.5157150000000  0.4236010000000  0.4839480000000 1.0
C      1  0.4841990000000  0.5522920000000  0.5575840000000 1.0
C      1  0.4837350000000  0.5242940000000  0.4262390000000 1.0
C      1  0.4843250000000  0.4236840000000  0.5161090000000 1.0
C      1  0.5163450000000  0.5525220000000  0.5575780000000 1.0
C      1  0.5162780000000  0.5241480000000  0.4261650000000 1.0
C      1  0.5165570000000  0.4236650000000  0.5163240000000 1.0
C      1  0.4832730000000  0.4998120000000  0.4683820000000 1.0
C      1  0.4837320000000  0.5277050000000  0.5156160000000 1.0
C      1  0.4835050000000  0.4724270000000  0.5160550000000 1.0
C      1  0.5165800000000  0.4997880000000  0.4683630000000 1.0
C      1  0.5167580000000  0.5275940000000  0.5156690000000 1.0
C      1  0.5167420000000  0.4725220000000  0.5159820000000 1.0
C      1  0.4832970000000  0.4998350000000  0.5315840000000 1.0
C      1  0.4836130000000  0.5276870000000  0.4843180000000 1.0
C      1  0.4832140000000  0.4724090000000  0.4839590000000 1.0
C      1  0.5165830000000  0.4998190000000  0.5317560000000 1.0
C      1  0.5165600000000  0.5276750000000  0.4843030000000 1.0
C      1  0.5163570000000  0.4723850000000  0.4838410000000 1.0
C      1  0.4401870000000  0.4480250000000  0.5168300000000 1.0
C      1  0.4398290000000  0.5128710000000  0.4489130000000 1.0
C      1  0.4401660000000  0.5415770000000  0.5349140000000 1.0
C      1  0.5600980000000  0.4490260000000  0.5147090000000 1.0
C      1  0.5600610000000  0.5125160000000  0.4490160000000 1.0
C      1  0.5601970000000  0.5394250000000  0.5358940000000 1.0
C      1  0.4399150000000  0.4481210000000  0.4838800000000 1.0
C      1  0.4397640000000  0.5128950000000  0.5509100000000 1.0
C      1  0.4400870000000  0.5415480000000  0.4649820000000 1.0
C      1  0.5598200000000  0.4479170000000  0.4817660000000 1.0
C      1  0.5599810000000  0.5114300000000  0.5532020000000 1.0
C      1  0.5600400000000  0.5415950000000  0.4645730000000 1.0
C      1  0.4209710000000  0.5254170000000  0.5147520000000 1.0
C      1  0.4196400000000  0.4727870000000  0.5156330000000 1.0
C      1  0.4190520000000  0.4983110000000  0.4691740000000 1.0
C      1  0.5806030000000  0.5270240000000  0.5137000000000 1.0
C      1  0.5810410000000  0.4740060000000  0.5174480000000 1.0
C      1  0.5808010000000  0.4974490000000  0.4695150000000 1.0
C      1  0.4209540000000  0.5254100000000  0.4851420000000 1.0
C      1  0.4193040000000  0.4727860000000  0.4842210000000 1.0
C      1  0.4190670000000  0.4982800000000  0.5307060000000 1.0
C      1  0.5790520000000  0.5252450000000  0.4842550000000 1.0
C      1  0.5791800000000  0.4728830000000  0.4859060000000 1.0
C      1  0.5799490000000  0.5005600000000  0.5306760000000 1.0
C      1  0.4680820000000  0.5044360000000  0.4430660000000 1.0
C      1  0.4692510000000  0.5482430000000  0.5316400000000 1.0
C      1  0.4689460000000  0.4480370000000  0.5254090000000 1.0
C      1  0.5317990000000  0.5042590000000  0.4430700000000 1.0
C      1  0.5316540000000  0.5477590000000  0.5318320000000 1.0
C      1  0.5319420000000  0.4483400000000  0.5248650000000 1.0
C      1  0.4679570000000  0.5044440000000  0.5568530000000 1.0
C      1  0.4691310000000  0.5482410000000  0.4682820000000 1.0
C      1  0.4684410000000  0.4480460000000  0.4747500000000 1.0
C      1  0.5311550000000  0.5041480000000  0.5575230000000 1.0
C      1  0.5309750000000  0.5481920000000  0.4680910000000 1.0
C      1  0.5307380000000  0.4479290000000  0.4742740000000 1.0
END
