TITL C-3985254-1270-1381 -0.00120320861684479 125000 -315.108659522104 0 0 60 (C1) n - 1
REM
REM in /home/nfs/bkarasulu/CARBON/AIRSS/Generating-Clusters/TERSOFF/Higher-Symm/Only-C60
REM
REM
REM
REM
REM
REM ./C.cell (28575a23ae977d3b5fae324c64b13b57)
REM
REM compiler GCC version 9.2.1 20190827 (Red Hat 9.2.1-1)
REM options -cpp -mtune=generic -march=x86-64 -g -O0 -fpre-include=/usr/include/finclude/math-vector-fortran.h
REM seed 76793283 1496840199 1789792539 788477464 -1597789003 -767468444 1110845742 -2017056279 -862657274 -68361282 1340883939 1817658892 -348279966 2072806944 1345514785 -1732391467 538076625 -132949315 -515957721 333841449 15570372 59525632 -377594034 643684362 1832835328 -258528819 -2014715865 -1326515792 -1067586980 -1587767837 -1417829571 -560616693 466008033
REM
CELL 1.54180   50.00000   50.00000   50.00000   90.00000   90.00000   90.00000
LATT -1
SFAC C  
C      1  0.4518020000000  0.5455520000000  0.4591700000000 1.0
C      1  0.4663400000000  0.5329660000000  0.4343000000000 1.0
C      1  0.4983920000000  0.5362680000000  0.4357190000000 1.0
C      1  0.5276540000000  0.5302240000000  0.4237860000000 1.0
C      1  0.5551670000000  0.5465410000000  0.4959200000000 1.0
C      1  0.5676120000000  0.5356910000000  0.5200540000000 1.0
C      1  0.5475350000000  0.5387710000000  0.5456290000000 1.0
C      1  0.5260760000000  0.5323140000000  0.5689790000000 1.0
C      1  0.4979500000000  0.5447640000000  0.5636880000000 1.0
C      1  0.4779800000000  0.5525540000000  0.5371380000000 1.0
C      1  0.4577870000000  0.5532300000000  0.4918440000000 1.0
C      1  0.4206360000000  0.4829060000000  0.4850540000000 1.0
C      1  0.4386650000000  0.4875760000000  0.4420960000000 1.0
C      1  0.4735810000000  0.4825310000000  0.4155050000000 1.0
C      1  0.5223450000000  0.4801360000000  0.4191800000000 1.0
C      1  0.5571650000000  0.4928940000000  0.4460280000000 1.0
C      1  0.5770980000000  0.4952160000000  0.4881750000000 1.0
C      1  0.5765530000000  0.4860110000000  0.5333450000000 1.0
C      1  0.5469330000000  0.4828950000000  0.5721270000000 1.0
C      1  0.5032770000000  0.4858710000000  0.5828010000000 1.0
C      1  0.4589640000000  0.4817300000000  0.5681660000000 1.0
C      1  0.4317710000000  0.4821880000000  0.5303380000000 1.0
C      1  0.5272220000000  0.5034860000000  0.5827980000000 1.0
C      1  0.4775550000000  0.4993710000000  0.5827530000000 1.0
C      1  0.4417450000000  0.4981400000000  0.5517650000000 1.0
C      1  0.4222160000000  0.4987420000000  0.5091520000000 1.0
C      1  0.4224470000000  0.5011970000000  0.4619010000000 1.0
C      1  0.4545960000000  0.5051010000000  0.4237760000000 1.0
C      1  0.4980770000000  0.4946950000000  0.4244400000000 1.0
C      1  0.5410940000000  0.5026720000000  0.4235930000000 1.0
C      1  0.5671220000000  0.5117190000000  0.4658450000000 1.0
C      1  0.5820060000000  0.5082850000000  0.5143330000000 1.0
C      1  0.5562740000000  0.4979300000000  0.5495730000000 1.0
C      1  0.4400120000000  0.5264230000000  0.5073490000000 1.0
C      1  0.4456840000000  0.5179290000000  0.4728550000000 1.0
C      1  0.4714230000000  0.5017660000000  0.4674180000000 1.0
C      1  0.4966160000000  0.5094290000000  0.4514060000000 1.0
C      1  0.5218120000000  0.5043010000000  0.4656060000000 1.0
C      1  0.5421990000000  0.5256330000000  0.4782280000000 1.0
C      1  0.5386480000000  0.5056650000000  0.5040780000000 1.0
C      1  0.5336360000000  0.5116110000000  0.5332350000000 1.0
C      1  0.5059940000000  0.5018950000000  0.5430940000000 1.0
C      1  0.4841250000000  0.5171610000000  0.5586590000000 1.0
C      1  0.4547710000000  0.5259940000000  0.5400670000000 1.0
C      1  0.5456000000000  0.4677500000000  0.4601470000000 1.0
C      1  0.5600000000000  0.4690060000000  0.4900580000000 1.0
C      1  0.5566770000000  0.4625910000000  0.5224300000000 1.0
C      1  0.5343550000000  0.4602990000000  0.5506060000000 1.0
C      1  0.5039550000000  0.4640450000000  0.5613510000000 1.0
C      1  0.4734740000000  0.4599550000000  0.5495850000000 1.0
C      1  0.4520770000000  0.4600740000000  0.5207490000000 1.0
C      1  0.4437080000000  0.4604530000000  0.4858520000000 1.0
C      1  0.4543430000000  0.4650250000000  0.4553470000000 1.0
C      1  0.4817720000000  0.4592330000000  0.4399170000000 1.0
C      1  0.5176340000000  0.4590440000000  0.4435610000000 1.0
C      1  0.4934340000000  0.4998620000000  0.5031020000000 1.0
C      1  0.5090940000000  0.4769620000000  0.4948350000000 1.0
C      1  0.4839990000000  0.5507170000000  0.5072480000000 1.0
C      1  0.5009400000000  0.5279010000000  0.4992400000000 1.0
C      1  0.5011660000000  0.4493400000000  0.4986870000000 1.0
END
