TITL C-3985250-725-53 -1.47997932132891e-07 125000 -343.921568889167 0 0 60 (Ci) n - 1
REM
REM in /home/nfs/bkarasulu/CARBON/AIRSS/Generating-Clusters/TERSOFF/Higher-Symm/Only-C60
REM
REM
REM
REM
REM
REM ./C.cell (28575a23ae977d3b5fae324c64b13b57)
REM
REM compiler GCC version 9.2.1 20190827 (Red Hat 9.2.1-1)
REM options -cpp -mtune=generic -march=x86-64 -g -O0 -fpre-include=/usr/include/finclude/math-vector-fortran.h
REM seed 667082598 175150915 1121780248 -1951471459 -292572718 851435174 614261091 -1856640228 48581197 1284947530 -204091148 1656556105 1402235583 1994638393 343761665 -659354935 -737721133 -1439254873 1665318482 -552085974 1777767999 1576371206 -722671254 973716472 -2112075124 -1179290452 136004130 -1828989899 1531846044 -807656071 -60446928 -469398421 -1739714517
REM
CELL 1.54180   50.00000   50.00000   50.00000   90.00000   90.00000   90.00000
LATT -1
SFAC C  
C      1  0.4810990000000  0.4910140000000  0.4949850000000 1.0
C      1  0.5183110000000  0.4784700000000  0.5243340000000 1.0
C      1  0.4824060000000  0.5016030000000  0.5276130000000 1.0
C      1  0.5189010000000  0.5089860000000  0.5050150000000 1.0
C      1  0.4816890000000  0.5215300000000  0.4756660000000 1.0
C      1  0.5175940000000  0.4983970000000  0.4723870000000 1.0
C      1  0.5638510000000  0.5356870000000  0.4602770000000 1.0
C      1  0.4374020000000  0.4861930000000  0.4552940000000 1.0
C      1  0.5634740000000  0.4548130000000  0.4928400000000 1.0
C      1  0.4361490000000  0.4643130000000  0.5397230000000 1.0
C      1  0.5625980000000  0.5138070000000  0.5447060000000 1.0
C      1  0.4365260000000  0.5451870000000  0.5071600000000 1.0
C      1  0.5461510000000  0.4706520000000  0.5358720000000 1.0
C      1  0.4536040000000  0.5097860000000  0.5379640000000 1.0
C      1  0.5440460000000  0.5335620000000  0.5044820000000 1.0
C      1  0.4538490000000  0.5293480000000  0.4641280000000 1.0
C      1  0.5463960000000  0.4902140000000  0.4620360000000 1.0
C      1  0.4559540000000  0.4664380000000  0.4955180000000 1.0
C      1  0.4991180000000  0.4725430000000  0.4694270000000 1.0
C      1  0.5046680000000  0.4524010000000  0.5162340000000 1.0
C      1  0.4987090000000  0.4835950000000  0.5489820000000 1.0
C      1  0.5008820000000  0.5274570000000  0.5305730000000 1.0
C      1  0.4953320000000  0.5475990000000  0.4837660000000 1.0
C      1  0.5012910000000  0.5164050000000  0.4510180000000 1.0
C      1  0.5455660000000  0.5383620000000  0.5520890000000 1.0
C      1  0.4519030000000  0.5684550000000  0.4919040000000 1.0
C      1  0.5470310000000  0.5301760000000  0.4344740000000 1.0
C      1  0.4544340000000  0.4616380000000  0.4479110000000 1.0
C      1  0.5480970000000  0.4315450000000  0.5080960000000 1.0
C      1  0.4529690000000  0.4698240000000  0.5655260000000 1.0
C      1  0.4512520000000  0.5593650000000  0.4630620000000 1.0
C      1  0.5478240000000  0.5002480000000  0.4335540000000 1.0
C      1  0.4553860000000  0.4479700000000  0.4729220000000 1.0
C      1  0.5487480000000  0.4406350000000  0.5369380000000 1.0
C      1  0.4521760000000  0.4997520000000  0.5664460000000 1.0
C      1  0.5446140000000  0.5520300000000  0.5270780000000 1.0
C      1  0.5192400000000  0.4348070000000  0.4975720000000 1.0
C      1  0.4813660000000  0.4603510000000  0.5586950000000 1.0
C      1  0.5180490000000  0.5271060000000  0.5564570000000 1.0
C      1  0.4807600000000  0.5651930000000  0.5024280000000 1.0
C      1  0.5186340000000  0.5396490000000  0.4413050000000 1.0
C      1  0.4819510000000  0.4728940000000  0.4435430000000 1.0
C      1  0.5189550000000  0.5556480000000  0.4675160000000 1.0
C      1  0.4802150000000  0.5013200000000  0.4338330000000 1.0
C      1  0.5200240000000  0.4501800000000  0.4720950000000 1.0
C      1  0.4810450000000  0.4443520000000  0.5324840000000 1.0
C      1  0.5197850000000  0.4986800000000  0.5661670000000 1.0
C      1  0.4799760000000  0.5498200000000  0.5279050000000 1.0
C      1  0.5668700000000  0.5088970000000  0.4760050000000 1.0
C      1  0.4318020000000  0.4911190000000  0.4907480000000 1.0
C      1  0.5648550000000  0.4776410000000  0.5137120000000 1.0
C      1  0.4331300000000  0.4911030000000  0.5239950000000 1.0
C      1  0.5681980000000  0.5088810000000  0.5092520000000 1.0
C      1  0.4351450000000  0.5223590000000  0.4862880000000 1.0
C      1  0.5479060000000  0.4613400000000  0.4683400000000 1.0
C      1  0.4547640000000  0.4512610000000  0.5207300000000 1.0
C      1  0.5487070000000  0.4898980000000  0.5584020000000 1.0
C      1  0.4520940000000  0.5386600000000  0.5316600000000 1.0
C      1  0.5452360000000  0.5487390000000  0.4792700000000 1.0
C      1  0.4512930000000  0.5101020000000  0.4415980000000 1.0
END
