TITL C-3985247-764-623 0.000853891560967159 125000 -313.826655712022 0 0 60 (C3i) n - 1
REM
REM in /home/nfs/bkarasulu/CARBON/AIRSS/Generating-Clusters/TERSOFF/Higher-Symm/Only-C60
REM
REM
REM
REM
REM
REM ./C.cell (28575a23ae977d3b5fae324c64b13b57)
REM
REM compiler GCC version 9.2.1 20190827 (Red Hat 9.2.1-1)
REM options -cpp -mtune=generic -march=x86-64 -g -O0 -fpre-include=/usr/include/finclude/math-vector-fortran.h
REM seed 657580462 1369578639 -2093288798 1790966880 -1697628765 1898565977 -1410610275 -929846039 1211277123 1130210225 -204544560 -1362470219 394184176 317522805 1758298961 -508257300 1846723268 1363855536 -1118583544 1742305311 -307695035 -1301808105 -478005526 1719090518 -1804657982 1333866199 1221636288 1381334349 -1769611743 -1649540869 1412977625 -292879318 -2038764221
REM
CELL 1.54180   50.00000   50.00000   50.00000   90.00000   90.00000   90.00000
LATT -1
SFAC C  
C      1  0.5043680000000  0.4817510000000  0.5665090000000 1.0
C      1  0.5043640000000  0.5667370000000  0.4825460000000 1.0
C      1  0.5043610000000  0.4515210000000  0.4509410000000 1.0
C      1  0.4956320000000  0.4817510000000  0.4334910000000 1.0
C      1  0.4956360000000  0.5667370000000  0.5174540000000 1.0
C      1  0.4956390000000  0.4515210000000  0.5490590000000 1.0
C      1  0.4956320000000  0.5182490000000  0.4334910000000 1.0
C      1  0.4956360000000  0.4332630000000  0.5174540000000 1.0
C      1  0.4956390000000  0.5484790000000  0.5490590000000 1.0
C      1  0.5043680000000  0.5182490000000  0.5665090000000 1.0
C      1  0.5043640000000  0.4332630000000  0.4825460000000 1.0
C      1  0.5043610000000  0.5484790000000  0.4509410000000 1.0
C      1  0.5661740000000  0.5151700000000  0.5262590000000 1.0
C      1  0.5661720000000  0.5151560000000  0.4737320000000 1.0
C      1  0.5661740000000  0.4696750000000  0.5000080000000 1.0
C      1  0.4338260000000  0.5151700000000  0.4737410000000 1.0
C      1  0.4338280000000  0.5151560000000  0.5262680000000 1.0
C      1  0.4338260000000  0.4696750000000  0.4999920000000 1.0
C      1  0.4338260000000  0.4848300000000  0.4737410000000 1.0
C      1  0.4338280000000  0.4848440000000  0.5262680000000 1.0
C      1  0.4338260000000  0.5303250000000  0.4999920000000 1.0
C      1  0.5661740000000  0.4848300000000  0.5262590000000 1.0
C      1  0.5661720000000  0.4848440000000  0.4737320000000 1.0
C      1  0.5661740000000  0.5303250000000  0.5000080000000 1.0
C      1  0.5418690000000  0.4750710000000  0.4580950000000 1.0
C      1  0.5418620000000  0.4761690000000  0.5425350000000 1.0
C      1  0.5418600000000  0.5487470000000  0.4993730000000 1.0
C      1  0.4581310000000  0.4750710000000  0.5419050000000 1.0
C      1  0.4581380000000  0.4761690000000  0.4574650000000 1.0
C      1  0.4581400000000  0.5487470000000  0.5006270000000 1.0
C      1  0.4581310000000  0.5249290000000  0.5419050000000 1.0
C      1  0.4581380000000  0.5238310000000  0.4574650000000 1.0
C      1  0.4581400000000  0.4512530000000  0.5006270000000 1.0
C      1  0.5418690000000  0.5249290000000  0.4580950000000 1.0
C      1  0.5418620000000  0.5238310000000  0.5425350000000 1.0
C      1  0.5418600000000  0.4512530000000  0.4993730000000 1.0
C      1  0.5170120000000  0.5310760000000  0.5006440000000 1.0
C      1  0.5169980000000  0.4850440000000  0.4727700000000 1.0
C      1  0.5169980000000  0.4839180000000  0.5266000000000 1.0
C      1  0.4829880000000  0.5310760000000  0.4993560000000 1.0
C      1  0.4830020000000  0.4850440000000  0.5272300000000 1.0
C      1  0.4830020000000  0.4839180000000  0.4734000000000 1.0
C      1  0.4829880000000  0.4689240000000  0.4993560000000 1.0
C      1  0.4830020000000  0.5149560000000  0.5272300000000 1.0
C      1  0.4830020000000  0.5160820000000  0.4734000000000 1.0
C      1  0.5170120000000  0.4689240000000  0.5006440000000 1.0
C      1  0.5169980000000  0.5149560000000  0.4727700000000 1.0
C      1  0.5169980000000  0.5160820000000  0.5266000000000 1.0
C      1  0.5367190000000  0.4462190000000  0.4509140000000 1.0
C      1  0.5367250000000  0.4843780000000  0.5711220000000 1.0
C      1  0.5367260000000  0.5694060000000  0.4779710000000 1.0
C      1  0.4632810000000  0.4462190000000  0.5490860000000 1.0
C      1  0.4632750000000  0.4843780000000  0.4288780000000 1.0
C      1  0.4632740000000  0.5694060000000  0.5220290000000 1.0
C      1  0.4632810000000  0.5537810000000  0.5490860000000 1.0
C      1  0.4632750000000  0.5156220000000  0.4288780000000 1.0
C      1  0.4632740000000  0.4305940000000  0.5220290000000 1.0
C      1  0.5367190000000  0.5537810000000  0.4509140000000 1.0
C      1  0.5367250000000  0.5156220000000  0.5711220000000 1.0
C      1  0.5367260000000  0.4305940000000  0.4779710000000 1.0
END
