TITL C-3985257-5396-121 -0.000387307852110444 125000 -306.902232535593 0 0 60 (C5) n - 1
REM
REM in /home/nfs/bkarasulu/CARBON/AIRSS/Generating-Clusters/TERSOFF/Higher-Symm/Only-C60
REM
REM
REM
REM
REM
REM ./C.cell (28575a23ae977d3b5fae324c64b13b57)
REM
REM compiler GCC version 9.2.1 20190827 (Red Hat 9.2.1-1)
REM options -cpp -mtune=generic -march=x86-64 -g -O0 -fpre-include=/usr/include/finclude/math-vector-fortran.h
REM seed -1546142428 -1292734787 765929303 -1184566682 -2124168344 279446028 755968995 -347203372 -1106722830 -319261993 -355691970 1483902716 485516466 -399643261 1174457338 2074179277 1773930699 -1094704864 1679030506 1433871877 84711871 -1160766805 -1509698118 -694324414 1405878654 562286976 714833128 1824036645 669655860 -1687236120 -1398755007 -1218378676 392041757
REM
CELL 1.54180   50.00000   50.00000   50.00000   90.00000   90.00000   90.00000
LATT -1
SFAC C  
C      1  0.5540730000000  0.5160600000000  0.5411000000000 1.0
C      1  0.5557840000000  0.5160700000000  0.4612860000000 1.0
C      1  0.4804320000000  0.5160700000000  0.4349740000000 1.0
C      1  0.4321030000000  0.5160600000000  0.4985310000000 1.0
C      1  0.4776340000000  0.5160760000000  0.5640960000000 1.0
C      1  0.5037360000000  0.5110470000000  0.5293610000000 1.0
C      1  0.5290680000000  0.5110540000000  0.5055290000000 1.0
C      1  0.5142440000000  0.5110480000000  0.4740580000000 1.0
C      1  0.4797360000000  0.5110570000000  0.4784470000000 1.0
C      1  0.4732410000000  0.5110560000000  0.5126210000000 1.0
C      1  0.4717930000000  0.4525880000000  0.4659690000000 1.0
C      1  0.4589150000000  0.4525760000000  0.5163220000000 1.0
C      1  0.5027860000000  0.4525770000000  0.5441090000000 1.0
C      1  0.5428220000000  0.4525760000000  0.5109280000000 1.0
C      1  0.5236660000000  0.4525820000000  0.4626720000000 1.0
C      1  0.5192730000000  0.4877480000000  0.5619560000000 1.0
C      1  0.5648700000000  0.4877450000000  0.5008250000000 1.0
C      1  0.5208330000000  0.4877380000000  0.4385560000000 1.0
C      1  0.4480000000000  0.4877530000000  0.4612010000000 1.0
C      1  0.4470160000000  0.4877360000000  0.5374730000000 1.0
C      1  0.4883490000000  0.4876570000000  0.5637660000000 1.0
C      1  0.5570500000000  0.4876470000000  0.5307910000000 1.0
C      1  0.5469170000000  0.4876530000000  0.4552630000000 1.0
C      1  0.4719570000000  0.4876570000000  0.4415710000000 1.0
C      1  0.4357350000000  0.4876450000000  0.5086230000000 1.0
C      1  0.5059720000000  0.5450510000000  0.4722610000000 1.0
C      1  0.4754700000000  0.5450510000000  0.4857550000000 1.0
C      1  0.4788630000000  0.5450480000000  0.5189300000000 1.0
C      1  0.5114710000000  0.5450470000000  0.5259400000000 1.0
C      1  0.5282300000000  0.5450520000000  0.4971020000000 1.0
C      1  0.5118330000000  0.5165520000000  0.4325400000000 1.0
C      1  0.4395070000000  0.5165750000000  0.4679120000000 1.0
C      1  0.4507790000000  0.5165620000000  0.5476180000000 1.0
C      1  0.5300980000000  0.5165640000000  0.5615220000000 1.0
C      1  0.5678040000000  0.5165710000000  0.4904070000000 1.0
C      1  0.5016300000000  0.4780890000000  0.5251100000000 1.0
C      1  0.5243780000000  0.4781080000000  0.5062200000000 1.0
C      1  0.5134240000000  0.4780940000000  0.4787290000000 1.0
C      1  0.4839190000000  0.4781020000000  0.4806570000000 1.0
C      1  0.4766110000000  0.4781080000000  0.5093100000000 1.0
C      1  0.5096220000000  0.5786650000000  0.5252020000000 1.0
C      1  0.5269360000000  0.5786700000000  0.4986290000000 1.0
C      1  0.5070140000000  0.5786720000000  0.4739470000000 1.0
C      1  0.4773840000000  0.5786660000000  0.4852650000000 1.0
C      1  0.4789990000000  0.5786600000000  0.5169420000000 1.0
C      1  0.5366780000000  0.4652300000000  0.5442520000000 1.0
C      1  0.5534130000000  0.4652170000000  0.4787930000000 1.0
C      1  0.4963290000000  0.4652310000000  0.4426560000000 1.0
C      1  0.4443150000000  0.4652290000000  0.4857640000000 1.0
C      1  0.4692670000000  0.4652130000000  0.5485580000000 1.0
C      1  0.5016100000000  0.4283650000000  0.5256060000000 1.0
C      1  0.5248580000000  0.4283580000000  0.5063800000000 1.0
C      1  0.5137560000000  0.4283620000000  0.4783170000000 1.0
C      1  0.4836390000000  0.4283720000000  0.4802190000000 1.0
C      1  0.4761320000000  0.4283670000000  0.5094400000000 1.0
C      1  0.5630490000000  0.5329380000000  0.5167950000000 1.0
C      1  0.5354450000000  0.5329320000000  0.4452130000000 1.0
C      1  0.4588710000000  0.5329360000000  0.4493550000000 1.0
C      1  0.4391190000000  0.5329260000000  0.5234750000000 1.0
C      1  0.5035390000000  0.5329410000000  0.5651520000000 1.0
END
