TITL C-3985245-9316-369 0.000338859578174507 125000 -332.196754940455 0 0 60 (Ci) n - 1
REM
REM in /home/nfs/bkarasulu/CARBON/AIRSS/Generating-Clusters/TERSOFF/Higher-Symm/Only-C60
REM
REM
REM
REM
REM
REM ./C.cell (28575a23ae977d3b5fae324c64b13b57)
REM
REM compiler GCC version 9.2.1 20190827 (Red Hat 9.2.1-1)
REM options -cpp -mtune=generic -march=x86-64 -g -O0 -fpre-include=/usr/include/finclude/math-vector-fortran.h
REM seed 1378258294 -519559343 -1996314910 348351556 -972825469 826641775 1688301691 -1643791657 -1612229586 459983137 -781677277 1315000209 -519971204 1374960205 -184879675 1540894509 1601060903 1339428426 1059648051 -903779467 -183216336 -758537505 -1322108431 -1351408226 -953467177 -1410490703 -88369609 810400368 410265878 -565829605 250847858 -625597393 -1485831395
REM
CELL 1.54180   50.00000   50.00000   50.00000   90.00000   90.00000   90.00000
LATT -1
SFAC C  
C      1  0.4459550000000  0.4988100000000  0.4598730000000 1.0
C      1  0.5540450000000  0.5011900000000  0.5401270000000 1.0
C      1  0.5261420000000  0.4876360000000  0.4978660000000 1.0
C      1  0.4738580000000  0.5123640000000  0.5021340000000 1.0
C      1  0.5041180000000  0.5176080000000  0.5576560000000 1.0
C      1  0.4958820000000  0.4823920000000  0.4423440000000 1.0
C      1  0.5438030000000  0.4667150000000  0.4660690000000 1.0
C      1  0.4561970000000  0.5332850000000  0.5339320000000 1.0
C      1  0.4513410000000  0.4696340000000  0.4538220000000 1.0
C      1  0.5486590000000  0.5303660000000  0.5461790000000 1.0
C      1  0.4865300000000  0.4264100000000  0.5073280000000 1.0
C      1  0.5134700000000  0.5735890000000  0.4926720000000 1.0
C      1  0.5095810000000  0.4908380000000  0.4683730000000 1.0
C      1  0.4904190000000  0.5091630000000  0.5316270000000 1.0
C      1  0.5057180000000  0.4849790000000  0.5193020000000 1.0
C      1  0.4942820000000  0.5150210000000  0.4806980000000 1.0
C      1  0.5311450000000  0.5685650000000  0.5182300000000 1.0
C      1  0.4688560000000  0.4314350000000  0.4817700000000 1.0
C      1  0.4388430000000  0.4849230000000  0.5365020000000 1.0
C      1  0.5611580000000  0.5150780000000  0.4634970000000 1.0
C      1  0.4428120000000  0.4516520000000  0.4758580000000 1.0
C      1  0.5571880000000  0.5483480000000  0.5241430000000 1.0
C      1  0.5214870000000  0.5576850000000  0.4681570000000 1.0
C      1  0.4785130000000  0.4423150000000  0.5318430000000 1.0
C      1  0.5712030000000  0.4885480000000  0.4755130000000 1.0
C      1  0.4287950000000  0.5114530000000  0.5244860000000 1.0
C      1  0.4607280000000  0.4852540000000  0.5111670000000 1.0
C      1  0.5392740000000  0.5147470000000  0.4888340000000 1.0
C      1  0.4751180000000  0.5423660000000  0.4545450000000 1.0
C      1  0.5248810000000  0.4576340000000  0.5454550000000 1.0
C      1  0.4834770000000  0.4794760000000  0.5676830000000 1.0
C      1  0.5165230000000  0.5205240000000  0.4323160000000 1.0
C      1  0.5108000000000  0.5606140000000  0.5400900000000 1.0
C      1  0.4892000000000  0.4393860000000  0.4599100000000 1.0
C      1  0.4307720000000  0.5053680000000  0.4888510000000 1.0
C      1  0.5692280000000  0.4946320000000  0.5111500000000 1.0
C      1  0.5156420000000  0.4316160000000  0.5002750000000 1.0
C      1  0.4843580000000  0.5683840000000  0.4997250000000 1.0
C      1  0.4959280000000  0.4557030000000  0.5533140000000 1.0
C      1  0.5040720000000  0.5442980000000  0.4466860000000 1.0
C      1  0.4777240000000  0.4612880000000  0.4436620000000 1.0
C      1  0.5222760000000  0.5387120000000  0.5563390000000 1.0
C      1  0.4814980000000  0.5584250000000  0.5285620000000 1.0
C      1  0.5185020000000  0.4415750000000  0.4714380000000 1.0
C      1  0.4583130000000  0.5204990000000  0.4436160000000 1.0
C      1  0.5416870000000  0.4795010000000  0.5563840000000 1.0
C      1  0.5363270000000  0.4993480000000  0.4499090000000 1.0
C      1  0.4636740000000  0.5006520000000  0.5500900000000 1.0
C      1  0.5022100000000  0.4990680000000  0.5803280000000 1.0
C      1  0.4977900000000  0.5009320000000  0.4196720000000 1.0
C      1  0.5740420000000  0.5301280000000  0.5064990000000 1.0
C      1  0.4259580000000  0.4698720000000  0.4935010000000 1.0
C      1  0.4521460000000  0.5333480000000  0.4978420000000 1.0
C      1  0.5478540000000  0.4666510000000  0.5021570000000 1.0
C      1  0.4822740000000  0.4673930000000  0.5153620000000 1.0
C      1  0.5177260000000  0.5326080000000  0.4846380000000 1.0
C      1  0.5765550000000  0.5366490000000  0.4781810000000 1.0
C      1  0.4234450000000  0.4633510000000  0.5218200000000 1.0
C      1  0.4662830000000  0.5534510000000  0.4808990000000 1.0
C      1  0.5337170000000  0.4465490000000  0.5191020000000 1.0
END
