TITL C-3985250-725-1285 -1.55629583785155e-07 125000 -365.811199899506 0 0 60 (D3d) n - 1
REM
REM in /home/nfs/bkarasulu/CARBON/AIRSS/Generating-Clusters/TERSOFF/Higher-Symm/Only-C60
REM
REM
REM
REM
REM
REM ./C.cell (28575a23ae977d3b5fae324c64b13b57)
REM
REM compiler GCC version 9.2.1 20190827 (Red Hat 9.2.1-1)
REM options -cpp -mtune=generic -march=x86-64 -g -O0 -fpre-include=/usr/include/finclude/math-vector-fortran.h
REM seed -1005252456 -283267839 1950790936 -1913659850 -1716822012 -608341279 -500566209 -2111731629 -1995610487 1443170783 -980217522 -1738015789 1649613989 -1603474599 291123302 464166626 -1321604531 722797568 -764742533 -805317588 241936016 1867363601 1198715548 -1262936889 845876351 1365944719 -208006706 -2062261698 -1623480547 1022209778 -1409525539 -1357974741 -499591384
REM
CELL 1.54180   50.00000   50.00000   50.00000   90.00000   90.00000   90.00000
LATT -1
SFAC C  
C      1  0.4897250000000  0.5318340000000  0.5359970000000 1.0
C      1  0.5224320000000  0.5248160000000  0.4640030000000 1.0
C      1  0.5327070000000  0.4929810000000  0.5359970000000 1.0
C      1  0.5102750000000  0.4681660000000  0.4640030000000 1.0
C      1  0.4775680000000  0.4751840000000  0.5359970000000 1.0
C      1  0.4672930000000  0.5070190000000  0.4640030000000 1.0
C      1  0.4587700000000  0.4543880000000  0.4944900000000 1.0
C      1  0.4398840000000  0.5129010000000  0.5055100000000 1.0
C      1  0.4811140000000  0.5585120000000  0.4944900000000 1.0
C      1  0.5412300000000  0.5456120000000  0.5055100000000 1.0
C      1  0.5601160000000  0.4870990000000  0.4944900000000 1.0
C      1  0.5188860000000  0.4414880000000  0.5055100000000 1.0
C      1  0.5685250000000  0.5363630000000  0.4936510000000 1.0
C      1  0.5657530000000  0.4588370000000  0.5063490000000 1.0
C      1  0.4972280000000  0.4224740000000  0.4936510000000 1.0
C      1  0.4314750000000  0.4636370000000  0.5063490000000 1.0
C      1  0.4342470000000  0.5411630000000  0.4936510000000 1.0
C      1  0.5027720000000  0.5775260000000  0.5063490000000 1.0
C      1  0.4510720000000  0.4841120000000  0.4539900000000 1.0
C      1  0.4617760000000  0.5344290000000  0.5460100000000 1.0
C      1  0.5107050000000  0.5503170000000  0.4539900000000 1.0
C      1  0.5489280000000  0.5158880000000  0.5460100000000 1.0
C      1  0.5382240000000  0.4655710000000  0.4539900000000 1.0
C      1  0.4892950000000  0.4496830000000  0.5460100000000 1.0
C      1  0.4312290000000  0.4651760000000  0.5356260000000 1.0
C      1  0.4354560000000  0.5421460000000  0.4643740000000 1.0
C      1  0.5042270000000  0.5769690000000  0.5356260000000 1.0
C      1  0.5687710000000  0.5348240000000  0.4643740000000 1.0
C      1  0.5645440000000  0.4578540000000  0.5356260000000 1.0
C      1  0.4957730000000  0.4230310000000  0.4643740000000 1.0
C      1  0.4618990000000  0.5345640000000  0.4539900000000 1.0
C      1  0.5108830000000  0.5502790000000  0.5460100000000 1.0
C      1  0.5489840000000  0.5157150000000  0.4539900000000 1.0
C      1  0.5381010000000  0.4654360000000  0.5460100000000 1.0
C      1  0.4891170000000  0.4497210000000  0.4539900000000 1.0
C      1  0.4510160000000  0.4842850000000  0.5460100000000 1.0
C      1  0.4799730000000  0.4778450000000  0.5050500000000 1.0
C      1  0.4708000000000  0.5062660000000  0.4949500000000 1.0
C      1  0.4908270000000  0.5284210000000  0.5050500000000 1.0
C      1  0.5200270000000  0.5221550000000  0.4949500000000 1.0
C      1  0.5292000000000  0.4937340000000  0.5050500000000 1.0
C      1  0.5091730000000  0.4715790000000  0.4949500000000 1.0
C      1  0.4515720000000  0.5599740000000  0.5356260000000 1.0
C      1  0.5277250000000  0.5719270000000  0.4643740000000 1.0
C      1  0.5761530000000  0.5119520000000  0.5356260000000 1.0
C      1  0.5484280000000  0.4400260000000  0.4643740000000 1.0
C      1  0.4722750000000  0.4280730000000  0.5356260000000 1.0
C      1  0.4238470000000  0.4880480000000  0.4643740000000 1.0
C      1  0.4828050000000  0.5532740000000  0.4637480000000 1.0
C      1  0.5375390000000  0.5415280000000  0.5362520000000 1.0
C      1  0.5547340000000  0.4882540000000  0.4637480000000 1.0
C      1  0.5171950000000  0.4467260000000  0.5362520000000 1.0
C      1  0.4624610000000  0.4584720000000  0.4637480000000 1.0
C      1  0.4452660000000  0.5117460000000  0.5362520000000 1.0
C      1  0.5292810000000  0.5718370000000  0.4936510000000 1.0
C      1  0.5768530000000  0.5105600000000  0.5063490000000 1.0
C      1  0.5475720000000  0.4387230000000  0.4936510000000 1.0
C      1  0.4707190000000  0.4281630000000  0.5063490000000 1.0
C      1  0.4231470000000  0.4894400000000  0.4936510000000 1.0
C      1  0.4524280000000  0.5612770000000  0.5063490000000 1.0
END
