TITL C-3985247-764-85 -1.10798445147019e-07 125000 -282.176362661077 0 0 60 (C4v) n - 1
REM
REM in /home/nfs/bkarasulu/CARBON/AIRSS/Generating-Clusters/TERSOFF/Higher-Symm/Only-C60
REM
REM
REM
REM
REM
REM ./C.cell (28575a23ae977d3b5fae324c64b13b57)
REM
REM compiler GCC version 9.2.1 20190827 (Red Hat 9.2.1-1)
REM options -cpp -mtune=generic -march=x86-64 -g -O0 -fpre-include=/usr/include/finclude/math-vector-fortran.h
REM seed -1222285385 1877184648 -780131265 -521712389 -1844901430 1417269022 1092701854 -1157436619 9173999 -1081129299 -45660753 -1424447547 -352554563 1682196776 1013447181 1994648653 1868207126 209683313 1586486178 -2015605246 -1141797593 1834847325 165066627 1632217079 -911691451 -1063350890 677287996 1614455891 -1324988559 -1908942421 -1981591817 -471540595 -1672986286
REM
CELL 1.54180   50.00000   50.00000   50.00000   90.00000   90.00000   90.00000
LATT -1
SFAC C  
C      1  0.5436910000000  0.5320260000000  0.5181330000000 1.0
C      1  0.5181330000000  0.5320260000000  0.4563090000000 1.0
C      1  0.4563090000000  0.5320260000000  0.4818670000000 1.0
C      1  0.4818670000000  0.5320260000000  0.5436910000000 1.0
C      1  0.4563090000000  0.5320260000000  0.5181330000000 1.0
C      1  0.4818670000000  0.5320260000000  0.4563090000000 1.0
C      1  0.5436910000000  0.5320260000000  0.4818670000000 1.0
C      1  0.5181330000000  0.5320260000000  0.5436910000000 1.0
C      1  0.4336700000000  0.4587300000000  0.4570740000000 1.0
C      1  0.4570740000000  0.4587300000000  0.5663300000000 1.0
C      1  0.5663300000000  0.4587300000000  0.5429260000000 1.0
C      1  0.5429260000000  0.4587300000000  0.4336700000000 1.0
C      1  0.5663300000000  0.4587300000000  0.4570740000000 1.0
C      1  0.5429260000000  0.4587300000000  0.5663300000000 1.0
C      1  0.4336700000000  0.4587300000000  0.5429260000000 1.0
C      1  0.4570740000000  0.4587300000000  0.4336700000000 1.0
C      1  0.5146770000000  0.4892580000000  0.4543840000000 1.0
C      1  0.4543840000000  0.4892580000000  0.4853230000000 1.0
C      1  0.4853230000000  0.4892580000000  0.5456160000000 1.0
C      1  0.5456160000000  0.4892580000000  0.5146770000000 1.0
C      1  0.4853230000000  0.4892580000000  0.4543840000000 1.0
C      1  0.5456160000000  0.4892580000000  0.4853230000000 1.0
C      1  0.5146770000000  0.4892580000000  0.5456160000000 1.0
C      1  0.4543840000000  0.4892580000000  0.5146770000000 1.0
C      1  0.4338740000000  0.5083070000000  0.5272340000000 1.0
C      1  0.5272340000000  0.5083070000000  0.5661260000000 1.0
C      1  0.5661260000000  0.5083070000000  0.4727660000000 1.0
C      1  0.4727660000000  0.5083070000000  0.4338740000000 1.0
C      1  0.5661260000000  0.5083070000000  0.5272340000000 1.0
C      1  0.4727660000000  0.5083070000000  0.5661260000000 1.0
C      1  0.4338740000000  0.5083070000000  0.4727660000000 1.0
C      1  0.5272340000000  0.5083070000000  0.4338740000000 1.0
C      1  0.4561830000000  0.4568590000000  0.4817940000000 1.0
C      1  0.4817940000000  0.4568590000000  0.5438170000000 1.0
C      1  0.5438170000000  0.4568590000000  0.5182060000000 1.0
C      1  0.5182060000000  0.4568590000000  0.4561830000000 1.0
C      1  0.5438170000000  0.4568590000000  0.4817940000000 1.0
C      1  0.5182060000000  0.4568590000000  0.5438170000000 1.0
C      1  0.4561830000000  0.4568590000000  0.5182060000000 1.0
C      1  0.4817940000000  0.4568590000000  0.4561830000000 1.0
C      1  0.4494310000000  0.4898640000000  0.4274390000000 1.0
C      1  0.4274390000000  0.4898640000000  0.5505690000000 1.0
C      1  0.5505690000000  0.4898640000000  0.5725610000000 1.0
C      1  0.5725610000000  0.4898640000000  0.4494310000000 1.0
C      1  0.5505690000000  0.4898640000000  0.4274390000000 1.0
C      1  0.5725610000000  0.4898640000000  0.5505690000000 1.0
C      1  0.4494310000000  0.4898640000000  0.5725610000000 1.0
C      1  0.4274390000000  0.4898640000000  0.4494310000000 1.0
C      1  0.4842800000000  0.5649700000000  0.4620310000000 1.0
C      1  0.4620310000000  0.5649700000000  0.5157200000000 1.0
C      1  0.5157200000000  0.5649700000000  0.5379690000000 1.0
C      1  0.5379690000000  0.5649700000000  0.4842800000000 1.0
C      1  0.5157200000000  0.5649700000000  0.4620310000000 1.0
C      1  0.5379690000000  0.5649700000000  0.5157200000000 1.0
C      1  0.4842800000000  0.5649700000000  0.5379690000000 1.0
C      1  0.4620310000000  0.5649700000000  0.4842800000000 1.0
C      1  0.4835880000000  0.5004170000000  0.5164120000000 1.0
C      1  0.5164120000000  0.5004170000000  0.5164120000000 1.0
C      1  0.5164120000000  0.5004170000000  0.4835880000000 1.0
C      1  0.4835880000000  0.5004170000000  0.4835880000000 1.0
END
