TITL C-3985247-764-471 -0.000559510093946416 125000 -314.475570458369 0 0 60 (C4) n - 1
REM
REM in /home/nfs/bkarasulu/CARBON/AIRSS/Generating-Clusters/TERSOFF/Higher-Symm/Only-C60
REM
REM
REM
REM
REM
REM ./C.cell (28575a23ae977d3b5fae324c64b13b57)
REM
REM compiler GCC version 9.2.1 20190827 (Red Hat 9.2.1-1)
REM options -cpp -mtune=generic -march=x86-64 -g -O0 -fpre-include=/usr/include/finclude/math-vector-fortran.h
REM seed 1878304146 565940357 -1098794721 -563375873 483903574 1370394723 -154363059 2092063043 567167752 1672817069 -236168717 1890491620 -92967011 1096126382 -327967059 -592172473 9478414 -1671175957 -1040167134 -1253983380 961696996 1164575868 -983964009 1129180051 -2018325549 1842288639 -1901304051 1727037967 -1021719986 -290175801 1714199951 -1220787689 72937530
REM
CELL 1.54180   50.00000   50.00000   50.00000   90.00000   90.00000   90.00000
LATT -1
SFAC C  
C      1  0.4763070000000  0.5229470000000  0.4525360000000 1.0
C      1  0.5229470000000  0.5236930000000  0.4525360000000 1.0
C      1  0.5236930000000  0.4770530000000  0.4525360000000 1.0
C      1  0.4770530000000  0.4763070000000  0.4525360000000 1.0
C      1  0.4763050000000  0.4770520000000  0.5453340000000 1.0
C      1  0.5229480000000  0.4763050000000  0.5453340000000 1.0
C      1  0.5236950000000  0.5229480000000  0.5453340000000 1.0
C      1  0.4770520000000  0.5236950000000  0.5453340000000 1.0
C      1  0.4816290000000  0.4479110000000  0.5421660000000 1.0
C      1  0.4479110000000  0.5183710000000  0.5421660000000 1.0
C      1  0.5183710000000  0.5520890000000  0.5421660000000 1.0
C      1  0.5520890000000  0.4816290000000  0.5421660000000 1.0
C      1  0.4816280000000  0.5520910000000  0.4557060000000 1.0
C      1  0.4479090000000  0.4816280000000  0.4557060000000 1.0
C      1  0.5183720000000  0.4479090000000  0.4557060000000 1.0
C      1  0.5520910000000  0.5183720000000  0.4557060000000 1.0
C      1  0.4584600000000  0.4365350000000  0.4738230000000 1.0
C      1  0.4365350000000  0.5415400000000  0.4738230000000 1.0
C      1  0.5415400000000  0.5634650000000  0.4738230000000 1.0
C      1  0.5634650000000  0.4584600000000  0.4738230000000 1.0
C      1  0.4584610000000  0.5634650000000  0.5240480000000 1.0
C      1  0.4365350000000  0.4584610000000  0.5240480000000 1.0
C      1  0.5415390000000  0.4365350000000  0.5240480000000 1.0
C      1  0.5634650000000  0.5415390000000  0.5240480000000 1.0
C      1  0.4938680000000  0.5246770000000  0.5159540000000 1.0
C      1  0.5246770000000  0.5061320000000  0.5159540000000 1.0
C      1  0.5061320000000  0.4753230000000  0.5159540000000 1.0
C      1  0.4753230000000  0.4938680000000  0.5159540000000 1.0
C      1  0.4938680000000  0.4753230000000  0.4819170000000 1.0
C      1  0.5246770000000  0.4938680000000  0.4819170000000 1.0
C      1  0.5061320000000  0.5246770000000  0.4819170000000 1.0
C      1  0.4753230000000  0.5061320000000  0.4819170000000 1.0
C      1  0.4919930000000  0.5569960000000  0.5245800000000 1.0
C      1  0.5569960000000  0.5080070000000  0.5245800000000 1.0
C      1  0.5080070000000  0.4430040000000  0.5245800000000 1.0
C      1  0.4430040000000  0.4919930000000  0.5245800000000 1.0
C      1  0.4919930000000  0.4430030000000  0.4732920000000 1.0
C      1  0.5569970000000  0.4919930000000  0.4732920000000 1.0
C      1  0.5080070000000  0.5569970000000  0.4732920000000 1.0
C      1  0.4430030000000  0.5080070000000  0.4732920000000 1.0
C      1  0.4672750000000  0.5756130000000  0.4961850000000 1.0
C      1  0.5756130000000  0.5327250000000  0.4961850000000 1.0
C      1  0.5327250000000  0.4243870000000  0.4961850000000 1.0
C      1  0.4243870000000  0.4672750000000  0.4961850000000 1.0
C      1  0.4672760000000  0.4243870000000  0.5016860000000 1.0
C      1  0.5756130000000  0.4672760000000  0.5016860000000 1.0
C      1  0.5327240000000  0.5756130000000  0.5016860000000 1.0
C      1  0.4243870000000  0.5327240000000  0.5016860000000 1.0
C      1  0.5618060000000  0.5418570000000  0.4714600000000 1.0
C      1  0.5418570000000  0.4381940000000  0.4714600000000 1.0
C      1  0.4381940000000  0.4581430000000  0.4714600000000 1.0
C      1  0.4581430000000  0.5618060000000  0.4714600000000 1.0
C      1  0.5618080000000  0.4581440000000  0.5264080000000 1.0
C      1  0.5418560000000  0.5618080000000  0.5264080000000 1.0
C      1  0.4381920000000  0.5418560000000  0.5264080000000 1.0
C      1  0.4581440000000  0.4381920000000  0.5264080000000 1.0
C      1  0.4999990000000  0.5762160000000  0.4989350000000 1.0
C      1  0.5762160000000  0.5000010000000  0.4989350000000 1.0
C      1  0.5000010000000  0.4237840000000  0.4989350000000 1.0
C      1  0.4237840000000  0.4999990000000  0.4989350000000 1.0
END
