TITL C-3985247-764-525 2.44062304960749e-05 125000 -306.108794019872 0 0 60 (C4) n - 1
REM
REM in /home/nfs/bkarasulu/CARBON/AIRSS/Generating-Clusters/TERSOFF/Higher-Symm/Only-C60
REM
REM
REM
REM
REM
REM ./C.cell (28575a23ae977d3b5fae324c64b13b57)
REM
REM compiler GCC version 9.2.1 20190827 (Red Hat 9.2.1-1)
REM options -cpp -mtune=generic -march=x86-64 -g -O0 -fpre-include=/usr/include/finclude/math-vector-fortran.h
REM seed -1718373523 -538003756 -1878834076 -785794790 -266056072 20617660 989326223 -1740496627 -1938559736 -774478688 -1405020314 1541533878 311304483 -1268320013 -171872887 1622441122 336973731 -1732683977 -576375411 1156862709 1606061656 -387556019 198185175 1525009322 1635034748 -1285785802 515727961 -170661544 -664454766 1365546344 2004636473 1947475919 484477318
REM
CELL 1.54180   50.00000   50.00000   50.00000   90.00000   90.00000   90.00000
LATT -1
SFAC C  
C      1  0.4422500000000  0.4725370000000  0.5015590000000 1.0
C      1  0.4984410000000  0.4725370000000  0.4422500000000 1.0
C      1  0.5577500000000  0.4725370000000  0.4984410000000 1.0
C      1  0.5015590000000  0.4725370000000  0.5577500000000 1.0
C      1  0.5076750000000  0.4445110000000  0.4440110000000 1.0
C      1  0.5559890000000  0.4445110000000  0.5076750000000 1.0
C      1  0.4923250000000  0.4445110000000  0.5559890000000 1.0
C      1  0.4440110000000  0.4445110000000  0.4923250000000 1.0
C      1  0.5200980000000  0.4845410000000  0.5321490000000 1.0
C      1  0.4678500000000  0.4845380000000  0.5200970000000 1.0
C      1  0.4799020000000  0.4845410000000  0.4678520000000 1.0
C      1  0.5321510000000  0.4845410000000  0.4799020000000 1.0
C      1  0.4875630000000  0.5152910000000  0.5572050000000 1.0
C      1  0.4427960000000  0.5152920000000  0.4875640000000 1.0
C      1  0.5124370000000  0.5152910000000  0.4427950000000 1.0
C      1  0.5572050000000  0.5152910000000  0.5124370000000 1.0
C      1  0.4671360000000  0.5455930000000  0.5034590000000 1.0
C      1  0.4965400000000  0.5455920000000  0.4671380000000 1.0
C      1  0.5328630000000  0.5455930000000  0.4965400000000 1.0
C      1  0.5034590000000  0.5455920000000  0.5328620000000 1.0
C      1  0.4883620000000  0.5144020000000  0.5218690000000 1.0
C      1  0.4781320000000  0.5143980000000  0.4883580000000 1.0
C      1  0.5116410000000  0.5143990000000  0.4781320000000 1.0
C      1  0.5218680000000  0.5143980000000  0.5116410000000 1.0
C      1  0.5337570000000  0.4445890000000  0.4601680000000 1.0
C      1  0.5398320000000  0.4445890000000  0.5337570000000 1.0
C      1  0.4662430000000  0.4445890000000  0.5398320000000 1.0
C      1  0.4601680000000  0.4445890000000  0.4662430000000 1.0
C      1  0.5693820000000  0.4944200000000  0.4631770000000 1.0
C      1  0.5368240000000  0.4944200000000  0.5693840000000 1.0
C      1  0.4306150000000  0.4944210000000  0.5368240000000 1.0
C      1  0.4631760000000  0.4944200000000  0.4306160000000 1.0
C      1  0.5173040000000  0.4568600000000  0.4854340000000 1.0
C      1  0.5145660000000  0.4568600000000  0.5173040000000 1.0
C      1  0.4826960000000  0.4568610000000  0.5145660000000 1.0
C      1  0.4854340000000  0.4568600000000  0.4826960000000 1.0
C      1  0.5223120000000  0.4888850000000  0.4352930000000 1.0
C      1  0.5647070000000  0.4888850000000  0.5223120000000 1.0
C      1  0.4776880000000  0.4888850000000  0.5647070000000 1.0
C      1  0.4352930000000  0.4888850000000  0.4776870000000 1.0
C      1  0.4852980000000  0.5640060000000  0.5488460000000 1.0
C      1  0.4511550000000  0.5640060000000  0.4852980000000 1.0
C      1  0.5147020000000  0.5640060000000  0.4511540000000 1.0
C      1  0.5488460000000  0.5640060000000  0.5147020000000 1.0
C      1  0.5473680000000  0.5396010000000  0.4711410000000 1.0
C      1  0.5288590000000  0.5396010000000  0.5473690000000 1.0
C      1  0.4526320000000  0.5396010000000  0.5288590000000 1.0
C      1  0.4711410000000  0.5396010000000  0.4526310000000 1.0
C      1  0.5486040000000  0.4769480000000  0.5462810000000 1.0
C      1  0.4537190000000  0.4769480000000  0.5486040000000 1.0
C      1  0.4513960000000  0.4769480000000  0.4537190000000 1.0
C      1  0.5462810000000  0.4769480000000  0.4513960000000 1.0
C      1  0.4807060000000  0.5178090000000  0.4351850000000 1.0
C      1  0.5648150000000  0.5178090000000  0.4807060000000 1.0
C      1  0.5192940000000  0.5178090000000  0.5648150000000 1.0
C      1  0.4351850000000  0.5178090000000  0.5192940000000 1.0
C      1  0.5546430000000  0.5400100000000  0.5323700000000 1.0
C      1  0.4676300000000  0.5400100000000  0.5546430000000 1.0
C      1  0.4453570000000  0.5400100000000  0.4676300000000 1.0
C      1  0.5323700000000  0.5400100000000  0.4453570000000 1.0
END
