TITL C-3985244-725-372 0.000561945688719329 125000 -291.90282234573 0 0 60 (C2) n - 1
REM
REM in /home/nfs/bkarasulu/CARBON/AIRSS/Generating-Clusters/TERSOFF/Higher-Symm/Only-C60
REM
REM
REM
REM
REM
REM ./C.cell (28575a23ae977d3b5fae324c64b13b57)
REM
REM compiler GCC version 9.2.1 20190827 (Red Hat 9.2.1-1)
REM options -cpp -mtune=generic -march=x86-64 -g -O0 -fpre-include=/usr/include/finclude/math-vector-fortran.h
REM seed 1368997142 1284222469 -1130797161 -1323230640 1348359430 1209302308 277137217 -1098474663 -1659764461 -1373270393 601601373 2048664642 1950759002 -1335221396 760332327 -1498205913 -1611379782 -1851124182 601238555 1030792146 -1079021610 661126729 -1623819596 -16145766 682998586 715024925 436290333 1156123543 1662322792 -1402748552 -754260488 1969229745 -2034297072
REM
CELL 1.54180   50.00000   50.00000   50.00000   90.00000   90.00000   90.00000
LATT -1
SFAC C  
C      1  0.5712370000000  0.4498440000000  0.5019490000000 1.0
C      1  0.5907060000000  0.5014540000000  0.5032180000000 1.0
C      1  0.5746640000000  0.5558170000000  0.5048010000000 1.0
C      1  0.5285730000000  0.5900980000000  0.5075230000000 1.0
C      1  0.4720130000000  0.5834710000000  0.5024570000000 1.0
C      1  0.4287250000000  0.5501710000000  0.5020010000000 1.0
C      1  0.4092910000000  0.4985410000000  0.5032160000000 1.0
C      1  0.4253210000000  0.4441660000000  0.5048550000000 1.0
C      1  0.4714520000000  0.4098970000000  0.5075170000000 1.0
C      1  0.5279810000000  0.4165490000000  0.5023680000000 1.0
C      1  0.4694480000000  0.5201050000000  0.5087550000000 1.0
C      1  0.4511580000000  0.4952670000000  0.5029510000000 1.0
C      1  0.4597540000000  0.4675150000000  0.4998860000000 1.0
C      1  0.4826050000000  0.4502390000000  0.5062850000000 1.0
C      1  0.5110210000000  0.4559220000000  0.5021310000000 1.0
C      1  0.5305640000000  0.4799200000000  0.5087670000000 1.0
C      1  0.5488330000000  0.5047130000000  0.5030040000000 1.0
C      1  0.5401800000000  0.5325380000000  0.4999060000000 1.0
C      1  0.5173890000000  0.5497490000000  0.5062750000000 1.0
C      1  0.4889950000000  0.5440750000000  0.5021570000000 1.0
C      1  0.5160960000000  0.4541770000000  0.4516850000000 1.0
C      1  0.5426440000000  0.4703160000000  0.4604370000000 1.0
C      1  0.5510600000000  0.5003930000000  0.4530890000000 1.0
C      1  0.5410350000000  0.5317980000000  0.4542640000000 1.0
C      1  0.5156370000000  0.5506150000000  0.4591190000000 1.0
C      1  0.4839240000000  0.5458130000000  0.4516830000000 1.0
C      1  0.4573530000000  0.5296900000000  0.4604340000000 1.0
C      1  0.4489660000000  0.4995920000000  0.4530710000000 1.0
C      1  0.4589650000000  0.4682000000000  0.4542760000000 1.0
C      1  0.4843610000000  0.4493690000000  0.4591320000000 1.0
C      1  0.5527770000000  0.5024450000000  0.5363700000000 1.0
C      1  0.5453840000000  0.5337220000000  0.5331150000000 1.0
C      1  0.5188350000000  0.5518010000000  0.5405500000000 1.0
C      1  0.4868000000000  0.5479020000000  0.5349510000000 1.0
C      1  0.4676000000000  0.5225520000000  0.5430290000000 1.0
C      1  0.4472240000000  0.4975740000000  0.5363430000000 1.0
C      1  0.4546070000000  0.4662810000000  0.5331000000000 1.0
C      1  0.4811360000000  0.4482040000000  0.5405500000000 1.0
C      1  0.5131960000000  0.4521290000000  0.5349570000000 1.0
C      1  0.5323910000000  0.4774460000000  0.5430420000000 1.0
C      1  0.5894460000000  0.5301530000000  0.5173080000000 1.0
C      1  0.5559330000000  0.5772810000000  0.5198920000000 1.0
C      1  0.4975470000000  0.5937550000000  0.5180330000000 1.0
C      1  0.4439980000000  0.5752760000000  0.5134410000000 1.0
C      1  0.4097610000000  0.5281340000000  0.5144020000000 1.0
C      1  0.4105850000000  0.4698390000000  0.5172880000000 1.0
C      1  0.4440830000000  0.4227230000000  0.5198870000000 1.0
C      1  0.5024770000000  0.4062010000000  0.5180670000000 1.0
C      1  0.5560320000000  0.4246930000000  0.5134260000000 1.0
C      1  0.5902610000000  0.4718740000000  0.5143770000000 1.0
C      1  0.5697440000000  0.5009670000000  0.4801480000000 1.0
C      1  0.5591090000000  0.5458280000000  0.4782430000000 1.0
C      1  0.5210300000000  0.5714290000000  0.4827810000000 1.0
C      1  0.4799210000000  0.5631770000000  0.4801260000000 1.0
C      1  0.4503130000000  0.5348290000000  0.4889680000000 1.0
C      1  0.4302250000000  0.4990270000000  0.4801930000000 1.0
C      1  0.4408940000000  0.4541760000000  0.4782340000000 1.0
C      1  0.4789520000000  0.4285830000000  0.4827740000000 1.0
C      1  0.5200790000000  0.4368480000000  0.4801710000000 1.0
C      1  0.5497120000000  0.4651370000000  0.4890200000000 1.0
END
