TITL C-3985245-9316-714 0.00158085916346825 125000 -331.368434086438 0 0 60 (D4) n - 1
REM
REM in /home/nfs/bkarasulu/CARBON/AIRSS/Generating-Clusters/TERSOFF/Higher-Symm/Only-C60
REM
REM
REM
REM
REM
REM ./C.cell (28575a23ae977d3b5fae324c64b13b57)
REM
REM compiler GCC version 9.2.1 20190827 (Red Hat 9.2.1-1)
REM options -cpp -mtune=generic -march=x86-64 -g -O0 -fpre-include=/usr/include/finclude/math-vector-fortran.h
REM seed 1433504651 -2010214715 -1316375638 -2116790240 -238888049 -1325690411 -1899532090 1018464139 1125000757 -483964884 1287496185 1816937734 1589105917 -1548711988 1712188595 -930081654 -1623401315 1279824959 -2039821152 -1347311863 869056901 1532885410 -976169 -188998659 -984481215 -1052613691 -1067319785 1455018117 -1394480335 2006977170 1381455808 613638585 -1762969813
REM
CELL 1.54180   50.00000   50.00000   50.00000   90.00000   90.00000   90.00000
LATT -1
SFAC C  
C      1  0.4817050000000  0.4546580000000  0.5423330000000 1.0
C      1  0.4546580000000  0.5182950000000  0.5423330000000 1.0
C      1  0.5182950000000  0.5453420000000  0.5423330000000 1.0
C      1  0.5453420000000  0.4817050000000  0.5423330000000 1.0
C      1  0.4817160000000  0.5453370000000  0.4579350000000 1.0
C      1  0.4546630000000  0.4817160000000  0.4579350000000 1.0
C      1  0.5182840000000  0.4546630000000  0.4579350000000 1.0
C      1  0.5453370000000  0.5182840000000  0.4579350000000 1.0
C      1  0.4935680000000  0.5220900000000  0.4765730000000 1.0
C      1  0.5220900000000  0.5064320000000  0.4765730000000 1.0
C      1  0.5064320000000  0.4779100000000  0.4765730000000 1.0
C      1  0.4779100000000  0.4935680000000  0.4765730000000 1.0
C      1  0.4936010000000  0.4778800000000  0.5237200000000 1.0
C      1  0.5221200000000  0.4936010000000  0.5237200000000 1.0
C      1  0.5063990000000  0.5221200000000  0.5237200000000 1.0
C      1  0.4778800000000  0.5063990000000  0.5237200000000 1.0
C      1  0.4625270000000  0.5513580000000  0.4816300000000 1.0
C      1  0.5513580000000  0.5374730000000  0.4816300000000 1.0
C      1  0.5374730000000  0.4486420000000  0.4816300000000 1.0
C      1  0.4486420000000  0.4625270000000  0.4816300000000 1.0
C      1  0.4625270000000  0.4486410000000  0.5186330000000 1.0
C      1  0.5513590000000  0.4625270000000  0.5186330000000 1.0
C      1  0.5374730000000  0.5513590000000  0.5186330000000 1.0
C      1  0.4486410000000  0.5374730000000  0.5186330000000 1.0
C      1  0.5337740000000  0.5277810000000  0.5613580000000 1.0
C      1  0.5277810000000  0.4662260000000  0.5613580000000 1.0
C      1  0.4662260000000  0.4722190000000  0.5613580000000 1.0
C      1  0.4722190000000  0.5337740000000  0.5613580000000 1.0
C      1  0.5337750000000  0.4722140000000  0.4389030000000 1.0
C      1  0.5277860000000  0.5337750000000  0.4389030000000 1.0
C      1  0.4662250000000  0.5277860000000  0.4389030000000 1.0
C      1  0.4722140000000  0.4662250000000  0.4389030000000 1.0
C      1  0.4745660000000  0.4419800000000  0.4874170000000 1.0
C      1  0.4419800000000  0.5254340000000  0.4874170000000 1.0
C      1  0.5254340000000  0.5580200000000  0.4874170000000 1.0
C      1  0.5580200000000  0.4745660000000  0.4874170000000 1.0
C      1  0.4745660000000  0.5580200000000  0.5128450000000 1.0
C      1  0.4419800000000  0.4745660000000  0.5128450000000 1.0
C      1  0.5254340000000  0.4419800000000  0.5128450000000 1.0
C      1  0.5580200000000  0.5254340000000  0.5128450000000 1.0
C      1  0.4463380000000  0.4879620000000  0.5444150000000 1.0
C      1  0.4879620000000  0.5536620000000  0.5444150000000 1.0
C      1  0.5536620000000  0.5120380000000  0.5444150000000 1.0
C      1  0.5120380000000  0.4463380000000  0.5444150000000 1.0
C      1  0.4462850000000  0.5120600000000  0.4558140000000 1.0
C      1  0.4879400000000  0.4462850000000  0.4558140000000 1.0
C      1  0.5537150000000  0.4879400000000  0.4558140000000 1.0
C      1  0.5120600000000  0.5537150000000  0.4558140000000 1.0
C      1  0.5177430000000  0.4858360000000  0.4183040000000 1.0
C      1  0.4858360000000  0.4822570000000  0.4183040000000 1.0
C      1  0.4822570000000  0.5141640000000  0.4183040000000 1.0
C      1  0.5141640000000  0.5177430000000  0.4183040000000 1.0
C      1  0.5177420000000  0.5141650000000  0.5819590000000 1.0
C      1  0.4858350000000  0.5177420000000  0.5819590000000 1.0
C      1  0.4822580000000  0.4858350000000  0.5819590000000 1.0
C      1  0.5141650000000  0.4822580000000  0.5819590000000 1.0
C      1  0.5405980000000  0.5000020000000  0.5001300000000 1.0
C      1  0.5000020000000  0.4594020000000  0.5001300000000 1.0
C      1  0.4594020000000  0.4999980000000  0.5001300000000 1.0
C      1  0.4999980000000  0.5405980000000  0.5001300000000 1.0
END
