TITL C-3985257-5396-314 -0.0057731553151992 125000 -317.416927596267 0 0 60 (C2) n - 1
REM
REM in /home/nfs/bkarasulu/CARBON/AIRSS/Generating-Clusters/TERSOFF/Higher-Symm/Only-C60
REM
REM
REM
REM
REM
REM ./C.cell (28575a23ae977d3b5fae324c64b13b57)
REM
REM compiler GCC version 9.2.1 20190827 (Red Hat 9.2.1-1)
REM options -cpp -mtune=generic -march=x86-64 -g -O0 -fpre-include=/usr/include/finclude/math-vector-fortran.h
REM seed 1784216480 -221006010 -1764267833 1452339511 1951502770 1143216781 283798862 -419354869 -1183092872 376855957 92273685 145815031 201114366 -245689865 987090566 -1087772494 1045211869 -35457616 1556313028 -169820970 1405090514 906081547 1976895075 1250404311 96075104 -616000785 -266983036 -989772984 -675103070 948504368 -1571793484 -237525734 187440239
REM
CELL 1.54180   50.00000   50.00000   50.00000   90.00000   90.00000   90.00000
LATT -1
SFAC C  
C      1  0.5035160000000  0.4823680000000  0.5233000000000 1.0
C      1  0.4964840000000  0.5176320000000  0.5233000000000 1.0
C      1  0.5479720000000  0.5375470000000  0.5206110000000 1.0
C      1  0.4520280000000  0.4624530000000  0.5206110000000 1.0
C      1  0.4845820000000  0.4534640000000  0.5217270000000 1.0
C      1  0.5154180000000  0.5465360000000  0.5217270000000 1.0
C      1  0.5266600000000  0.4464540000000  0.5421580000000 1.0
C      1  0.4733400000000  0.5535460000000  0.5421580000000 1.0
C      1  0.5174070000000  0.4763840000000  0.4439850000000 1.0
C      1  0.4825930000000  0.5236160000000  0.4439850000000 1.0
C      1  0.4996860000000  0.5599780000000  0.4678720000000 1.0
C      1  0.5003140000000  0.4400220000000  0.4678720000000 1.0
C      1  0.5113150000000  0.5270460000000  0.4369740000000 1.0
C      1  0.4886850000000  0.4729540000000  0.4369740000000 1.0
C      1  0.5320990000000  0.4803280000000  0.4860860000000 1.0
C      1  0.4679010000000  0.5196720000000  0.4860860000000 1.0
C      1  0.5022520000000  0.5645430000000  0.4990850000000 1.0
C      1  0.4977480000000  0.4354570000000  0.4990850000000 1.0
C      1  0.5185900000000  0.4886680000000  0.5696280000000 1.0
C      1  0.4814100000000  0.5113320000000  0.5696280000000 1.0
C      1  0.4454690000000  0.5001340000000  0.4875710000000 1.0
C      1  0.5545310000000  0.4998660000000  0.4875710000000 1.0
C      1  0.5126890000000  0.5230920000000  0.5651940000000 1.0
C      1  0.4873110000000  0.4769080000000  0.5651940000000 1.0
C      1  0.5591180000000  0.4743940000000  0.4511710000000 1.0
C      1  0.4408820000000  0.5256060000000  0.4511710000000 1.0
C      1  0.5326400000000  0.4509710000000  0.4563630000000 1.0
C      1  0.4673600000000  0.5490290000000  0.4563630000000 1.0
C      1  0.4971570000000  0.4505920000000  0.5499910000000 1.0
C      1  0.5028430000000  0.5494080000000  0.5499910000000 1.0
C      1  0.4473990000000  0.4560720000000  0.4606680000000 1.0
C      1  0.5526010000000  0.5439280000000  0.4606680000000 1.0
C      1  0.5041170000000  0.4856200000000  0.4932420000000 1.0
C      1  0.4958830000000  0.5143800000000  0.4932420000000 1.0
C      1  0.5272400000000  0.5040890000000  0.4497610000000 1.0
C      1  0.4727600000000  0.4959110000000  0.4497610000000 1.0
C      1  0.5571940000000  0.4645730000000  0.5156890000000 1.0
C      1  0.4428060000000  0.5354270000000  0.5156890000000 1.0
C      1  0.4530640000000  0.5274040000000  0.5557230000000 1.0
C      1  0.5469360000000  0.4725960000000  0.5557230000000 1.0
C      1  0.4559330000000  0.5495970000000  0.4905450000000 1.0
C      1  0.5440670000000  0.4504030000000  0.4905450000000 1.0
C      1  0.4403850000000  0.4903340000000  0.4577750000000 1.0
C      1  0.5596150000000  0.5096660000000  0.4577750000000 1.0
C      1  0.4744050000000  0.5627490000000  0.5114160000000 1.0
C      1  0.5255950000000  0.4372510000000  0.5114160000000 1.0
C      1  0.5349650000000  0.5149160000000  0.5412910000000 1.0
C      1  0.4650350000000  0.4850840000000  0.5412910000000 1.0
C      1  0.4271210000000  0.5064690000000  0.5416650000000 1.0
C      1  0.5728790000000  0.4935310000000  0.5416650000000 1.0
C      1  0.4764090000000  0.4482230000000  0.4490470000000 1.0
C      1  0.5235910000000  0.5517770000000  0.4490470000000 1.0
C      1  0.5672510000000  0.5110610000000  0.5148000000000 1.0
C      1  0.4327490000000  0.4889390000000  0.5148000000000 1.0
C      1  0.4801780000000  0.4786930000000  0.4776780000000 1.0
C      1  0.5198220000000  0.5213070000000  0.4776780000000 1.0
C      1  0.4667450000000  0.5139280000000  0.5301200000000 1.0
C      1  0.5332550000000  0.4860720000000  0.5301200000000 1.0
C      1  0.5405570000000  0.5397390000000  0.4888630000000 1.0
C      1  0.4594430000000  0.4602610000000  0.4888630000000 1.0
END
