TITL C-3985247-764-748 4.64574986550581e-08 125000 -359.382393542755 0 0 60 (S4) n - 1
REM
REM in /home/nfs/bkarasulu/CARBON/AIRSS/Generating-Clusters/TERSOFF/Higher-Symm/Only-C60
REM
REM
REM
REM
REM
REM ./C.cell (28575a23ae977d3b5fae324c64b13b57)
REM
REM compiler GCC version 9.2.1 20190827 (Red Hat 9.2.1-1)
REM options -cpp -mtune=generic -march=x86-64 -g -O0 -fpre-include=/usr/include/finclude/math-vector-fortran.h
REM seed -1141141189 106294271 819982127 1454878956 -989107188 -1474462221 867140820 1826479149 -906782047 -2047725185 -1435079159 -1302410417 500299871 -1840093974 863459233 -945071698 -2058453590 -1208012196 1592154299 -1904890950 -101625930 -1210952292 -1611845682 1856201245 -1161792319 1273971421 -1796351058 -1791813697 -149591537 -649748487 641244213 1756754575 372035159
REM
CELL 1.54180   50.00000   50.00000   50.00000   90.00000   90.00000   90.00000
LATT -1
SFAC C  
C      1  0.5284670000000  0.4490680000000  0.4543570000000 1.0
C      1  0.5509320000000  0.5284670000000  0.5456430000000 1.0
C      1  0.4715330000000  0.5509320000000  0.4543570000000 1.0
C      1  0.4490680000000  0.4715330000000  0.5456430000000 1.0
C      1  0.4294160000000  0.4652470000000  0.5090770000000 1.0
C      1  0.5347530000000  0.4294160000000  0.4909230000000 1.0
C      1  0.5705840000000  0.5347530000000  0.5090770000000 1.0
C      1  0.4652470000000  0.5705840000000  0.4909230000000 1.0
C      1  0.5628910000000  0.4767490000000  0.4843010000000 1.0
C      1  0.5232510000000  0.5628910000000  0.5156990000000 1.0
C      1  0.4371090000000  0.5232510000000  0.4843010000000 1.0
C      1  0.4767490000000  0.4371090000000  0.5156990000000 1.0
C      1  0.5726760000000  0.5102170000000  0.5277210000000 1.0
C      1  0.4897830000000  0.5726760000000  0.4722790000000 1.0
C      1  0.4273240000000  0.4897830000000  0.5277210000000 1.0
C      1  0.5102170000000  0.4273240000000  0.4722790000000 1.0
C      1  0.5509270000000  0.4394610000000  0.5364500000000 1.0
C      1  0.5605390000000  0.5509270000000  0.4635500000000 1.0
C      1  0.4490730000000  0.5605390000000  0.5364500000000 1.0
C      1  0.4394610000000  0.4490730000000  0.4635500000000 1.0
C      1  0.5644210000000  0.4829200000000  0.5159430000000 1.0
C      1  0.5170800000000  0.5644210000000  0.4840570000000 1.0
C      1  0.4355790000000  0.5170800000000  0.5159430000000 1.0
C      1  0.4829200000000  0.4355790000000  0.4840570000000 1.0
C      1  0.4499810000000  0.4463480000000  0.5256270000000 1.0
C      1  0.5536520000000  0.4499810000000  0.4743730000000 1.0
C      1  0.5500190000000  0.5536520000000  0.5256270000000 1.0
C      1  0.4463480000000  0.5500190000000  0.4743730000000 1.0
C      1  0.4700430000000  0.4995850000000  0.4521860000000 1.0
C      1  0.5004150000000  0.4700430000000  0.5478140000000 1.0
C      1  0.5299570000000  0.5004150000000  0.4521860000000 1.0
C      1  0.4995850000000  0.5299570000000  0.5478140000000 1.0
C      1  0.4771530000000  0.5106610000000  0.5411450000000 1.0
C      1  0.4893390000000  0.4771530000000  0.4588550000000 1.0
C      1  0.5228470000000  0.4893390000000  0.5411450000000 1.0
C      1  0.5106610000000  0.5228470000000  0.4588550000000 1.0
C      1  0.4997800000000  0.5562770000000  0.5325900000000 1.0
C      1  0.4437230000000  0.4997800000000  0.4674100000000 1.0
C      1  0.5002200000000  0.4437230000000  0.5325900000000 1.0
C      1  0.5562770000000  0.5002200000000  0.4674100000000 1.0
C      1  0.5336680000000  0.5181790000000  0.4978800000000 1.0
C      1  0.4818210000000  0.5336680000000  0.5021200000000 1.0
C      1  0.4663320000000  0.4818210000000  0.4978800000000 1.0
C      1  0.5181790000000  0.4663320000000  0.5021200000000 1.0
C      1  0.4600410000000  0.4298540000000  0.4669780000000 1.0
C      1  0.5701460000000  0.4600410000000  0.5330220000000 1.0
C      1  0.5399590000000  0.5701460000000  0.4669780000000 1.0
C      1  0.4298540000000  0.5399590000000  0.5330220000000 1.0
C      1  0.5331050000000  0.4902810000000  0.5127420000000 1.0
C      1  0.5097190000000  0.5331050000000  0.4872580000000 1.0
C      1  0.4668950000000  0.5097190000000  0.5127420000000 1.0
C      1  0.4902810000000  0.4668950000000  0.4872580000000 1.0
C      1  0.5276770000000  0.4383510000000  0.5191160000000 1.0
C      1  0.5616490000000  0.5276770000000  0.4808840000000 1.0
C      1  0.4723230000000  0.5616490000000  0.5191160000000 1.0
C      1  0.4383510000000  0.4723230000000  0.4808840000000 1.0
C      1  0.5158820000000  0.4748970000000  0.4468440000000 1.0
C      1  0.5251030000000  0.5158820000000  0.5531560000000 1.0
C      1  0.4841180000000  0.5251030000000  0.4468440000000 1.0
C      1  0.4748970000000  0.4841180000000  0.5531560000000 1.0
END
