TITL C-3985245-9316-788 -0.00212081636853567 125000 -328.101531673713 0 0 60 (C3) n - 1
REM
REM in /home/nfs/bkarasulu/CARBON/AIRSS/Generating-Clusters/TERSOFF/Higher-Symm/Only-C60
REM
REM
REM
REM
REM
REM ./C.cell (28575a23ae977d3b5fae324c64b13b57)
REM
REM compiler GCC version 9.2.1 20190827 (Red Hat 9.2.1-1)
REM options -cpp -mtune=generic -march=x86-64 -g -O0 -fpre-include=/usr/include/finclude/math-vector-fortran.h
REM seed 907063856 736776717 -876822311 -306791364 1409212390 40279873 989038707 1263064725 -1029269590 1816784677 -568251007 1651110261 -715185052 1120865767 937030392 -648546616 1538441888 2114625053 360124511 -771498968 2013809973 544960168 1434123041 2041055460 1517926164 1973738820 1900586239 -1413723715 -2133050344 -1751415218 -730869004 799169603 1411305640
REM
CELL 1.54180   50.00000   50.00000   50.00000   90.00000   90.00000   90.00000
LATT -1
SFAC C  
C      1  0.4686470000000  0.5065490000000  0.4356580000000 1.0
C      1  0.5099800000000  0.4695820000000  0.4356220000000 1.0
C      1  0.5213550000000  0.5238400000000  0.4356490000000 1.0
C      1  0.5289540000000  0.5624180000000  0.5236390000000 1.0
C      1  0.4314560000000  0.4938560000000  0.5236740000000 1.0
C      1  0.5395690000000  0.4437450000000  0.5237360000000 1.0
C      1  0.4849350000000  0.4349600000000  0.5202540000000 1.0
C      1  0.5638550000000  0.5194900000000  0.5202600000000 1.0
C      1  0.4511940000000  0.5455690000000  0.5202340000000 1.0
C      1  0.4484050000000  0.5418960000000  0.4901520000000 1.0
C      1  0.4895140000000  0.4343640000000  0.4901580000000 1.0
C      1  0.5621250000000  0.5237240000000  0.4901170000000 1.0
C      1  0.4807570000000  0.5223870000000  0.5390550000000 1.0
C      1  0.4902230000000  0.4721370000000  0.5389870000000 1.0
C      1  0.5291140000000  0.5054780000000  0.5390000000000 1.0
C      1  0.5114570000000  0.5220230000000  0.4683250000000 1.0
C      1  0.4752580000000  0.4990190000000  0.4682640000000 1.0
C      1  0.5132210000000  0.4790080000000  0.4682160000000 1.0
C      1  0.5514950000000  0.4770710000000  0.4971680000000 1.0
C      1  0.4941120000000  0.5559980000000  0.4971850000000 1.0
C      1  0.4544370000000  0.4668960000000  0.4971750000000 1.0
C      1  0.4483150000000  0.5190140000000  0.5389230000000 1.0
C      1  0.5093530000000  0.4457570000000  0.5389180000000 1.0
C      1  0.5422950000000  0.5352090000000  0.5389150000000 1.0
C      1  0.4417150000000  0.4685180000000  0.5414620000000 1.0
C      1  0.5564160000000  0.4652800000000  0.5414720000000 1.0
C      1  0.5018660000000  0.5662120000000  0.5414660000000 1.0
C      1  0.4556560000000  0.4419690000000  0.5309340000000 1.0
C      1  0.5724700000000  0.4906290000000  0.5309350000000 1.0
C      1  0.4719040000000  0.5674190000000  0.5309370000000 1.0
C      1  0.5187850000000  0.4425100000000  0.4482590000000 1.0
C      1  0.5404440000000  0.5450410000000  0.4482040000000 1.0
C      1  0.4408090000000  0.5124920000000  0.4482480000000 1.0
C      1  0.4718110000000  0.5551840000000  0.4762050000000 1.0
C      1  0.4663000000000  0.4479930000000  0.4761940000000 1.0
C      1  0.5618570000000  0.4968310000000  0.4761990000000 1.0
C      1  0.5254390000000  0.5623700000000  0.4943000000000 1.0
C      1  0.4332660000000  0.4908410000000  0.4942970000000 1.0
C      1  0.5412970000000  0.4467760000000  0.4943200000000 1.0
C      1  0.4842750000000  0.4876400000000  0.5648800000000 1.0
C      1  0.5185620000000  0.4925500000000  0.5649190000000 1.0
C      1  0.4971200000000  0.5198230000000  0.5649790000000 1.0
C      1  0.4733500000000  0.4705790000000  0.4582020000000 1.0
C      1  0.5388570000000  0.4915970000000  0.4581660000000 1.0
C      1  0.4878390000000  0.5378030000000  0.4582070000000 1.0
C      1  0.4800930000000  0.4731550000000  0.4281000000000 1.0
C      1  0.5331890000000  0.4961750000000  0.4280570000000 1.0
C      1  0.4866970000000  0.5306350000000  0.4281150000000 1.0
C      1  0.4372470000000  0.5157880000000  0.4774040000000 1.0
C      1  0.5176990000000  0.4377910000000  0.4774210000000 1.0
C      1  0.5450460000000  0.5464720000000  0.4774040000000 1.0
C      1  0.5293040000000  0.4655450000000  0.5579280000000 1.0
C      1  0.5151630000000  0.5425960000000  0.5579780000000 1.0
C      1  0.4554900000000  0.4918590000000  0.5579410000000 1.0
C      1  0.5060810000000  0.4755870000000  0.4979210000000 1.0
C      1  0.5180920000000  0.5174600000000  0.4979720000000 1.0
C      1  0.4758440000000  0.5069460000000  0.4979730000000 1.0
C      1  0.4931620000000  0.5289250000000  0.5112720000000 1.0
C      1  0.4783710000000  0.4796120000000  0.5112130000000 1.0
C      1  0.5284560000000  0.4914060000000  0.5112320000000 1.0
END
