TITL C-3985254-1270-1694 -0.000705283814755266 125000 -316.416124789509 0 0 60 (C5) n - 1
REM
REM in /home/nfs/bkarasulu/CARBON/AIRSS/Generating-Clusters/TERSOFF/Higher-Symm/Only-C60
REM
REM
REM
REM
REM
REM ./C.cell (28575a23ae977d3b5fae324c64b13b57)
REM
REM compiler GCC version 9.2.1 20190827 (Red Hat 9.2.1-1)
REM options -cpp -mtune=generic -march=x86-64 -g -O0 -fpre-include=/usr/include/finclude/math-vector-fortran.h
REM seed -1817084607 -827194713 1629975318 -1717655419 -275447748 293524906 261613788 -1770018616 -228818737 -1281423310 -130539086 -203429464 767111879 -2082313859 -1745478697 -602025229 1674674818 1930155599 -39608214 1921620046 1503727985 -313576987 1282458864 -934847766 -1074818185 -2147363027 372302954 -1294114954 -1634128093 -1329763764 1795422273 51390388 -347000959
REM
CELL 1.54180   50.00000   50.00000   50.00000   90.00000   90.00000   90.00000
LATT -1
SFAC C  
C      1  0.4946330000000  0.4756030000000  0.5364980000000 1.0
C      1  0.4751420000000  0.4975810000000  0.5364990000000 1.0
C      1  0.4900060000000  0.5228990000000  0.5365020000000 1.0
C      1  0.5186860000000  0.5165810000000  0.5365050000000 1.0
C      1  0.5215360000000  0.4873380000000  0.5365000000000 1.0
C      1  0.5207210000000  0.4839370000000  0.4686630000000 1.0
C      1  0.4911290000000  0.4753340000000  0.4686620000000 1.0
C      1  0.4738020000000  0.5008200000000  0.4686570000000 1.0
C      1  0.4926850000000  0.5251750000000  0.4686560000000 1.0
C      1  0.5216800000000  0.5147430000000  0.4686610000000 1.0
C      1  0.4517470000000  0.4480120000000  0.4529750000000 1.0
C      1  0.4356450000000  0.5298320000000  0.4529810000000 1.0
C      1  0.5084800000000  0.5704370000000  0.4529750000000 1.0
C      1  0.5696050000000  0.5136830000000  0.4529860000000 1.0
C      1  0.5345280000000  0.4380360000000  0.4529780000000 1.0
C      1  0.4524300000000  0.5286980000000  0.5039820000000 1.0
C      1  0.5125870000000  0.5541140000000  0.5039850000000 1.0
C      1  0.5553480000000  0.5047430000000  0.5039810000000 1.0
C      1  0.5216240000000  0.4488120000000  0.5039920000000 1.0
C      1  0.4580010000000  0.4636270000000  0.5039840000000 1.0
C      1  0.4620020000000  0.5912790000000  0.4894720000000 1.0
C      1  0.5750630000000  0.5643450000000  0.4894650000000 1.0
C      1  0.5844030000000  0.4484840000000  0.4894910000000 1.0
C      1  0.4770920000000  0.4038120000000  0.4894830000000 1.0
C      1  0.4014410000000  0.4920590000000  0.4894750000000 1.0
C      1  0.4900020000000  0.4546270000000  0.5600820000000 1.0
C      1  0.4537650000000  0.4954870000000  0.5600940000000 1.0
C      1  0.4814150000000  0.5425840000000  0.5600960000000 1.0
C      1  0.5347510000000  0.5308300000000  0.5601060000000 1.0
C      1  0.5400570000000  0.4764700000000  0.5600970000000 1.0
C      1  0.4532360000000  0.5073300000000  0.4476570000000 1.0
C      1  0.4925240000000  0.5467470000000  0.4476490000000 1.0
C      1  0.5421490000000  0.5215560000000  0.4476640000000 1.0
C      1  0.5335270000000  0.4665790000000  0.4476590000000 1.0
C      1  0.4785830000000  0.4577850000000  0.4476600000000 1.0
C      1  0.4486820000000  0.4544250000000  0.5304030000000 1.0
C      1  0.4407920000000  0.5347160000000  0.5304120000000 1.0
C      1  0.5147200000000  0.5670370000000  0.5304300000000 1.0
C      1  0.5682970000000  0.5067130000000  0.5304240000000 1.0
C      1  0.5274980000000  0.4371160000000  0.5304030000000 1.0
C      1  0.5238890000000  0.5725080000000  0.4778890000000 1.0
C      1  0.5763360000000  0.4996700000000  0.4778990000000 1.0
C      1  0.5232800000000  0.4273000000000  0.4778940000000 1.0
C      1  0.4380570000000  0.4553930000000  0.4778880000000 1.0
C      1  0.4384350000000  0.5451310000000  0.4778930000000 1.0
C      1  0.4846350000000  0.5427050000000  0.4938700000000 1.0
C      1  0.5358560000000  0.5278150000000  0.4938740000000 1.0
C      1  0.5375350000000  0.4744810000000  0.4938660000000 1.0
C      1  0.4873240000000  0.4564190000000  0.4938680000000 1.0
C      1  0.4546330000000  0.4985900000000  0.4938650000000 1.0
C      1  0.4592850000000  0.4638770000000  0.5559020000000 1.0
C      1  0.4530770000000  0.5275520000000  0.5559030000000 1.0
C      1  0.5117010000000  0.5531430000000  0.5559170000000 1.0
C      1  0.5541690000000  0.5052960000000  0.5559120000000 1.0
C      1  0.5217700000000  0.4501380000000  0.5558970000000 1.0
C      1  0.5486990000000  0.5545360000000  0.4825640000000 1.0
C      1  0.5669190000000  0.4705270000000  0.4825690000000 1.0
C      1  0.4926490000000  0.4272590000000  0.4825640000000 1.0
C      1  0.4285460000000  0.4845110000000  0.4825560000000 1.0
C      1  0.4631920000000  0.5631680000000  0.4825610000000 1.0
END
