TITL C-3985245-9316-598 0.000232914639749029 125000 -310.496023107306 0 0 60 (C2) n - 1
REM
REM in /home/nfs/bkarasulu/CARBON/AIRSS/Generating-Clusters/TERSOFF/Higher-Symm/Only-C60
REM
REM
REM
REM
REM
REM ./C.cell (28575a23ae977d3b5fae324c64b13b57)
REM
REM compiler GCC version 9.2.1 20190827 (Red Hat 9.2.1-1)
REM options -cpp -mtune=generic -march=x86-64 -g -O0 -fpre-include=/usr/include/finclude/math-vector-fortran.h
REM seed 804266632 -974263429 141626821 1382696820 1199398577 797966735 510770544 1365220367 1716265291 1564585137 -420604799 1506198787 -1250977552 -1064266878 938312389 1545810972 -1946056375 -102925150 -351007413 -755700145 218736334 -1585380903 800846702 -1572309836 -1227644033 -1630831412 636850576 1370474553 -1173454358 -1259174314 -298976808 1454490355 803567025
REM
CELL 1.54180   50.00000   50.00000   50.00000   90.00000   90.00000   90.00000
LATT -1
SFAC C  
C      1  0.4634530000000  0.4945080000000  0.4374080000000 1.0
C      1  0.5365470000000  0.4945080000000  0.5625920000000 1.0
C      1  0.4368820000000  0.5267450000000  0.4662240000000 1.0
C      1  0.5631180000000  0.5267450000000  0.5337760000000 1.0
C      1  0.5199880000000  0.4959600000000  0.4936840000000 1.0
C      1  0.4800120000000  0.4959600000000  0.5063160000000 1.0
C      1  0.4748120000000  0.5625420000000  0.5350840000000 1.0
C      1  0.5251880000000  0.5625420000000  0.4649160000000 1.0
C      1  0.4479070000000  0.4558290000000  0.4896240000000 1.0
C      1  0.5520930000000  0.4558290000000  0.5103760000000 1.0
C      1  0.5434610000000  0.4651310000000  0.5425760000000 1.0
C      1  0.4565390000000  0.4651310000000  0.4574240000000 1.0
C      1  0.5445240000000  0.5232640000000  0.5568540000000 1.0
C      1  0.4554760000000  0.5232640000000  0.4431460000000 1.0
C      1  0.5410280000000  0.4950790000000  0.4455970000000 1.0
C      1  0.4589720000000  0.4950790000000  0.5544030000000 1.0
C      1  0.5460440000000  0.5301340000000  0.4877810000000 1.0
C      1  0.4539560000000  0.5301340000000  0.5122190000000 1.0
C      1  0.4677170000000  0.4912790000000  0.4789930000000 1.0
C      1  0.5322830000000  0.4912790000000  0.5210070000000 1.0
C      1  0.5569700000000  0.5100570000000  0.4257190000000 1.0
C      1  0.4430300000000  0.5100570000000  0.5742810000000 1.0
C      1  0.4845990000000  0.5705430000000  0.5050510000000 1.0
C      1  0.5154010000000  0.5705430000000  0.4949490000000 1.0
C      1  0.4688050000000  0.4369020000000  0.4996280000000 1.0
C      1  0.5311950000000  0.4369020000000  0.5003720000000 1.0
C      1  0.5463460000000  0.5442580000000  0.5144270000000 1.0
C      1  0.4536540000000  0.5442580000000  0.4855730000000 1.0
C      1  0.5606790000000  0.4781390000000  0.4929390000000 1.0
C      1  0.4393210000000  0.4781390000000  0.5070610000000 1.0
C      1  0.5096150000000  0.4488700000000  0.4437270000000 1.0
C      1  0.4903850000000  0.4488700000000  0.5562730000000 1.0
C      1  0.4778550000000  0.5457880000000  0.4468490000000 1.0
C      1  0.5221450000000  0.5457880000000  0.5531510000000 1.0
C      1  0.5166600000000  0.5484700000000  0.5207470000000 1.0
C      1  0.4833400000000  0.5484700000000  0.4792530000000 1.0
C      1  0.4395330000000  0.5055030000000  0.4930450000000 1.0
C      1  0.5604670000000  0.5055030000000  0.5069550000000 1.0
C      1  0.4772440000000  0.4422320000000  0.4495940000000 1.0
C      1  0.5227560000000  0.4422320000000  0.5504060000000 1.0
C      1  0.4859810000000  0.4449740000000  0.5233900000000 1.0
C      1  0.5140190000000  0.4449740000000  0.4766100000000 1.0
C      1  0.5145590000000  0.5138620000000  0.4554450000000 1.0
C      1  0.4854410000000  0.5138620000000  0.5445550000000 1.0
C      1  0.4420830000000  0.4766270000000  0.5364280000000 1.0
C      1  0.5579170000000  0.4766270000000  0.4635720000000 1.0
C      1  0.4932400000000  0.4757080000000  0.5227740000000 1.0
C      1  0.5067600000000  0.4757080000000  0.4772260000000 1.0
C      1  0.4912900000000  0.5429170000000  0.5537120000000 1.0
C      1  0.5087100000000  0.5429170000000  0.4462880000000 1.0
C      1  0.5082030000000  0.4916530000000  0.5478600000000 1.0
C      1  0.4917970000000  0.4916530000000  0.4521400000000 1.0
C      1  0.5530880000000  0.5506350000000  0.4666460000000 1.0
C      1  0.4469120000000  0.5506350000000  0.5333540000000 1.0
C      1  0.5139700000000  0.4295530000000  0.5232620000000 1.0
C      1  0.4860300000000  0.4295530000000  0.4767380000000 1.0
C      1  0.5112680000000  0.5257870000000  0.4859060000000 1.0
C      1  0.4887320000000  0.5257870000000  0.5140940000000 1.0
C      1  0.4849790000000  0.4770490000000  0.5647030000000 1.0
C      1  0.5150210000000  0.4770490000000  0.4352970000000 1.0
END
