TITL C-3985244-725-474 0.00490392974511608 125000 -322.807211250346 0 0 60 (C2) n - 1
REM
REM in /home/nfs/bkarasulu/CARBON/AIRSS/Generating-Clusters/TERSOFF/Higher-Symm/Only-C60
REM
REM
REM
REM
REM
REM ./C.cell (28575a23ae977d3b5fae324c64b13b57)
REM
REM compiler GCC version 9.2.1 20190827 (Red Hat 9.2.1-1)
REM options -cpp -mtune=generic -march=x86-64 -g -O0 -fpre-include=/usr/include/finclude/math-vector-fortran.h
REM seed -543342805 -1856085370 -786193299 1878862437 1193427840 -1972083001 1114067436 -889302551 723579318 -6114143 1614275214 -2087371590 1228096999 477575395 572815434 -1766863591 106691407 544580153 1732419943 258949124 -1376077791 -1779935270 169278793 1412993336 1684256830 -868685589 -104503192 -1753850794 -1445075154 -1954191984 617503021 -1392857801 -1911539023
REM
CELL 1.54180   50.00000   50.00000   50.00000   90.00000   90.00000   90.00000
LATT -1
SFAC C  
C      1  0.4618040000000  0.4338520000000  0.4879620000000 1.0
C      1  0.4640780000000  0.4520340000000  0.4500160000000 1.0
C      1  0.4616600000000  0.4906200000000  0.4336400000000 1.0
C      1  0.4633530000000  0.5322100000000  0.4391700000000 1.0
C      1  0.4631490000000  0.5618980000000  0.4701680000000 1.0
C      1  0.4618050000000  0.5661640000000  0.5121550000000 1.0
C      1  0.4640750000000  0.5479710000000  0.5499810000000 1.0
C      1  0.4616660000000  0.5093620000000  0.5663640000000 1.0
C      1  0.4633450000000  0.4678050000000  0.5608230000000 1.0
C      1  0.4631520000000  0.4380860000000  0.5297150000000 1.0
C      1  0.5173640000000  0.5526130000000  0.5551780000000 1.0
C      1  0.5168120000000  0.5100940000000  0.5751410000000 1.0
C      1  0.5171770000000  0.4638000000000  0.5669800000000 1.0
C      1  0.5171440000000  0.4314080000000  0.5329460000000 1.0
C      1  0.5168660000000  0.4253790000000  0.4863180000000 1.0
C      1  0.5173660000000  0.4473860000000  0.4448220000000 1.0
C      1  0.5168100000000  0.4899070000000  0.4248600000000 1.0
C      1  0.5171790000000  0.5362010000000  0.4330170000000 1.0
C      1  0.5171430000000  0.5685910000000  0.4670550000000 1.0
C      1  0.5168660000000  0.5746210000000  0.5136820000000 1.0
C      1  0.5563220000000  0.4472930000000  0.5070050000000 1.0
C      1  0.5564140000000  0.4532300000000  0.4747220000000 1.0
C      1  0.5563820000000  0.4770810000000  0.4520540000000 1.0
C      1  0.5563000000000  0.5096080000000  0.4476980000000 1.0
C      1  0.5564440000000  0.5385130000000  0.4633480000000 1.0
C      1  0.5563220000000  0.5527070000000  0.4929950000000 1.0
C      1  0.5564130000000  0.5467700000000  0.5252780000000 1.0
C      1  0.5563820000000  0.5229190000000  0.5479470000000 1.0
C      1  0.5563000000000  0.4903910000000  0.5523020000000 1.0
C      1  0.5564430000000  0.4614880000000  0.5366520000000 1.0
C      1  0.5335440000000  0.4677630000000  0.4325300000000 1.0
C      1  0.5334060000000  0.5134930000000  0.4265140000000 1.0
C      1  0.5336350000000  0.5542340000000  0.4483980000000 1.0
C      1  0.5334080000000  0.5740370000000  0.4901820000000 1.0
C      1  0.5335770000000  0.5658090000000  0.5355760000000 1.0
C      1  0.5335440000000  0.5322380000000  0.5674710000000 1.0
C      1  0.5334060000000  0.4865070000000  0.5734860000000 1.0
C      1  0.5336340000000  0.4457670000000  0.5516020000000 1.0
C      1  0.5334080000000  0.4259630000000  0.5098180000000 1.0
C      1  0.5335780000000  0.4341910000000  0.4644240000000 1.0
C      1  0.4366720000000  0.4931360000000  0.4525760000000 1.0
C      1  0.4396150000000  0.5241820000000  0.4552500000000 1.0
C      1  0.4392540000000  0.5454040000000  0.4775720000000 1.0
C      1  0.4369180000000  0.5474920000000  0.5087430000000 1.0
C      1  0.4409350000000  0.5357230000000  0.5370560000000 1.0
C      1  0.4366790000000  0.5068660000000  0.5474360000000 1.0
C      1  0.4396030000000  0.4758200000000  0.5447430000000 1.0
C      1  0.4392660000000  0.4545880000000  0.5224280000000 1.0
C      1  0.4369090000000  0.4525120000000  0.4912590000000 1.0
C      1  0.4409410000000  0.4642770000000  0.4629440000000 1.0
C      1  0.4909800000000  0.4922990000000  0.4434410000000 1.0
C      1  0.4918040000000  0.5276270000000  0.4490880000000 1.0
C      1  0.4916860000000  0.5520980000000  0.4748130000000 1.0
C      1  0.4910450000000  0.5562830000000  0.5103650000000 1.0
C      1  0.4922510000000  0.5401770000000  0.5420690000000 1.0
C      1  0.4909830000000  0.5077020000000  0.5565630000000 1.0
C      1  0.4918000000000  0.4723750000000  0.5509100000000 1.0
C      1  0.4916890000000  0.4478990000000  0.5251870000000 1.0
C      1  0.4910430000000  0.4437160000000  0.4896350000000 1.0
C      1  0.4922540000000  0.4598210000000  0.4579300000000 1.0
END
