TITL C-3985246-2097-68 0.00165577117458095 125000 -312.648531690271 0 0 60 (C3) n - 1
REM
REM in /home/nfs/bkarasulu/CARBON/AIRSS/Generating-Clusters/TERSOFF/Higher-Symm/Only-C60
REM
REM
REM
REM
REM
REM ./C.cell (28575a23ae977d3b5fae324c64b13b57)
REM
REM compiler GCC version 9.2.1 20190827 (Red Hat 9.2.1-1)
REM options -cpp -mtune=generic -march=x86-64 -g -O0 -fpre-include=/usr/include/finclude/math-vector-fortran.h
REM seed -1786317259 507903874 -303641911 -1071261040 1304849543 1543653831 1960442465 -1132505713 -1510000685 -1810598162 -1366154275 -1367685020 953751192 1068939032 825118987 1118837255 1031926590 729705969 453891239 -854322538 780141004 -695885057 684818544 -551817658 -1852601323 1822207504 1291313552 -2029081397 -1234624484 1954132871 -1443664096 -1968510138 -1855155208
REM
CELL 1.54180   50.00000   50.00000   50.00000   90.00000   90.00000   90.00000
LATT -1
SFAC C  
C      1  0.5418740000000  0.5187040000000  0.5235640000000 1.0
C      1  0.4628620000000  0.5269180000000  0.5235630000000 1.0
C      1  0.4952510000000  0.4543820000000  0.5235640000000 1.0
C      1  0.5234740000000  0.5598530000000  0.5472460000000 1.0
C      1  0.4364290000000  0.4904000000000  0.5472470000000 1.0
C      1  0.5401070000000  0.4497430000000  0.5472470000000 1.0
C      1  0.5558990000000  0.5557680000000  0.5001850000000 1.0
C      1  0.4237500000000  0.5205240000000  0.5001840000000 1.0
C      1  0.5203440000000  0.4236840000000  0.5001410000000 1.0
C      1  0.4358490000000  0.5169330000000  0.5330410000000 1.0
C      1  0.5174060000000  0.4359790000000  0.5330520000000 1.0
C      1  0.5467390000000  0.5470870000000  0.5330400000000 1.0
C      1  0.4703060000000  0.4552530000000  0.5392070000000 1.0
C      1  0.5535960000000  0.4966590000000  0.5392000000000 1.0
C      1  0.4760930000000  0.5480870000000  0.5392030000000 1.0
C      1  0.4937300000000  0.4579220000000  0.4613890000000 1.0
C      1  0.5395670000000  0.5156180000000  0.4613790000000 1.0
C      1  0.4666790000000  0.5264600000000  0.4613810000000 1.0
C      1  0.4251640000000  0.4694190000000  0.5289320000000 1.0
C      1  0.5638960000000  0.4504750000000  0.5289290000000 1.0
C      1  0.5109340000000  0.5800990000000  0.5289320000000 1.0
C      1  0.4359640000000  0.4834010000000  0.4849630000000 1.0
C      1  0.5463740000000  0.4528210000000  0.4850050000000 1.0
C      1  0.5176410000000  0.5637570000000  0.4849640000000 1.0
C      1  0.4806760000000  0.4970740000000  0.4685690000000 1.0
C      1  0.5122070000000  0.4847280000000  0.4685590000000 1.0
C      1  0.5071370000000  0.5182100000000  0.4685570000000 1.0
C      1  0.4627090000000  0.4787910000000  0.5555680000000 1.0
C      1  0.5370130000000  0.4783080000000  0.5555670000000 1.0
C      1  0.5002780000000  0.5429000000000  0.5555700000000 1.0
C      1  0.4576660000000  0.4421490000000  0.4935160000000 1.0
C      1  0.5712600000000  0.4922650000000  0.4935290000000 1.0
C      1  0.4710690000000  0.5655910000000  0.4935180000000 1.0
C      1  0.4901260000000  0.4415520000000  0.4907170000000 1.0
C      1  0.5555780000000  0.5206650000000  0.4907250000000 1.0
C      1  0.4543160000000  0.5377830000000  0.4907280000000 1.0
C      1  0.5098230000000  0.4814660000000  0.5187510000000 1.0
C      1  0.5111370000000  0.5177860000000  0.5187490000000 1.0
C      1  0.4790290000000  0.5007590000000  0.5187450000000 1.0
C      1  0.5245480000000  0.4743550000000  0.4930010000000 1.0
C      1  0.5099300000000  0.5340570000000  0.4930020000000 1.0
C      1  0.4655420000000  0.4915700000000  0.4930030000000 1.0
C      1  0.5408550000000  0.4819780000000  0.4492430000000 1.0
C      1  0.4951910000000  0.5443890000000  0.4492370000000 1.0
C      1  0.4639680000000  0.4736360000000  0.4492360000000 1.0
C      1  0.5295130000000  0.5807970000000  0.5064490000000 1.0
C      1  0.4152750000000  0.4851600000000  0.5064480000000 1.0
C      1  0.5552360000000  0.4340710000000  0.5064470000000 1.0
C      1  0.4912300000000  0.5692330000000  0.4711120000000 1.0
C      1  0.4444300000000  0.4577840000000  0.4711140000000 1.0
C      1  0.5643580000000  0.4730180000000  0.4710790000000 1.0
C      1  0.5326830000000  0.4315490000000  0.4668930000000 1.0
C      1  0.5429310000000  0.5625840000000  0.4668690000000 1.0
C      1  0.4243410000000  0.5058860000000  0.4668700000000 1.0
C      1  0.4470640000000  0.4477990000000  0.5221430000000 1.0
C      1  0.5716800000000  0.4802400000000  0.5221390000000 1.0
C      1  0.4812620000000  0.5719480000000  0.5221410000000 1.0
C      1  0.4467520000000  0.5053290000000  0.4455430000000 1.0
C      1  0.5220320000000  0.4512020000000  0.4455540000000 1.0
C      1  0.5312290000000  0.5434410000000  0.4455500000000 1.0
END
