TITL C-3985253-1688-609 0.000704402084445169 125000 -318.433714781989 0 0 60 (C1) n - 1
REM
REM in /home/nfs/bkarasulu/CARBON/AIRSS/Generating-Clusters/TERSOFF/Higher-Symm/Only-C60
REM
REM
REM
REM
REM
REM ./C.cell (28575a23ae977d3b5fae324c64b13b57)
REM
REM compiler GCC version 9.2.1 20190827 (Red Hat 9.2.1-1)
REM options -cpp -mtune=generic -march=x86-64 -g -O0 -fpre-include=/usr/include/finclude/math-vector-fortran.h
REM seed 126493107 539373645 1952280592 1623861425 368474657 366540028 -346946643 -314122655 1725433287 294331465 -70886598 -532570754 2071664740 1518838050 1601515415 -1598356398 -373822548 374986521 -349208765 1103045012 1886302934 -514276719 -1501900973 -2065111049 146026104 -2048060862 -620856496 -1668840681 1050805914 2057721759 -952054220 511316952 24617310
REM
CELL 1.54180   50.00000   50.00000   50.00000   90.00000   90.00000   90.00000
LATT -1
SFAC C  
C      1  0.5382380000000  0.4808550000000  0.4426510000000 1.0
C      1  0.4975110000000  0.5411630000000  0.4431420000000 1.0
C      1  0.4646740000000  0.4777680000000  0.4408310000000 1.0
C      1  0.4929000000000  0.4749880000000  0.5168910000000 1.0
C      1  0.5246430000000  0.5065530000000  0.5170290000000 1.0
C      1  0.4821280000000  0.5186110000000  0.5173270000000 1.0
C      1  0.5012560000000  0.5451750000000  0.5328600000000 1.0
C      1  0.4604230000000  0.4785180000000  0.5328640000000 1.0
C      1  0.5383570000000  0.4768410000000  0.5327440000000 1.0
C      1  0.4274910000000  0.4749170000000  0.4717880000000 1.0
C      1  0.5578970000000  0.4476250000000  0.4714860000000 1.0
C      1  0.5159840000000  0.5755830000000  0.4712820000000 1.0
C      1  0.4557610000000  0.4495430000000  0.5279290000000 1.0
C      1  0.5660990000000  0.4873310000000  0.5292720000000 1.0
C      1  0.4781620000000  0.5635070000000  0.5287110000000 1.0
C      1  0.4665580000000  0.4638820000000  0.4825430000000 1.0
C      1  0.5496490000000  0.4870220000000  0.4836840000000 1.0
C      1  0.4862170000000  0.5483390000000  0.4832450000000 1.0
C      1  0.5046720000000  0.4583640000000  0.5626620000000 1.0
C      1  0.5338840000000  0.5249460000000  0.5626850000000 1.0
C      1  0.4617420000000  0.5167530000000  0.5626750000000 1.0
C      1  0.4664130000000  0.5567780000000  0.5034660000000 1.0
C      1  0.4678190000000  0.4425120000000  0.5030120000000 1.0
C      1  0.5668510000000  0.5003420000000  0.5037150000000 1.0
C      1  0.4501550000000  0.5248450000000  0.4549510000000 1.0
C      1  0.5010520000000  0.4473870000000  0.4561120000000 1.0
C      1  0.5466400000000  0.5285970000000  0.4550860000000 1.0
C      1  0.4491720000000  0.5020900000000  0.4347660000000 1.0
C      1  0.5217680000000  0.4575230000000  0.4357780000000 1.0
C      1  0.5261880000000  0.5405000000000  0.4353160000000 1.0
C      1  0.5534000000000  0.5433390000000  0.4811320000000 1.0
C      1  0.4344690000000  0.5240270000000  0.4812950000000 1.0
C      1  0.5106590000000  0.4327770000000  0.4813090000000 1.0
C      1  0.5076250000000  0.5384580000000  0.5606970000000 1.0
C      1  0.4630720000000  0.4872070000000  0.5607120000000 1.0
C      1  0.5293440000000  0.4745540000000  0.5605910000000 1.0
C      1  0.5346980000000  0.4481480000000  0.4893800000000 1.0
C      1  0.5273390000000  0.5552380000000  0.4891720000000 1.0
C      1  0.4379470000000  0.4957190000000  0.4896970000000 1.0
C      1  0.5231250000000  0.5584190000000  0.5180020000000 1.0
C      1  0.4377890000000  0.4908510000000  0.5185020000000 1.0
C      1  0.5390960000000  0.4509620000000  0.5183250000000 1.0
C      1  0.4935890000000  0.4286290000000  0.5054190000000 1.0
C      1  0.5650590000000  0.5298550000000  0.5051760000000 1.0
C      1  0.4412850000000  0.5410330000000  0.5050900000000 1.0
C      1  0.5454780000000  0.5257220000000  0.5324830000000 1.0
C      1  0.4549420000000  0.5265720000000  0.5326810000000 1.0
C      1  0.4996630000000  0.4476400000000  0.5326440000000 1.0
C      1  0.4955690000000  0.4820600000000  0.4578960000000 1.0
C      1  0.5222820000000  0.5054830000000  0.4577580000000 1.0
C      1  0.4815750000000  0.5155340000000  0.4576390000000 1.0
C      1  0.5148330000000  0.4776700000000  0.4883640000000 1.0
C      1  0.5116280000000  0.5229720000000  0.4876240000000 1.0
C      1  0.4728820000000  0.4990350000000  0.4888080000000 1.0
C      1  0.5337590000000  0.4987670000000  0.5760140000000 1.0
C      1  0.4844080000000  0.5299270000000  0.5759570000000 1.0
C      1  0.4818790000000  0.4712510000000  0.5759850000000 1.0
C      1  0.4906890000000  0.5660970000000  0.4584730000000 1.0
C      1  0.4488330000000  0.4590580000000  0.4580490000000 1.0
C      1  0.5627810000000  0.4741380000000  0.4586200000000 1.0
END
