TITL C-3985253-1688-781 -0.000126523389254045 125000 -318.566439624207 0 0 60 (C1) n - 1
REM
REM in /home/nfs/bkarasulu/CARBON/AIRSS/Generating-Clusters/TERSOFF/Higher-Symm/Only-C60
REM
REM
REM
REM
REM
REM ./C.cell (28575a23ae977d3b5fae324c64b13b57)
REM
REM compiler GCC version 9.2.1 20190827 (Red Hat 9.2.1-1)
REM options -cpp -mtune=generic -march=x86-64 -g -O0 -fpre-include=/usr/include/finclude/math-vector-fortran.h
REM seed 870788047 -2071789923 924812990 -1733119880 -197978383 -1982024043 640714328 53603913 -334833271 833498781 1715120598 -1554877004 -1059447899 -993857418 622047778 -619266450 -1961509246 1912655865 -1696135202 -868042679 1294069913 1567478264 278667112 -1785296406 -2075821809 -1845531304 -648726603 834658070 -1248304189 -671284747 859685244 1563974071 1397766224
REM
CELL 1.54180   50.00000   50.00000   50.00000   90.00000   90.00000   90.00000
LATT -1
SFAC C  
C      1  0.4987360000000  0.4858620000000  0.4245450000000 1.0
C      1  0.5425440000000  0.5256230000000  0.4401290000000 1.0
C      1  0.4341520000000  0.4992690000000  0.5212720000000 1.0
C      1  0.5294060000000  0.5349130000000  0.5474450000000 1.0
C      1  0.4480170000000  0.4972240000000  0.4343310000000 1.0
C      1  0.4846650000000  0.5253240000000  0.5697120000000 1.0
C      1  0.4753750000000  0.4707690000000  0.5247790000000 1.0
C      1  0.4602510000000  0.5233200000000  0.4463490000000 1.0
C      1  0.5033380000000  0.4843240000000  0.4908120000000 1.0
C      1  0.4908460000000  0.5218050000000  0.5239330000000 1.0
C      1  0.5592030000000  0.4527820000000  0.5149100000000 1.0
C      1  0.5498520000000  0.4485670000000  0.4877770000000 1.0
C      1  0.4740200000000  0.4569840000000  0.4562920000000 1.0
C      1  0.4570800000000  0.4847730000000  0.5059650000000 1.0
C      1  0.5436510000000  0.4708650000000  0.5308610000000 1.0
C      1  0.5193350000000  0.4676790000000  0.4405700000000 1.0
C      1  0.5136850000000  0.5089600000000  0.5056760000000 1.0
C      1  0.4837090000000  0.4280570000000  0.5123360000000 1.0
C      1  0.5244540000000  0.4918980000000  0.5718010000000 1.0
C      1  0.5113530000000  0.5511920000000  0.5274810000000 1.0
C      1  0.5138910000000  0.5199000000000  0.5676790000000 1.0
C      1  0.4668040000000  0.5557810000000  0.4887270000000 1.0
C      1  0.5663430000000  0.4651510000000  0.4699350000000 1.0
C      1  0.5415840000000  0.5340910000000  0.4711770000000 1.0
C      1  0.4456460000000  0.5419770000000  0.4651200000000 1.0
C      1  0.4847280000000  0.5661660000000  0.5157170000000 1.0
C      1  0.4283780000000  0.5235060000000  0.5053230000000 1.0
C      1  0.4803870000000  0.4601050000000  0.5693310000000 1.0
C      1  0.5724690000000  0.4952320000000  0.4747880000000 1.0
C      1  0.4812390000000  0.5091410000000  0.4652010000000 1.0
C      1  0.5622000000000  0.5459250000000  0.4917620000000 1.0
C      1  0.5185730000000  0.4456620000000  0.4849200000000 1.0
C      1  0.5567650000000  0.5186940000000  0.5350850000000 1.0
C      1  0.5004300000000  0.4546760000000  0.5102230000000 1.0
C      1  0.5180210000000  0.4590510000000  0.5359170000000 1.0
C      1  0.5528070000000  0.4901840000000  0.5568210000000 1.0
C      1  0.5078190000000  0.4674280000000  0.5622760000000 1.0
C      1  0.4431000000000  0.5110070000000  0.5482570000000 1.0
C      1  0.4669040000000  0.4996880000000  0.5655450000000 1.0
C      1  0.4646610000000  0.5367470000000  0.5416930000000 1.0
C      1  0.4639740000000  0.4263340000000  0.5336250000000 1.0
C      1  0.4940470000000  0.5481450000000  0.4741210000000 1.0
C      1  0.4493960000000  0.5435510000000  0.5134550000000 1.0
C      1  0.5090810000000  0.5122850000000  0.4418400000000 1.0
C      1  0.4703110000000  0.4763140000000  0.4310790000000 1.0
C      1  0.5166830000000  0.5370450000000  0.4884090000000 1.0
C      1  0.5389510000000  0.4997030000000  0.5183950000000 1.0
C      1  0.4621150000000  0.4528480000000  0.5467210000000 1.0
C      1  0.5340350000000  0.5582050000000  0.5058310000000 1.0
C      1  0.4842680000000  0.4946480000000  0.5406600000000 1.0
C      1  0.5433760000000  0.5044510000000  0.4764010000000 1.0
C      1  0.4600160000000  0.4804220000000  0.4736440000000 1.0
C      1  0.5044330000000  0.4488070000000  0.4586520000000 1.0
C      1  0.4330140000000  0.4941400000000  0.4622710000000 1.0
C      1  0.5699530000000  0.5099380000000  0.4444160000000 1.0
C      1  0.5205940000000  0.4886370000000  0.4655850000000 1.0
C      1  0.4725290000000  0.5120000000000  0.4981910000000 1.0
C      1  0.4264820000000  0.5210720000000  0.4760810000000 1.0
C      1  0.4973990000000  0.5424730000000  0.4454780000000 1.0
C      1  0.5729240000000  0.5186790000000  0.5026680000000 1.0
END
