TITL C-3985259-1859-957 2.75431328612395e-06 125000 -346.030831263211 0 0 60 (T23) n - 1
REM
REM in /home/nfs/bkarasulu/CARBON/AIRSS/Generating-Clusters/TERSOFF/Higher-Symm/Only-C60
REM
REM
REM
REM
REM
REM ./C.cell (28575a23ae977d3b5fae324c64b13b57)
REM
REM compiler GCC version 9.2.1 20190827 (Red Hat 9.2.1-1)
REM options -cpp -mtune=generic -march=x86-64 -g -O0 -fpre-include=/usr/include/finclude/math-vector-fortran.h
REM seed 451708047 2102420716 585332699 957990451 1963795488 1662559101 -1175236261 1929154974 -791383218 1490883866 1680082009 -483730980 1885474793 75329317 -460360550 -1918559749 -1470170332 1554100333 -266821317 2107826051 435879418 1357247278 -2058378901 -2134233515 -398557258 171652587 152462516 131231100 1246886568 -419142879 -2092181309 1282951255 -356795925
REM
CELL 1.54180   50.00000   50.00000   50.00000   90.00000   90.00000   90.00000
LATT -1
SFAC C  
C      1  0.4999210000000  0.4601850000000  0.4392890000000 1.0
C      1  0.4392890000000  0.4999210000000  0.4601850000000 1.0
C      1  0.4601850000000  0.4392890000000  0.4999210000000 1.0
C      1  0.5000790000000  0.4601850000000  0.5607110000000 1.0
C      1  0.4999210000000  0.5398150000000  0.5607110000000 1.0
C      1  0.5000790000000  0.5398150000000  0.4392890000000 1.0
C      1  0.5607110000000  0.4999210000000  0.5398150000000 1.0
C      1  0.4392890000000  0.5000790000000  0.5398150000000 1.0
C      1  0.5607110000000  0.5000790000000  0.4601850000000 1.0
C      1  0.5398150000000  0.4392890000000  0.5000790000000 1.0
C      1  0.4601850000000  0.5607110000000  0.5000790000000 1.0
C      1  0.5398150000000  0.5607110000000  0.4999210000000 1.0
C      1  0.4308940000000  0.5249790000000  0.4735370000000 1.0
C      1  0.4735370000000  0.4308940000000  0.5249790000000 1.0
C      1  0.5249790000000  0.4735370000000  0.4308940000000 1.0
C      1  0.5691060000000  0.5249790000000  0.5264630000000 1.0
C      1  0.4308940000000  0.4750210000000  0.5264630000000 1.0
C      1  0.5691060000000  0.4750210000000  0.4735370000000 1.0
C      1  0.5264630000000  0.4308940000000  0.4750210000000 1.0
C      1  0.4735370000000  0.5691060000000  0.4750210000000 1.0
C      1  0.5264630000000  0.5691060000000  0.5249790000000 1.0
C      1  0.4750210000000  0.4735370000000  0.5691060000000 1.0
C      1  0.5249790000000  0.5264630000000  0.5691060000000 1.0
C      1  0.4750210000000  0.5264630000000  0.4308940000000 1.0
C      1  0.5256660000000  0.4322490000000  0.5253360000000 1.0
C      1  0.5253360000000  0.5256660000000  0.4322490000000 1.0
C      1  0.4322490000000  0.5253360000000  0.5256660000000 1.0
C      1  0.4743340000000  0.4322490000000  0.4746640000000 1.0
C      1  0.5256660000000  0.5677510000000  0.4746640000000 1.0
C      1  0.4743340000000  0.5677510000000  0.5253360000000 1.0
C      1  0.4746640000000  0.5256660000000  0.5677510000000 1.0
C      1  0.5253360000000  0.4743340000000  0.5677510000000 1.0
C      1  0.4746640000000  0.4743340000000  0.4322490000000 1.0
C      1  0.5677510000000  0.5253360000000  0.4743340000000 1.0
C      1  0.4322490000000  0.4746640000000  0.4743340000000 1.0
C      1  0.5677510000000  0.4746640000000  0.5256660000000 1.0
C      1  0.5124330000000  0.5077180000000  0.5336830000000 1.0
C      1  0.5336830000000  0.5124330000000  0.5077180000000 1.0
C      1  0.5077180000000  0.5336830000000  0.5124330000000 1.0
C      1  0.4875670000000  0.5077180000000  0.4663170000000 1.0
C      1  0.5124330000000  0.4922820000000  0.4663170000000 1.0
C      1  0.4875670000000  0.4922820000000  0.5336830000000 1.0
C      1  0.4663170000000  0.5124330000000  0.4922820000000 1.0
C      1  0.5336830000000  0.4875670000000  0.4922820000000 1.0
C      1  0.4663170000000  0.4875670000000  0.5077180000000 1.0
C      1  0.4922820000000  0.5336830000000  0.4875670000000 1.0
C      1  0.5077180000000  0.4663170000000  0.4875670000000 1.0
C      1  0.4922820000000  0.4663170000000  0.5124330000000 1.0
C      1  0.4445840000000  0.4658310000000  0.5004540000000 1.0
C      1  0.5004540000000  0.4445840000000  0.4658310000000 1.0
C      1  0.4658310000000  0.5004540000000  0.4445840000000 1.0
C      1  0.5554160000000  0.4658310000000  0.4995460000000 1.0
C      1  0.4445840000000  0.5341690000000  0.4995460000000 1.0
C      1  0.5554160000000  0.5341690000000  0.5004540000000 1.0
C      1  0.4995460000000  0.4445840000000  0.5341690000000 1.0
C      1  0.5004540000000  0.5554160000000  0.5341690000000 1.0
C      1  0.4995460000000  0.5554160000000  0.4658310000000 1.0
C      1  0.5341690000000  0.5004540000000  0.5554160000000 1.0
C      1  0.4658310000000  0.4995460000000  0.5554160000000 1.0
C      1  0.5341690000000  0.4995460000000  0.4445840000000 1.0
END
