TITL C-3985253-1688-644 -9.86513145662635e-06 125000 -357.135699275192 0 0 60 (D4) n - 1
REM
REM in /home/nfs/bkarasulu/CARBON/AIRSS/Generating-Clusters/TERSOFF/Higher-Symm/Only-C60
REM
REM
REM
REM
REM
REM ./C.cell (28575a23ae977d3b5fae324c64b13b57)
REM
REM compiler GCC version 9.2.1 20190827 (Red Hat 9.2.1-1)
REM options -cpp -mtune=generic -march=x86-64 -g -O0 -fpre-include=/usr/include/finclude/math-vector-fortran.h
REM seed -1437822762 123745644 1819253923 -884837534 1561660096 -1392225524 1384512443 1917450034 2006296278 -751072140 -1168500186 1732096418 -198546750 -859563719 32412296 -65767613 420051036 -1156950239 -1610579977 -1907667129 -2117188341 -1324855601 -2015414096 -425232027 23619865 1717241002 -941520485 -1720678003 273028065 1101412840 -1835855842 -1481187759 1140904198
REM
CELL 1.54180   50.00000   50.00000   50.00000   90.00000   90.00000   90.00000
LATT -1
SFAC C  
C      1  0.4568240000000  0.5257810000000  0.5519180000000 1.0
C      1  0.5257810000000  0.5431760000000  0.5519180000000 1.0
C      1  0.5431760000000  0.4742190000000  0.5519180000000 1.0
C      1  0.4742190000000  0.4568240000000  0.5519180000000 1.0
C      1  0.4568240000000  0.4742190000000  0.4503630000000 1.0
C      1  0.5257810000000  0.4568240000000  0.4503630000000 1.0
C      1  0.5431760000000  0.5257810000000  0.4503630000000 1.0
C      1  0.4742190000000  0.5431760000000  0.4503630000000 1.0
C      1  0.5169630000000  0.5648910000000  0.4748420000000 1.0
C      1  0.5648910000000  0.4830370000000  0.4748420000000 1.0
C      1  0.4830370000000  0.4351090000000  0.4748420000000 1.0
C      1  0.4351090000000  0.5169630000000  0.4748420000000 1.0
C      1  0.5169630000000  0.4351090000000  0.5274390000000 1.0
C      1  0.5648910000000  0.5169630000000  0.5274390000000 1.0
C      1  0.4830370000000  0.5648910000000  0.5274390000000 1.0
C      1  0.4351090000000  0.4830370000000  0.5274390000000 1.0
C      1  0.5108060000000  0.4794010000000  0.4368760000000 1.0
C      1  0.4794010000000  0.4891940000000  0.4368760000000 1.0
C      1  0.4891940000000  0.5205990000000  0.4368760000000 1.0
C      1  0.5205990000000  0.5108060000000  0.4368760000000 1.0
C      1  0.5108060000000  0.5205990000000  0.5654050000000 1.0
C      1  0.4794010000000  0.5108060000000  0.5654050000000 1.0
C      1  0.4891940000000  0.4794010000000  0.5654050000000 1.0
C      1  0.5205990000000  0.4891940000000  0.5654050000000 1.0
C      1  0.4839090000000  0.4847040000000  0.5221320000000 1.0
C      1  0.4847040000000  0.5160910000000  0.5221320000000 1.0
C      1  0.5160910000000  0.5152950000000  0.5221320000000 1.0
C      1  0.5152960000000  0.4839090000000  0.5221320000000 1.0
C      1  0.4839090000000  0.5152960000000  0.4801480000000 1.0
C      1  0.4847050000000  0.4839090000000  0.4801480000000 1.0
C      1  0.5160910000000  0.4847040000000  0.4801480000000 1.0
C      1  0.5152950000000  0.5160910000000  0.4801480000000 1.0
C      1  0.4739950000000  0.5598050000000  0.4989860000000 1.0
C      1  0.5598050000000  0.5260050000000  0.4989860000000 1.0
C      1  0.5260050000000  0.4401950000000  0.4989860000000 1.0
C      1  0.4401950000000  0.4739960000000  0.4989860000000 1.0
C      1  0.4739950000000  0.4401950000000  0.5032950000000 1.0
C      1  0.5598050000000  0.4739950000000  0.5032950000000 1.0
C      1  0.5260040000000  0.5598050000000  0.5032950000000 1.0
C      1  0.4401950000000  0.5260050000000  0.5032950000000 1.0
C      1  0.4641350000000  0.5547330000000  0.5482160000000 1.0
C      1  0.5547330000000  0.5358650000000  0.5482160000000 1.0
C      1  0.5358650000000  0.4452670000000  0.5482160000000 1.0
C      1  0.4452670000000  0.4641350000000  0.5482160000000 1.0
C      1  0.4641350000000  0.4452670000000  0.4540650000000 1.0
C      1  0.5547330000000  0.4641350000000  0.4540650000000 1.0
C      1  0.5358650000000  0.5547330000000  0.4540650000000 1.0
C      1  0.4452670000000  0.5358650000000  0.4540650000000 1.0
C      1  0.4382820000000  0.4875480000000  0.4718600000000 1.0
C      1  0.4875480000000  0.5617180000000  0.4718600000000 1.0
C      1  0.5617180000000  0.5124520000000  0.4718600000000 1.0
C      1  0.5124520000000  0.4382820000000  0.4718600000000 1.0
C      1  0.4382820000000  0.5124520000000  0.5304200000000 1.0
C      1  0.4875480000000  0.4382820000000  0.5304200000000 1.0
C      1  0.5617180000000  0.4875480000000  0.5304200000000 1.0
C      1  0.5124520000000  0.5617180000000  0.5304200000000 1.0
C      1  0.5311240000000  0.4688760000000  0.5011400000000 1.0
C      1  0.4688760000000  0.4688760000000  0.5011400000000 1.0
C      1  0.4688760000000  0.5311240000000  0.5011400000000 1.0
C      1  0.5311240000000  0.5311240000000  0.5011400000000 1.0
END
