TITL C-3985254-1270-1870 -1.420559699016e-07 125000 -336.466407731079 0 0 60 (C3) n - 1
REM
REM in /home/nfs/bkarasulu/CARBON/AIRSS/Generating-Clusters/TERSOFF/Higher-Symm/Only-C60
REM
REM
REM
REM
REM
REM ./C.cell (28575a23ae977d3b5fae324c64b13b57)
REM
REM compiler GCC version 9.2.1 20190827 (Red Hat 9.2.1-1)
REM options -cpp -mtune=generic -march=x86-64 -g -O0 -fpre-include=/usr/include/finclude/math-vector-fortran.h
REM seed 2141732981 -222469002 60003060 -918356195 1559411247 592856344 1114438407 -1608332666 1320361037 -1117115899 -491892668 -1510838624 1746085234 1815013212 875633124 -507338373 1499431761 -208365590 146193639 1018809964 674252193 1955028270 1442657666 -1883715603 1805281665 1798726130 1886978752 2129344014 -945912644 1833533201 -1747004504 -1795923482 1190277751
REM
CELL 1.54180   50.00000   50.00000   50.00000   90.00000   90.00000   90.00000
LATT -1
SFAC C  
C      1  0.4695520000000  0.4851770000000  0.4262100000000 1.0
C      1  0.4695600000000  0.4435070000000  0.5497330000000 1.0
C      1  0.4695540000000  0.5713180000000  0.5240590000000 1.0
C      1  0.4695520000000  0.5148230000000  0.4262100000000 1.0
C      1  0.4695600000000  0.5564930000000  0.5497330000000 1.0
C      1  0.4695540000000  0.4286820000000  0.5240590000000 1.0
C      1  0.5237020000000  0.4854570000000  0.5784300000000 1.0
C      1  0.5236950000000  0.5751940000000  0.4733790000000 1.0
C      1  0.5236940000000  0.4393490000000  0.4481900000000 1.0
C      1  0.5237020000000  0.5145430000000  0.5784300000000 1.0
C      1  0.5236950000000  0.4248060000000  0.4733790000000 1.0
C      1  0.5236940000000  0.5606510000000  0.4481900000000 1.0
C      1  0.5044760000000  0.5180280000000  0.4204550000000 1.0
C      1  0.5044800000000  0.4220980000000  0.5241600000000 1.0
C      1  0.5044830000000  0.5598740000000  0.5553850000000 1.0
C      1  0.5044760000000  0.4819720000000  0.4204550000000 1.0
C      1  0.5044800000000  0.5779020000000  0.5241600000000 1.0
C      1  0.5044830000000  0.4401260000000  0.5553850000000 1.0
C      1  0.4585160000000  0.5285510000000  0.5494760000000 1.0
C      1  0.4585090000000  0.5285710000000  0.4505390000000 1.0
C      1  0.4585100000000  0.4428780000000  0.4999900000000 1.0
C      1  0.4585160000000  0.4714490000000  0.5494760000000 1.0
C      1  0.4585090000000  0.4714290000000  0.4505390000000 1.0
C      1  0.4585100000000  0.5571220000000  0.4999900000000 1.0
C      1  0.5489630000000  0.5518950000000  0.5121920000000 1.0
C      1  0.5489600000000  0.4846140000000  0.4489600000000 1.0
C      1  0.5489660000000  0.4634920000000  0.5388410000000 1.0
C      1  0.5489630000000  0.4481050000000  0.5121920000000 1.0
C      1  0.5489600000000  0.5153860000000  0.4489600000000 1.0
C      1  0.5489660000000  0.5365080000000  0.5388410000000 1.0
C      1  0.5370100000000  0.5566240000000  0.5581700000000 1.0
C      1  0.5370030000000  0.5220670000000  0.4218750000000 1.0
C      1  0.5370070000000  0.4213090000000  0.5199490000000 1.0
C      1  0.5370100000000  0.4433760000000  0.5581700000000 1.0
C      1  0.5370030000000  0.4779330000000  0.4218750000000 1.0
C      1  0.5370070000000  0.5786920000000  0.5199490000000 1.0
C      1  0.4812610000000  0.5578600000000  0.4827530000000 1.0
C      1  0.4812610000000  0.4561330000000  0.4585170000000 1.0
C      1  0.4812670000000  0.4860070000000  0.5587330000000 1.0
C      1  0.4812610000000  0.4421400000000  0.4827530000000 1.0
C      1  0.4812600000000  0.5438670000000  0.4585170000000 1.0
C      1  0.4812670000000  0.5139930000000  0.5587330000000 1.0
C      1  0.5242690000000  0.4843260000000  0.5298380000000 1.0
C      1  0.5242660000000  0.5336780000000  0.4986530000000 1.0
C      1  0.5242650000000  0.4819960000000  0.4715060000000 1.0
C      1  0.5242690000000  0.5156740000000  0.5298380000000 1.0
C      1  0.5242660000000  0.4663220000000  0.4986530000000 1.0
C      1  0.5242650000000  0.5180040000000  0.4715060000000 1.0
C      1  0.4449380000000  0.5153120000000  0.5259630000000 1.0
C      1  0.4449340000000  0.5148260000000  0.4737620000000 1.0
C      1  0.4449350000000  0.4698620000000  0.5002830000000 1.0
C      1  0.4449380000000  0.4846880000000  0.5259630000000 1.0
C      1  0.4449340000000  0.4851740000000  0.4737620000000 1.0
C      1  0.4449350000000  0.5301380000000  0.5002830000000 1.0
C      1  0.5073200000000  0.5621650000000  0.4953530000000 1.0
C      1  0.5073190000000  0.4648930000000  0.4484870000000 1.0
C      1  0.5073250000000  0.4729430000000  0.5561610000000 1.0
C      1  0.5073200000000  0.4378350000000  0.4953530000000 1.0
C      1  0.5073190000000  0.5351070000000  0.4484870000000 1.0
C      1  0.5073250000000  0.5270570000000  0.5561610000000 1.0
END
