TITL C-3985250-725-482 -0.00206302565948952 125000 -290.484761492419 0 0 60 (C3) n - 1
REM
REM in /home/nfs/bkarasulu/CARBON/AIRSS/Generating-Clusters/TERSOFF/Higher-Symm/Only-C60
REM
REM
REM
REM
REM
REM ./C.cell (28575a23ae977d3b5fae324c64b13b57)
REM
REM compiler GCC version 9.2.1 20190827 (Red Hat 9.2.1-1)
REM options -cpp -mtune=generic -march=x86-64 -g -O0 -fpre-include=/usr/include/finclude/math-vector-fortran.h
REM seed -120758327 -1807001591 -834664498 -939713128 267246497 -2112492061 -894912622 187755748 -1130083023 1032526184 -843887390 2140659346 -1862872056 -551704 -46487708 -19211049 -1565370341 -1675117006 -573824203 -891138210 -489737141 1609403605 52618526 1874426629 -1890579722 -780275591 -1894872403 -1989736177 -1441629791 -1247293173 1111118684 -370799271 -630866073
REM
CELL 1.54180   50.00000   50.00000   50.00000   90.00000   90.00000   90.00000
LATT -1
SFAC C  
C      1  0.5579840000000  0.4692920000000  0.5367830000000 1.0
C      1  0.5579830000000  0.4834980000000  0.4550260000000 1.0
C      1  0.5579820000000  0.5472040000000  0.5082010000000 1.0
C      1  0.4821580000000  0.4955930000000  0.5207920000000 1.0
C      1  0.4821920000000  0.4841780000000  0.4857610000000 1.0
C      1  0.4821760000000  0.5202240000000  0.4934090000000 1.0
C      1  0.5209570000000  0.5503150000000  0.5381570000000 1.0
C      1  0.5209480000000  0.4418010000000  0.5244850000000 1.0
C      1  0.5209540000000  0.5078900000000  0.4373550000000 1.0
C      1  0.4964090000000  0.4178120000000  0.4910310000000 1.0
C      1  0.4964120000000  0.5488600000000  0.4333030000000 1.0
C      1  0.4964070000000  0.5333230000000  0.5756590000000 1.0
C      1  0.5269510000000  0.4764760000000  0.5522890000000 1.0
C      1  0.5269150000000  0.4664990000000  0.4535480000000 1.0
C      1  0.5269340000000  0.5570130000000  0.4942170000000 1.0
C      1  0.5728310000000  0.4848870000000  0.4849850000000 1.0
C      1  0.5728300000000  0.5205570000000  0.4944160000000 1.0
C      1  0.5728250000000  0.4945590000000  0.5205970000000 1.0
C      1  0.4958490000000  0.4887020000000  0.5503550000000 1.0
C      1  0.4958600000000  0.4620570000000  0.4654130000000 1.0
C      1  0.4958620000000  0.5490720000000  0.4845160000000 1.0
C      1  0.4405760000000  0.5116240000000  0.4648190000000 1.0
C      1  0.4406250000000  0.5244230000000  0.5277850000000 1.0
C      1  0.4405270000000  0.4636880000000  0.5077420000000 1.0
C      1  0.4690000000000  0.4487350000000  0.5378290000000 1.0
C      1  0.4690020000000  0.4929090000000  0.4366990000000 1.0
C      1  0.4689900000000  0.5583890000000  0.5255040000000 1.0
C      1  0.4825480000000  0.5591030000000  0.4599380000000 1.0
C      1  0.4825780000000  0.5051120000000  0.5711840000000 1.0
C      1  0.4825440000000  0.4357040000000  0.4688450000000 1.0
C      1  0.4868290000000  0.4752000000000  0.4225230000000 1.0
C      1  0.4868290000000  0.5794940000000  0.5172580000000 1.0
C      1  0.4868240000000  0.4453120000000  0.5602160000000 1.0
C      1  0.4785700000000  0.4384330000000  0.5104240000000 1.0
C      1  0.4785560000000  0.5217440000000  0.4414690000000 1.0
C      1  0.4785650000000  0.5398090000000  0.5481110000000 1.0
C      1  0.5484410000000  0.5101720000000  0.5345260000000 1.0
C      1  0.5484680000000  0.4649950000000  0.4915470000000 1.0
C      1  0.5484590000000  0.5248220000000  0.4739090000000 1.0
C      1  0.4564920000000  0.5385450000000  0.5059350000000 1.0
C      1  0.4565600000000  0.4756510000000  0.5305340000000 1.0
C      1  0.4565000000000  0.4858390000000  0.4635980000000 1.0
C      1  0.4427430000000  0.5500110000000  0.4831160000000 1.0
C      1  0.4427290000000  0.4898570000000  0.5515670000000 1.0
C      1  0.4428020000000  0.4602450000000  0.4648770000000 1.0
C      1  0.5235600000000  0.5213610000000  0.4994890000000 1.0
C      1  0.5235410000000  0.4897470000000  0.5187770000000 1.0
C      1  0.5235600000000  0.4889170000000  0.4818060000000 1.0
C      1  0.4522790000000  0.5183240000000  0.5572860000000 1.0
C      1  0.4521810000000  0.4413420000000  0.4872000000000 1.0
C      1  0.4522620000000  0.5404400000000  0.4555150000000 1.0
C      1  0.5152260000000  0.4470510000000  0.5541440000000 1.0
C      1  0.5152330000000  0.4795850000000  0.4270750000000 1.0
C      1  0.5152310000000  0.5733670000000  0.5187800000000 1.0
C      1  0.5480160000000  0.5107270000000  0.4482370000000 1.0
C      1  0.5480140000000  0.5394660000000  0.5351690000000 1.0
C      1  0.5480120000000  0.4498120000000  0.5165960000000 1.0
C      1  0.5025780000000  0.5253140000000  0.5291020000000 1.0
C      1  0.5025560000000  0.4621830000000  0.5069010000000 1.0
C      1  0.5025720000000  0.5127360000000  0.4636690000000 1.0
END
