TITL C-3985254-1270-1909 -1.28411196896657e-08 125000 -354.892782442206 0 0 60 (D2h) n - 1
REM
REM in /home/nfs/bkarasulu/CARBON/AIRSS/Generating-Clusters/TERSOFF/Higher-Symm/Only-C60
REM
REM
REM
REM
REM
REM ./C.cell (28575a23ae977d3b5fae324c64b13b57)
REM
REM compiler GCC version 9.2.1 20190827 (Red Hat 9.2.1-1)
REM options -cpp -mtune=generic -march=x86-64 -g -O0 -fpre-include=/usr/include/finclude/math-vector-fortran.h
REM seed -1845894856 -650302628 2060511525 -2084697084 -321251948 272120071 420888255 1841705723 662427568 -655513884 -1222174443 -610452143 -768419992 -821204785 -943905257 -111022862 -58076117 1869266294 1014596783 932443237 1308272885 871333740 -1834716841 -757662087 -861276051 -669118235 -775084309 1698816113 -2037885853 1879983214 857561187 -1574296801 1553732219
REM
CELL 1.54180   50.00000   50.00000   50.00000   90.00000   90.00000   90.00000
LATT -1
SFAC C  
C      1  0.5755090000000  0.5295480000000  0.4851630000000 1.0
C      1  0.4244910000000  0.5295480000000  0.5148370000000 1.0
C      1  0.5755080000000  0.4704510000000  0.4851630000000 1.0
C      1  0.4244920000000  0.4704510000000  0.5148370000000 1.0
C      1  0.4244920000000  0.5295490000000  0.4851630000000 1.0
C      1  0.5755080000000  0.5295490000000  0.5148370000000 1.0
C      1  0.4244910000000  0.4704520000000  0.4851630000000 1.0
C      1  0.5755090000000  0.4704520000000  0.5148370000000 1.0
C      1  0.5309850000000  0.5294680000000  0.4570000000000 1.0
C      1  0.4690150000000  0.5294680000000  0.5430000000000 1.0
C      1  0.5309850000000  0.4705320000000  0.4570000000000 1.0
C      1  0.4690150000000  0.4705320000000  0.5430000000000 1.0
C      1  0.4690150000000  0.5294680000000  0.4570000000000 1.0
C      1  0.5309850000000  0.5294680000000  0.5430000000000 1.0
C      1  0.4690150000000  0.4705320000000  0.4570000000000 1.0
C      1  0.5309850000000  0.4705320000000  0.5430000000000 1.0
C      1  0.4435200000000  0.4851070000000  0.5319650000000 1.0
C      1  0.5564800000000  0.4851070000000  0.4680350000000 1.0
C      1  0.4435200000000  0.5148920000000  0.5319650000000 1.0
C      1  0.5564800000000  0.5148920000000  0.4680350000000 1.0
C      1  0.5564800000000  0.4851080000000  0.5319650000000 1.0
C      1  0.4435200000000  0.4851080000000  0.4680350000000 1.0
C      1  0.5564800000000  0.5148930000000  0.5319650000000 1.0
C      1  0.4435200000000  0.5148930000000  0.4680350000000 1.0
C      1  0.4699030000000  0.5587860000000  0.5438200000000 1.0
C      1  0.5300970000000  0.5587860000000  0.4561800000000 1.0
C      1  0.4699040000000  0.4412140000000  0.5438200000000 1.0
C      1  0.5300960000000  0.4412140000000  0.4561800000000 1.0
C      1  0.5300960000000  0.5587860000000  0.5438200000000 1.0
C      1  0.4699040000000  0.5587860000000  0.4561800000000 1.0
C      1  0.5300970000000  0.4412140000000  0.5438200000000 1.0
C      1  0.4699030000000  0.4412140000000  0.4561800000000 1.0
C      1  0.5154640000000  0.4841290000000  0.5208220000000 1.0
C      1  0.4845360000000  0.4841290000000  0.4791780000000 1.0
C      1  0.5154630000000  0.5158710000000  0.5208230000000 1.0
C      1  0.4845370000000  0.5158710000000  0.4791770000000 1.0
C      1  0.4845370000000  0.4841290000000  0.5208230000000 1.0
C      1  0.5154630000000  0.4841290000000  0.4791770000000 1.0
C      1  0.4845360000000  0.5158710000000  0.5208220000000 1.0
C      1  0.5154640000000  0.5158710000000  0.4791780000000 1.0
C      1  0.5149080000000  0.5753640000000  0.4745900000000 1.0
C      1  0.4850920000000  0.5753640000000  0.5254100000000 1.0
C      1  0.5149080000000  0.4246360000000  0.4745890000000 1.0
C      1  0.4850920000000  0.4246360000000  0.5254110000000 1.0
C      1  0.4850920000000  0.5753640000000  0.4745890000000 1.0
C      1  0.5149070000000  0.5753640000000  0.5254110000000 1.0
C      1  0.4850920000000  0.4246360000000  0.4745900000000 1.0
C      1  0.5149080000000  0.4246360000000  0.5254100000000 1.0
C      1  0.5163470000000  0.4842090000000  0.5660450000000 1.0
C      1  0.4836530000000  0.4842090000000  0.4339550000000 1.0
C      1  0.5163460000000  0.5157900000000  0.5660450000000 1.0
C      1  0.4836540000000  0.5157910000000  0.4339550000000 1.0
C      1  0.4836540000000  0.4842090000000  0.5660450000000 1.0
C      1  0.5163460000000  0.4842090000000  0.4339550000000 1.0
C      1  0.4836530000000  0.5157910000000  0.5660450000000 1.0
C      1  0.5163470000000  0.5157910000000  0.4339550000000 1.0
C      1  0.4730940000000  0.5827540000000  0.5000000000000 1.0
C      1  0.5269060000000  0.4172460000000  0.5000000000000 1.0
C      1  0.5269060000000  0.5827540000000  0.5000000000000 1.0
C      1  0.4730940000000  0.4172460000000  0.5000000000000 1.0
END
