TITL C-3985254-1270-1234 -0.00375727041922302 125000 -328.365142012161 0 0 60 (Ci) n - 1
REM
REM in /home/nfs/bkarasulu/CARBON/AIRSS/Generating-Clusters/TERSOFF/Higher-Symm/Only-C60
REM
REM
REM
REM
REM
REM ./C.cell (28575a23ae977d3b5fae324c64b13b57)
REM
REM compiler GCC version 9.2.1 20190827 (Red Hat 9.2.1-1)
REM options -cpp -mtune=generic -march=x86-64 -g -O0 -fpre-include=/usr/include/finclude/math-vector-fortran.h
REM seed 578106022 -1199729825 384907963 783962850 1483724792 2026490007 43324902 -1524691896 1440796280 943794582 -1369643787 -1066612971 451157856 1008938122 -1292662949 677001851 683979420 -522457973 790047555 127360840 -1851327646 -1442591522 234027853 -351818414 522681001 134526747 -526115172 -938754054 -1552167086 1408094799 2141608305 -2141946958 673684378
REM
CELL 1.54180   50.00000   50.00000   50.00000   90.00000   90.00000   90.00000
LATT -1
SFAC C  
C      1  0.5329990000000  0.5222180000000  0.5317100000000 1.0
C      1  0.4670010000000  0.4777830000000  0.4682900000000 1.0
C      1  0.5671870000000  0.4754010000000  0.5166550000000 1.0
C      1  0.4328050000000  0.5245760000000  0.4833520000000 1.0
C      1  0.4961210000000  0.5620910000000  0.5447350000000 1.0
C      1  0.5038800000000  0.4379080000000  0.4552650000000 1.0
C      1  0.4942470000000  0.4680330000000  0.4620370000000 1.0
C      1  0.5057530000000  0.5319670000000  0.5379620000000 1.0
C      1  0.4429460000000  0.5372760000000  0.5583050000000 1.0
C      1  0.5570550000000  0.4627240000000  0.4416950000000 1.0
C      1  0.4722880000000  0.5441920000000  0.5637420000000 1.0
C      1  0.5277130000000  0.4558080000000  0.4362590000000 1.0
C      1  0.4511840000000  0.4934370000000  0.4459590000000 1.0
C      1  0.5488150000000  0.5065590000000  0.5540330000000 1.0
C      1  0.5141400000000  0.4852240000000  0.4430800000000 1.0
C      1  0.4858600000000  0.5147760000000  0.5569200000000 1.0
C      1  0.4990440000000  0.4693950000000  0.5545620000000 1.0
C      1  0.5009540000000  0.5306050000000  0.4454380000000 1.0
C      1  0.4169070000000  0.4999470000000  0.5013510000000 1.0
C      1  0.5830970000000  0.5000710000000  0.4986500000000 1.0
C      1  0.5101980000000  0.5669600000000  0.4908970000000 1.0
C      1  0.4898010000000  0.4330390000000  0.5091030000000 1.0
C      1  0.4136910000000  0.5047580000000  0.5301550000000 1.0
C      1  0.5863060000000  0.4952450000000  0.4698390000000 1.0
C      1  0.4370220000000  0.5102040000000  0.5466490000000 1.0
C      1  0.5629780000000  0.4897980000000  0.4533400000000 1.0
C      1  0.4991870000000  0.4930390000000  0.5727490000000 1.0
C      1  0.5008130000000  0.5069610000000  0.4272510000000 1.0
C      1  0.5378680000000  0.4250950000000  0.5001710000000 1.0
C      1  0.4621370000000  0.5749140000000  0.4998300000000 1.0
C      1  0.4833870000000  0.5509900000000  0.4874610000000 1.0
C      1  0.5166430000000  0.4490190000000  0.5125210000000 1.0
C      1  0.5477140000000  0.5359680000000  0.5088070000000 1.0
C      1  0.4522880000000  0.4640240000000  0.4911940000000 1.0
C      1  0.5231790000000  0.4658220000000  0.5374460000000 1.0
C      1  0.4768190000000  0.5341770000000  0.4625540000000 1.0
C      1  0.4248050000000  0.4724760000000  0.4948690000000 1.0
C      1  0.5751960000000  0.5275150000000  0.5051320000000 1.0
C      1  0.5321180000000  0.5475280000000  0.4857130000000 1.0
C      1  0.4678830000000  0.4524720000000  0.5142870000000 1.0
C      1  0.4638770000000  0.4981250000000  0.5383650000000 1.0
C      1  0.5361250000000  0.5018750000000  0.4616330000000 1.0
C      1  0.4742830000000  0.5079660000000  0.5114410000000 1.0
C      1  0.5257200000000  0.4920350000000  0.4885600000000 1.0
C      1  0.5358470000000  0.4939300000000  0.5160130000000 1.0
C      1  0.4641540000000  0.5060720000000  0.4839900000000 1.0
C      1  0.4929380000000  0.5774220000000  0.5185230000000 1.0
C      1  0.5070600000000  0.4225670000000  0.4814640000000 1.0
C      1  0.4351020000000  0.5366240000000  0.5132940000000 1.0
C      1  0.5648770000000  0.4633640000000  0.4867050000000 1.0
C      1  0.5155110000000  0.4659430000000  0.4844080000000 1.0
C      1  0.4844900000000  0.5340570000000  0.5155930000000 1.0
C      1  0.5573230000000  0.4414080000000  0.5216500000000 1.0
C      1  0.4426840000000  0.5586060000000  0.4783520000000 1.0
C      1  0.5412150000000  0.4486420000000  0.4784620000000 1.0
C      1  0.4587690000000  0.5513680000000  0.5215750000000 1.0
C      1  0.4715680000000  0.4688450000000  0.5394770000000 1.0
C      1  0.5284310000000  0.5311550000000  0.4605230000000 1.0
C      1  0.5539490000000  0.4764400000000  0.5496250000000 1.0
C      1  0.4460500000000  0.5235580000000  0.4503790000000 1.0
END
