TITL C-3985254-1270-1988 -0.000566123000060879 125000 -310.782490839439 0 0 60 (Ci) n - 1
REM
REM in /home/nfs/bkarasulu/CARBON/AIRSS/Generating-Clusters/TERSOFF/Higher-Symm/Only-C60
REM
REM
REM
REM
REM
REM ./C.cell (28575a23ae977d3b5fae324c64b13b57)
REM
REM compiler GCC version 9.2.1 20190827 (Red Hat 9.2.1-1)
REM options -cpp -mtune=generic -march=x86-64 -g -O0 -fpre-include=/usr/include/finclude/math-vector-fortran.h
REM seed 1207318476 1717043812 1370761143 -1449977868 -1197034142 -1898159464 -1537626029 -643119193 -1486659721 -396952149 -967167244 1026111398 -1852509451 571539734 1192889812 564423892 2081575534 -1524952686 130674013 2097573288 799357648 -259143576 1592839507 -1191766643 1497116659 -198850642 1167261825 -1668542666 -2047104842 1935022936 -89673589 871329651 268897740
REM
CELL 1.54180   50.00000   50.00000   50.00000   90.00000   90.00000   90.00000
LATT -1
SFAC C  
C      1  0.5013630000000  0.4575170000000  0.4574570000000 1.0
C      1  0.4981600000000  0.4437980000000  0.5147740000000 1.0
C      1  0.5010980000000  0.4851310000000  0.5576460000000 1.0
C      1  0.4986370000000  0.5424830000000  0.5425430000000 1.0
C      1  0.5018400000000  0.5562020000000  0.4852260000000 1.0
C      1  0.4989020000000  0.5148690000000  0.4423540000000 1.0
C      1  0.5365040000000  0.5199360000000  0.4603450000000 1.0
C      1  0.4623610000000  0.4729480000000  0.4585280000000 1.0
C      1  0.5361570000000  0.4548410000000  0.5006980000000 1.0
C      1  0.4634960000000  0.4800640000000  0.5396550000000 1.0
C      1  0.5376390000000  0.5270520000000  0.5414720000000 1.0
C      1  0.4638430000000  0.5451590000000  0.4993020000000 1.0
C      1  0.4855870000000  0.4333460000000  0.4709080000000 1.0
C      1  0.5144040000000  0.4436980000000  0.5423530000000 1.0
C      1  0.4852830000000  0.5084240000000  0.5722870000000 1.0
C      1  0.5144130000000  0.5666540000000  0.5290920000000 1.0
C      1  0.4855960000000  0.5563020000000  0.4576470000000 1.0
C      1  0.5147170000000  0.4915760000000  0.4277130000000 1.0
C      1  0.4482160000000  0.5183800000000  0.4626990000000 1.0
C      1  0.5535780000000  0.4745680000000  0.4608560000000 1.0
C      1  0.4486070000000  0.4571550000000  0.5023280000000 1.0
C      1  0.5517840000000  0.4816200000000  0.5373010000000 1.0
C      1  0.4464220000000  0.5254320000000  0.5391440000000 1.0
C      1  0.5513930000000  0.5428450000000  0.4976720000000 1.0
C      1  0.4602240000000  0.5445280000000  0.4708350000000 1.0
C      1  0.5407670000000  0.4962310000000  0.4436760000000 1.0
C      1  0.4589860000000  0.4484790000000  0.4743520000000 1.0
C      1  0.5397760000000  0.4554720000000  0.5291650000000 1.0
C      1  0.4592330000000  0.5037690000000  0.5563240000000 1.0
C      1  0.5410140000000  0.5515210000000  0.5256480000000 1.0
C      1  0.4944820000000  0.5063520000000  0.4720590000000 1.0
C      1  0.5063620000000  0.4794330000000  0.4791790000000 1.0
C      1  0.4947900000000  0.4738360000000  0.5068190000000 1.0
C      1  0.5055180000000  0.4936480000000  0.5279410000000 1.0
C      1  0.4936380000000  0.5205670000000  0.5208210000000 1.0
C      1  0.5052100000000  0.5261640000000  0.4931810000000 1.0
C      1  0.4669060000000  0.4415280000000  0.5233390000000 1.0
C      1  0.5323700000000  0.4922140000000  0.5642970000000 1.0
C      1  0.4672500000000  0.5516330000000  0.5406560000000 1.0
C      1  0.5330940000000  0.5584720000000  0.4766610000000 1.0
C      1  0.4676300000000  0.5077860000000  0.4357030000000 1.0
C      1  0.5327500000000  0.4483670000000  0.4593440000000 1.0
C      1  0.5158560000000  0.5250510000000  0.5658430000000 1.0
C      1  0.4840000000000  0.5673570000000  0.5120520000000 1.0
C      1  0.5166650000000  0.5430080000000  0.4482750000000 1.0
C      1  0.4841440000000  0.4749490000000  0.4341570000000 1.0
C      1  0.5160000000000  0.4326430000000  0.4879480000000 1.0
C      1  0.4833350000000  0.4569920000000  0.5517250000000 1.0
C      1  0.5358700000000  0.4812180000000  0.4853510000000 1.0
C      1  0.4645670000000  0.4857760000000  0.5072050000000 1.0
C      1  0.5342040000000  0.5034580000000  0.5239000000000 1.0
C      1  0.4641300000000  0.5187820000000  0.5146490000000 1.0
C      1  0.5354330000000  0.5142240000000  0.4927950000000 1.0
C      1  0.4657960000000  0.4965420000000  0.4761000000000 1.0
C      1  0.4228030000000  0.5121420000000  0.5180100000000 1.0
C      1  0.5765850000000  0.5207690000000  0.4977650000000 1.0
C      1  0.4238230000000  0.5090990000000  0.4817380000000 1.0
C      1  0.5771970000000  0.4878580000000  0.4819900000000 1.0
C      1  0.4234150000000  0.4792310000000  0.5022350000000 1.0
C      1  0.5761770000000  0.4909010000000  0.5182620000000 1.0
END
