TITL C-3985245-9316-606 3.91427694653348e-07 125000 -366.486577384154 0 0 60 (Td) n - 1
REM
REM in /home/nfs/bkarasulu/CARBON/AIRSS/Generating-Clusters/TERSOFF/Higher-Symm/Only-C60
REM
REM
REM
REM
REM
REM ./C.cell (28575a23ae977d3b5fae324c64b13b57)
REM
REM compiler GCC version 9.2.1 20190827 (Red Hat 9.2.1-1)
REM options -cpp -mtune=generic -march=x86-64 -g -O0 -fpre-include=/usr/include/finclude/math-vector-fortran.h
REM seed 1624595006 961596672 -701590507 577495937 1529620896 -1671894022 1638211365 -1706022819 -929428960 2080207195 711646478 -2022188222 -53173282 778513930 1828635535 -268367816 1264826106 -618680691 -1840140167 -380214421 816096650 -1765340612 839722506 -352805137 947267671 -1861363479 -348446950 250865733 -832947504 -513265560 1242004428 351948023 -223602211
REM
CELL 1.54180   50.00000   50.00000   50.00000   90.00000   90.00000   90.00000
LATT -1
SFAC C  
C      1  0.4869600000000  0.5337750000000  0.5706290000000 1.0
C      1  0.5706290000000  0.4869600000000  0.5337750000000 1.0
C      1  0.5337750000000  0.5706290000000  0.4869600000000 1.0
C      1  0.5130400000000  0.4662250000000  0.5706290000000 1.0
C      1  0.5130400000000  0.5337750000000  0.4293710000000 1.0
C      1  0.4869600000000  0.4662250000000  0.4293710000000 1.0
C      1  0.4293710000000  0.5130400000000  0.5337750000000 1.0
C      1  0.4293710000000  0.4869600000000  0.4662250000000 1.0
C      1  0.5706290000000  0.5130400000000  0.4662250000000 1.0
C      1  0.4662250000000  0.4293710000000  0.4869600000000 1.0
C      1  0.4662250000000  0.5706290000000  0.5130400000000 1.0
C      1  0.5337750000000  0.4293710000000  0.5130400000000 1.0
C      1  0.5337750000000  0.4869600000000  0.5706290000000 1.0
C      1  0.4869600000000  0.5706290000000  0.5337750000000 1.0
C      1  0.5706290000000  0.5337750000000  0.4869600000000 1.0
C      1  0.4662250000000  0.5130400000000  0.5706290000000 1.0
C      1  0.5337750000000  0.5130400000000  0.4293710000000 1.0
C      1  0.4662250000000  0.4869600000000  0.4293710000000 1.0
C      1  0.5130400000000  0.4293710000000  0.5337750000000 1.0
C      1  0.4869600000000  0.4293710000000  0.4662250000000 1.0
C      1  0.5130400000000  0.5706290000000  0.4662250000000 1.0
C      1  0.4293710000000  0.4662250000000  0.4869600000000 1.0
C      1  0.5706290000000  0.4662250000000  0.5130400000000 1.0
C      1  0.4293710000000  0.5337750000000  0.5130400000000 1.0
C      1  0.4477010000000  0.5109360000000  0.4684550000000 1.0
C      1  0.4684550000000  0.4477010000000  0.5109360000000 1.0
C      1  0.5109360000000  0.4684550000000  0.4477010000000 1.0
C      1  0.5522990000000  0.4890640000000  0.4684550000000 1.0
C      1  0.5522990000000  0.5109360000000  0.5315450000000 1.0
C      1  0.4477010000000  0.4890640000000  0.5315450000000 1.0
C      1  0.5315450000000  0.5522990000000  0.5109360000000 1.0
C      1  0.5315450000000  0.4477010000000  0.4890640000000 1.0
C      1  0.4684550000000  0.5522990000000  0.4890640000000 1.0
C      1  0.4890640000000  0.5315450000000  0.4477010000000 1.0
C      1  0.4890640000000  0.4684550000000  0.5522990000000 1.0
C      1  0.5109360000000  0.5315450000000  0.5522990000000 1.0
C      1  0.5109360000000  0.4477010000000  0.4684550000000 1.0
C      1  0.4477010000000  0.4684550000000  0.5109360000000 1.0
C      1  0.4684550000000  0.5109360000000  0.4477010000000 1.0
C      1  0.4890640000000  0.5522990000000  0.4684550000000 1.0
C      1  0.5109360000000  0.5522990000000  0.5315450000000 1.0
C      1  0.4890640000000  0.4477010000000  0.5315450000000 1.0
C      1  0.5522990000000  0.5315450000000  0.5109360000000 1.0
C      1  0.4477010000000  0.5315450000000  0.4890640000000 1.0
C      1  0.5522990000000  0.4684550000000  0.4890640000000 1.0
C      1  0.5315450000000  0.4890640000000  0.4477010000000 1.0
C      1  0.4684550000000  0.4890640000000  0.5522990000000 1.0
C      1  0.5315450000000  0.5109360000000  0.5522990000000 1.0
C      1  0.5619460000000  0.5213080000000  0.4380540000000 1.0
C      1  0.4380540000000  0.5619460000000  0.5213080000000 1.0
C      1  0.5213080000000  0.4380540000000  0.5619460000000 1.0
C      1  0.4380540000000  0.4786920000000  0.4380540000000 1.0
C      1  0.4380540000000  0.5213080000000  0.5619460000000 1.0
C      1  0.5619460000000  0.4786920000000  0.5619460000000 1.0
C      1  0.5619460000000  0.4380540000000  0.5213080000000 1.0
C      1  0.5619460000000  0.5619460000000  0.4786920000000 1.0
C      1  0.4380540000000  0.4380540000000  0.4786920000000 1.0
C      1  0.4786920000000  0.5619460000000  0.5619460000000 1.0
C      1  0.4786920000000  0.4380540000000  0.4380540000000 1.0
C      1  0.5213080000000  0.5619460000000  0.4380540000000 1.0
END
