TITL C-3985245-9316-1214 -0.00153381224578142 125000 -342.524342009993 0 0 60 (C3i) n - 1
REM
REM in /home/nfs/bkarasulu/CARBON/AIRSS/Generating-Clusters/TERSOFF/Higher-Symm/Only-C60
REM
REM
REM
REM
REM
REM ./C.cell (28575a23ae977d3b5fae324c64b13b57)
REM
REM compiler GCC version 9.2.1 20190827 (Red Hat 9.2.1-1)
REM options -cpp -mtune=generic -march=x86-64 -g -O0 -fpre-include=/usr/include/finclude/math-vector-fortran.h
REM seed -676942096 -1627959471 -916957652 814952867 -1079652155 1843967853 -2058763184 -1242498639 1864400486 1448619158 1233194046 -856517228 -1956693935 1716754411 -81841968 1143421283 1218372475 528557058 938699552 -96588990 1385081009 -1638635408 -97629765 -1510845353 -143909641 8780713 6503793 1187633422 -934145185 1509001609 -613235953 -120179184 -388945285
REM
CELL 1.54180   50.00000   50.00000   50.00000   90.00000   90.00000   90.00000
LATT -1
SFAC C  
C      1  0.4425890000000  0.4858260000000  0.4753390000000 1.0
C      1  0.4590190000000  0.5426330000000  0.5246620000000 1.0
C      1  0.5164310000000  0.5568070000000  0.4753370000000 1.0
C      1  0.5574110000000  0.5141740000000  0.5246610000000 1.0
C      1  0.5409810000000  0.4573670000000  0.4753380000000 1.0
C      1  0.4835690000000  0.4431930000000  0.5246630000000 1.0
C      1  0.4505270000000  0.5399390000000  0.4598350000000 1.0
C      1  0.5098530000000  0.5628150000000  0.5401660000000 1.0
C      1  0.5593240000000  0.5228750000000  0.4598350000000 1.0
C      1  0.5494730000000  0.4600610000000  0.5401650000000 1.0
C      1  0.4901470000000  0.4371850000000  0.4598340000000 1.0
C      1  0.4406760000000  0.4771250000000  0.5401650000000 1.0
C      1  0.4381820000000  0.5178880000000  0.4814930000000 1.0
C      1  0.4845830000000  0.5624740000000  0.5185060000000 1.0
C      1  0.5463960000000  0.5445900000000  0.4814930000000 1.0
C      1  0.5618180000000  0.4821120000000  0.5185070000000 1.0
C      1  0.5154170000000  0.4375260000000  0.4814940000000 1.0
C      1  0.4536040000000  0.4554100000000  0.5185070000000 1.0
C      1  0.5554960000000  0.5170460000000  0.5541280000000 1.0
C      1  0.5425100000000  0.4604620000000  0.4458720000000 1.0
C      1  0.4870150000000  0.4434160000000  0.5541290000000 1.0
C      1  0.4445040000000  0.4829540000000  0.4458720000000 1.0
C      1  0.4574900000000  0.5395380000000  0.5541280000000 1.0
C      1  0.5129850000000  0.5565840000000  0.4458710000000 1.0
C      1  0.4370560000000  0.5231520000000  0.5110040000000 1.0
C      1  0.4885780000000  0.5660870000000  0.4889960000000 1.0
C      1  0.5515240000000  0.5429370000000  0.5110030000000 1.0
C      1  0.5629440000000  0.4768480000000  0.4889960000000 1.0
C      1  0.5114220000000  0.4339130000000  0.5110040000000 1.0
C      1  0.4484760000000  0.4570630000000  0.4889970000000 1.0
C      1  0.5297880000000  0.5096720000000  0.4433180000000 1.0
C      1  0.5232700000000  0.4790390000000  0.5566820000000 1.0
C      1  0.4934820000000  0.4693680000000  0.4433190000000 1.0
C      1  0.4702120000000  0.4903280000000  0.5566820000000 1.0
C      1  0.4767300000000  0.5209610000000  0.4433180000000 1.0
C      1  0.5065180000000  0.5306320000000  0.5566810000000 1.0
C      1  0.4617180000000  0.4353740000000  0.4716660000000 1.0
C      1  0.4248880000000  0.5008400000000  0.5283350000000 1.0
C      1  0.4631720000000  0.5654690000000  0.4716650000000 1.0
C      1  0.5382820000000  0.5646260000000  0.5283340000000 1.0
C      1  0.5751120000000  0.4991600000000  0.4716650000000 1.0
C      1  0.5368280000000  0.4345310000000  0.5283350000000 1.0
C      1  0.4758260000000  0.4941800000000  0.5255820000000 1.0
C      1  0.4828730000000  0.5180250000000  0.4744180000000 1.0
C      1  0.5070450000000  0.5238460000000  0.5255830000000 1.0
C      1  0.5241740000000  0.5058200000000  0.4744180000000 1.0
C      1  0.5171270000000  0.4819750000000  0.5255820000000 1.0
C      1  0.4929550000000  0.4761540000000  0.4744170000000 1.0
C      1  0.4720010000000  0.4930870000000  0.4838140000000 1.0
C      1  0.4800120000000  0.5207940000000  0.5161850000000 1.0
C      1  0.5080150000000  0.5277070000000  0.4838130000000 1.0
C      1  0.5279990000000  0.5069130000000  0.5161860000000 1.0
C      1  0.5199880000000  0.4792060000000  0.4838150000000 1.0
C      1  0.4919850000000  0.4722930000000  0.5161870000000 1.0
C      1  0.5065510000000  0.5301470000000  0.4354830000000 1.0
C      1  0.5293840000000  0.5094000000000  0.5645170000000 1.0
C      1  0.5228330000000  0.4792540000000  0.4354830000000 1.0
C      1  0.4934490000000  0.4698530000000  0.5645170000000 1.0
C      1  0.4706160000000  0.4906000000000  0.4354830000000 1.0
C      1  0.4771670000000  0.5207460000000  0.5645170000000 1.0
END
