TITL C-3985246-2097-67 0.0359043530862908 125000 -292.538029829778 0 0 60 (C2) n - 1
REM
REM in /home/nfs/bkarasulu/CARBON/AIRSS/Generating-Clusters/TERSOFF/Higher-Symm/Only-C60
REM
REM
REM
REM
REM
REM ./C.cell (28575a23ae977d3b5fae324c64b13b57)
REM
REM compiler GCC version 9.2.1 20190827 (Red Hat 9.2.1-1)
REM options -cpp -mtune=generic -march=x86-64 -g -O0 -fpre-include=/usr/include/finclude/math-vector-fortran.h
REM seed 2035264416 -995709348 -909797908 -700251552 484642915 -746207970 -1546241707 9511612 573798275 1577121958 2009888537 -1306850503 -617041618 -594243398 1224234958 420116605 1692662701 -87184620 -840609502 2032728230 2069313076 -1541034610 -58809249 1932491698 -275365606 1693582586 -236803392 -2018287182 -329843564 2057612460 -278680813 -1157234458 -1686292614
REM
CELL 1.54180   50.00000   50.00000   50.00000   90.00000   90.00000   90.00000
LATT -1
SFAC C  
C      1  0.4421240000000  0.4767020000000  0.5526940000000 1.0
C      1  0.4421240000000  0.5232980000000  0.4473060000000 1.0
C      1  0.5221980000000  0.5147720000000  0.4666680000000 1.0
C      1  0.5221980000000  0.4852280000000  0.5333320000000 1.0
C      1  0.5280100000000  0.5370310000000  0.5503880000000 1.0
C      1  0.5280100000000  0.4629690000000  0.4496120000000 1.0
C      1  0.5006680000000  0.5256540000000  0.4864860000000 1.0
C      1  0.5006680000000  0.4743460000000  0.5135140000000 1.0
C      1  0.5269500000000  0.5062980000000  0.5131120000000 1.0
C      1  0.5269500000000  0.4937020000000  0.4868880000000 1.0
C      1  0.5122950000000  0.5262460000000  0.4191050000000 1.0
C      1  0.5122950000000  0.4737540000000  0.5808950000000 1.0
C      1  0.4499590000000  0.4942720000000  0.4431460000000 1.0
C      1  0.4499590000000  0.5057280000000  0.5568540000000 1.0
C      1  0.5150670000000  0.5666160000000  0.5103490000000 1.0
C      1  0.5150670000000  0.4333840000000  0.4896510000000 1.0
C      1  0.5022720000000  0.5228900000000  0.5154620000000 1.0
C      1  0.5022720000000  0.4771100000000  0.4845380000000 1.0
C      1  0.4497090000000  0.4749640000000  0.4686900000000 1.0
C      1  0.4497090000000  0.5250360000000  0.5313100000000 1.0
C      1  0.5682900000000  0.5110350000000  0.5343090000000 1.0
C      1  0.5682900000000  0.4889650000000  0.4656910000000 1.0
C      1  0.4300800000000  0.5285190000000  0.4746030000000 1.0
C      1  0.4300800000000  0.4714810000000  0.5253970000000 1.0
C      1  0.4937660000000  0.5599820000000  0.4634640000000 1.0
C      1  0.4937660000000  0.4400180000000  0.5365360000000 1.0
C      1  0.5414590000000  0.5508230000000  0.5045630000000 1.0
C      1  0.5414590000000  0.4491770000000  0.4954370000000 1.0
C      1  0.4828670000000  0.4850210000000  0.4372000000000 1.0
C      1  0.4828670000000  0.5149790000000  0.5628000000000 1.0
C      1  0.5512190000000  0.4642910000000  0.4689530000000 1.0
C      1  0.5512190000000  0.5357090000000  0.5310470000000 1.0
C      1  0.4902390000000  0.5676720000000  0.4927720000000 1.0
C      1  0.4902390000000  0.4323280000000  0.5072280000000 1.0
C      1  0.5057160000000  0.4517910000000  0.4668010000000 1.0
C      1  0.5057160000000  0.5482090000000  0.5331990000000 1.0
C      1  0.5324500000000  0.5045810000000  0.4162070000000 1.0
C      1  0.5324500000000  0.4954190000000  0.5837930000000 1.0
C      1  0.4874740000000  0.5187460000000  0.4327920000000 1.0
C      1  0.4874740000000  0.4812540000000  0.5672080000000 1.0
C      1  0.4675470000000  0.4434830000000  0.4901120000000 1.0
C      1  0.4675470000000  0.5565170000000  0.5098880000000 1.0
C      1  0.5230350000000  0.4445040000000  0.5428960000000 1.0
C      1  0.5230350000000  0.5554960000000  0.4571040000000 1.0
C      1  0.5671100000000  0.4902480000000  0.5143660000000 1.0
C      1  0.5671100000000  0.5097520000000  0.4856340000000 1.0
C      1  0.4494930000000  0.4667900000000  0.5016630000000 1.0
C      1  0.4494930000000  0.5332100000000  0.4983370000000 1.0
C      1  0.5453430000000  0.5370560000000  0.4773150000000 1.0
C      1  0.5453430000000  0.4629440000000  0.5226850000000 1.0
C      1  0.4752730000000  0.5080910000000  0.5220450000000 1.0
C      1  0.4752730000000  0.4919090000000  0.4779550000000 1.0
C      1  0.4724950000000  0.5219550000000  0.4787050000000 1.0
C      1  0.4724950000000  0.4780450000000  0.5212950000000 1.0
C      1  0.4755450000000  0.4547400000000  0.4566650000000 1.0
C      1  0.4755450000000  0.5452600000000  0.5433350000000 1.0
C      1  0.5188480000000  0.5101180000000  0.5594020000000 1.0
C      1  0.5188480000000  0.4898820000000  0.4405980000000 1.0
C      1  0.4724990000000  0.4626770000000  0.5496650000000 1.0
C      1  0.4724990000000  0.5373230000000  0.4503350000000 1.0
END
