TITL C-3985255-5397-51 -3.54555382477976e-06 125000 -328.977450381483 0 0 60 (C2) n - 1
REM
REM in /home/nfs/bkarasulu/CARBON/AIRSS/Generating-Clusters/TERSOFF/Higher-Symm/Only-C60
REM
REM
REM
REM
REM
REM ./C.cell (28575a23ae977d3b5fae324c64b13b57)
REM
REM compiler GCC version 9.2.1 20190827 (Red Hat 9.2.1-1)
REM options -cpp -mtune=generic -march=x86-64 -g -O0 -fpre-include=/usr/include/finclude/math-vector-fortran.h
REM seed -99766856 -1144208189 -2128267884 1174272201 1788956740 -741061763 -2145328578 917890473 -1342834150 -727480147 1194762050 -798434115 -1215532852 1969445583 1871383708 1333773723 770019673 9191577 -1599881176 -1176980949 -115539298 -965474002 -2076501610 -2137742001 -44722228 -588553529 -44735722 678346013 -1193359879 -152463330 1405114888 1195344506 -668517052
REM
CELL 1.54180   50.00000   50.00000   50.00000   90.00000   90.00000   90.00000
LATT -1
SFAC C  
C      1  0.4157820000000  0.5497490000000  0.5055600000000 1.0
C      1  0.5842180000000  0.4502510000000  0.5055600000000 1.0
C      1  0.4961200000000  0.5205970000000  0.4474820000000 1.0
C      1  0.5038800000000  0.4794030000000  0.4474820000000 1.0
C      1  0.5140610000000  0.5660710000000  0.5093550000000 1.0
C      1  0.4859390000000  0.4339290000000  0.5093560000000 1.0
C      1  0.4874280000000  0.5212410000000  0.4769480000000 1.0
C      1  0.5125720000000  0.4787590000000  0.4769480000000 1.0
C      1  0.5260070000000  0.5272290000000  0.4430670000000 1.0
C      1  0.4739930000000  0.4727710000000  0.4430670000000 1.0
C      1  0.4285900000000  0.4798190000000  0.5143670000000 1.0
C      1  0.5714100000000  0.5201810000000  0.5143670000000 1.0
C      1  0.5353370000000  0.5008750000000  0.4842920000000 1.0
C      1  0.4646630000000  0.4991250000000  0.4842920000000 1.0
C      1  0.5338400000000  0.4532920000000  0.5084740000000 1.0
C      1  0.4661600000000  0.5467080000000  0.5084730000000 1.0
C      1  0.5263470000000  0.5315360000000  0.4888580000000 1.0
C      1  0.4736530000000  0.4684640000000  0.4888590000000 1.0
C      1  0.5091200000000  0.4464770000000  0.4929300000000 1.0
C      1  0.4908800000000  0.5535230000000  0.4929300000000 1.0
C      1  0.4722600000000  0.5006130000000  0.5275480000000 1.0
C      1  0.5277400000000  0.4993870000000  0.5275480000000 1.0
C      1  0.4611170000000  0.5292950000000  0.5616490000000 1.0
C      1  0.5388830000000  0.4707050000000  0.5616490000000 1.0
C      1  0.4743470000000  0.5307440000000  0.4282630000000 1.0
C      1  0.5256520000000  0.4692560000000  0.4282630000000 1.0
C      1  0.4807880000000  0.4600810000000  0.5538900000000 1.0
C      1  0.5192120000000  0.5399200000000  0.5538890000000 1.0
C      1  0.4883490000000  0.5420640000000  0.5534500000000 1.0
C      1  0.5116510000000  0.4579360000000  0.5534510000000 1.0
C      1  0.4920300000000  0.5642550000000  0.4640010000000 1.0
C      1  0.5079700000000  0.4357440000000  0.4640010000000 1.0
C      1  0.4450860000000  0.5052900000000  0.5109710000000 1.0
C      1  0.5549140000000  0.4947100000000  0.5109710000000 1.0
C      1  0.5112230000000  0.5200980000000  0.5132990000000 1.0
C      1  0.4887770000000  0.4799020000000  0.5133000000000 1.0
C      1  0.5572130000000  0.4586630000000  0.4634850000000 1.0
C      1  0.4427870000000  0.5413370000000  0.4634840000000 1.0
C      1  0.5296560000000  0.5125210000000  0.5540410000000 1.0
C      1  0.4703450000000  0.4874800000000  0.5540420000000 1.0
C      1  0.4636800000000  0.5039790000000  0.5773140000000 1.0
C      1  0.5363200000000  0.4960220000000  0.5773140000000 1.0
C      1  0.5585110000000  0.4728940000000  0.5382810000000 1.0
C      1  0.4414890000000  0.5271070000000  0.5382810000000 1.0
C      1  0.5311470000000  0.4448190000000  0.4480670000000 1.0
C      1  0.4688530000000  0.5551810000000  0.4480660000000 1.0
C      1  0.5157630000000  0.4715210000000  0.5259420000000 1.0
C      1  0.4842370000000  0.5284800000000  0.5259420000000 1.0
C      1  0.5448530000000  0.5069000000000  0.4555660000000 1.0
C      1  0.4551470000000  0.4931000000000  0.4555660000000 1.0
C      1  0.4396210000000  0.4531720000000  0.5227830000000 1.0
C      1  0.5603790000000  0.5468290000000  0.5227820000000 1.0
C      1  0.5512690000000  0.4819620000000  0.4421070000000 1.0
C      1  0.4487310000000  0.5180380000000  0.4421070000000 1.0
C      1  0.5317840000000  0.5528640000000  0.5295840000000 1.0
C      1  0.4682160000000  0.4471360000000  0.5295840000000 1.0
C      1  0.4790930000000  0.4497340000000  0.4637960000000 1.0
C      1  0.5209070000000  0.5502650000000  0.4637950000000 1.0
C      1  0.4403990000000  0.5370830000000  0.4946310000000 1.0
C      1  0.5596010000000  0.4629170000000  0.4946310000000 1.0
END
