TITL C-3985251-913-328 3.24912273156656e-07 125000 -330.592014791366 0 0 60 (Td) n - 1
REM
REM in /home/nfs/bkarasulu/CARBON/AIRSS/Generating-Clusters/TERSOFF/Higher-Symm/Only-C60
REM
REM
REM
REM
REM
REM ./C.cell (28575a23ae977d3b5fae324c64b13b57)
REM
REM compiler GCC version 9.2.1 20190827 (Red Hat 9.2.1-1)
REM options -cpp -mtune=generic -march=x86-64 -g -O0 -fpre-include=/usr/include/finclude/math-vector-fortran.h
REM seed -1878560303 -420237199 1161656370 1381358408 -694308873 -1371351714 243577460 1262911873 1128774616 -1576692757 2121908518 289060367 1219012835 -675264198 -1630042156 -122675073 1236031541 -1574407710 999822901 -1897957866 -1350490214 1318367858 699704673 447317604 1546415801 441880333 -273657059 -158233868 -896475487 -1574637079 -1837418179 1352332747 -1586367022
REM
CELL 1.54180   50.00000   50.00000   50.00000   90.00000   90.00000   90.00000
LATT -1
SFAC C  
C      1  0.4894630000000  0.4482750000000  0.4688710000000 1.0
C      1  0.4482750000000  0.4688710000000  0.4894630000000 1.0
C      1  0.4688710000000  0.4894630000000  0.4482750000000 1.0
C      1  0.5105370000000  0.5517250000000  0.4688710000000 1.0
C      1  0.4894630000000  0.5517250000000  0.5311290000000 1.0
C      1  0.5105370000000  0.4482750000000  0.5311290000000 1.0
C      1  0.5517250000000  0.5311290000000  0.4894630000000 1.0
C      1  0.4482750000000  0.5311290000000  0.5105370000000 1.0
C      1  0.5517250000000  0.4688710000000  0.5105370000000 1.0
C      1  0.5311290000000  0.5105370000000  0.4482750000000 1.0
C      1  0.4688710000000  0.5105370000000  0.5517250000000 1.0
C      1  0.5311290000000  0.4894630000000  0.5517250000000 1.0
C      1  0.4482750000000  0.4894630000000  0.4688710000000 1.0
C      1  0.4688710000000  0.4482750000000  0.4894630000000 1.0
C      1  0.4894630000000  0.4688710000000  0.4482750000000 1.0
C      1  0.5517250000000  0.5105370000000  0.4688710000000 1.0
C      1  0.5517250000000  0.4894630000000  0.5311290000000 1.0
C      1  0.4482750000000  0.5105370000000  0.5311290000000 1.0
C      1  0.5311290000000  0.5517250000000  0.4894630000000 1.0
C      1  0.5311290000000  0.4482750000000  0.5105370000000 1.0
C      1  0.4688710000000  0.5517250000000  0.5105370000000 1.0
C      1  0.5105370000000  0.5311290000000  0.4482750000000 1.0
C      1  0.5105370000000  0.4688710000000  0.5517250000000 1.0
C      1  0.4894630000000  0.5311290000000  0.5517250000000 1.0
C      1  0.4240740000000  0.5299150000000  0.4929670000000 1.0
C      1  0.5299150000000  0.4929670000000  0.4240740000000 1.0
C      1  0.4929670000000  0.4240740000000  0.5299150000000 1.0
C      1  0.5759260000000  0.4700850000000  0.4929670000000 1.0
C      1  0.4240740000000  0.4700850000000  0.5070330000000 1.0
C      1  0.5759260000000  0.5299150000000  0.5070330000000 1.0
C      1  0.4700850000000  0.5070330000000  0.4240740000000 1.0
C      1  0.5299150000000  0.5070330000000  0.5759260000000 1.0
C      1  0.4700850000000  0.4929670000000  0.5759260000000 1.0
C      1  0.5070330000000  0.5759260000000  0.5299150000000 1.0
C      1  0.4929670000000  0.5759260000000  0.4700850000000 1.0
C      1  0.5070330000000  0.4240740000000  0.4700850000000 1.0
C      1  0.5299150000000  0.4240740000000  0.4929670000000 1.0
C      1  0.4929670000000  0.5299150000000  0.4240740000000 1.0
C      1  0.4240740000000  0.4929670000000  0.5299150000000 1.0
C      1  0.4700850000000  0.5759260000000  0.4929670000000 1.0
C      1  0.4700850000000  0.4240740000000  0.5070330000000 1.0
C      1  0.5299150000000  0.5759260000000  0.5070330000000 1.0
C      1  0.5070330000000  0.4700850000000  0.4240740000000 1.0
C      1  0.5070330000000  0.5299150000000  0.5759260000000 1.0
C      1  0.4929670000000  0.4700850000000  0.5759260000000 1.0
C      1  0.5759260000000  0.5070330000000  0.5299150000000 1.0
C      1  0.5759260000000  0.4929670000000  0.4700850000000 1.0
C      1  0.4240740000000  0.5070330000000  0.4700850000000 1.0
C      1  0.4884690000000  0.4032310000000  0.4884690000000 1.0
C      1  0.4032310000000  0.4884690000000  0.4884690000000 1.0
C      1  0.4884690000000  0.4884690000000  0.4032310000000 1.0
C      1  0.5115310000000  0.5967690000000  0.4884690000000 1.0
C      1  0.4884690000000  0.5967690000000  0.5115310000000 1.0
C      1  0.5115310000000  0.4032310000000  0.5115310000000 1.0
C      1  0.5967690000000  0.5115310000000  0.4884690000000 1.0
C      1  0.4032310000000  0.5115310000000  0.5115310000000 1.0
C      1  0.5967690000000  0.4884690000000  0.5115310000000 1.0
C      1  0.5115310000000  0.5115310000000  0.4032310000000 1.0
C      1  0.4884690000000  0.5115310000000  0.5967690000000 1.0
C      1  0.5115310000000  0.4884690000000  0.5967690000000 1.0
END
