TITL C-3985251-913-71 5.95842969322199e-07 125000 -316.489272073601 0 0 60 (D6h) n - 1
REM
REM in /home/nfs/bkarasulu/CARBON/AIRSS/Generating-Clusters/TERSOFF/Higher-Symm/Only-C60
REM
REM
REM
REM
REM
REM ./C.cell (28575a23ae977d3b5fae324c64b13b57)
REM
REM compiler GCC version 9.2.1 20190827 (Red Hat 9.2.1-1)
REM options -cpp -mtune=generic -march=x86-64 -g -O0 -fpre-include=/usr/include/finclude/math-vector-fortran.h
REM seed 1933475730 -319602451 1968504723 -543727704 2065880537 -1860095787 855519649 -1727786848 -1006271032 1941715557 -2102865681 -414813603 101812138 -1548508406 1201163402 1484364166 -2010693204 -1086775532 1623443953 1735649982 2141261600 94538104 -303637611 -1832485083 -595968054 2043383508 -373835775 -757969347 1538893376 -317443561 -558085420 -459668381 -1358203980
REM
CELL 1.54180   50.00000   50.00000   50.00000   90.00000   90.00000   90.00000
LATT -1
SFAC C  
C      1  0.5404070000000  0.4799700000000  0.5220840000000 1.0
C      1  0.5404070000000  0.4708590000000  0.4936960000000 1.0
C      1  0.5404070000000  0.4908890000000  0.4716110000000 1.0
C      1  0.5404070000000  0.5200300000000  0.4779160000000 1.0
C      1  0.5404070000000  0.5291410000000  0.5063040000000 1.0
C      1  0.5404070000000  0.5091110000000  0.5283890000000 1.0
C      1  0.4595930000000  0.4799700000000  0.5220840000000 1.0
C      1  0.4595930000000  0.4708590000000  0.4936960000000 1.0
C      1  0.4595930000000  0.4908890000000  0.4716110000000 1.0
C      1  0.4595930000000  0.5200300000000  0.4779160000000 1.0
C      1  0.4595930000000  0.5291410000000  0.5063040000000 1.0
C      1  0.4595930000000  0.5091110000000  0.5283890000000 1.0
C      1  0.5273400000000  0.4867210000000  0.5613800000000 1.0
C      1  0.5273400000000  0.4402040000000  0.5191900000000 1.0
C      1  0.5273400000000  0.4534830000000  0.4578100000000 1.0
C      1  0.5273400000000  0.5132790000000  0.4386200000000 1.0
C      1  0.5273400000000  0.5597960000000  0.4808100000000 1.0
C      1  0.5273400000000  0.5465170000000  0.5421900000000 1.0
C      1  0.4726600000000  0.4867210000000  0.5613800000000 1.0
C      1  0.4726600000000  0.4402040000000  0.5191900000000 1.0
C      1  0.4726600000000  0.4534830000000  0.4578100000000 1.0
C      1  0.4726600000000  0.5132790000000  0.4386200000000 1.0
C      1  0.4726600000000  0.5597960000000  0.4808100000000 1.0
C      1  0.4726600000000  0.5465170000000  0.5421900000000 1.0
C      1  0.5668450000000  0.5161200000000  0.5502300000000 1.0
C      1  0.5668450000000  0.4645600000000  0.5390750000000 1.0
C      1  0.5668450000000  0.4484400000000  0.4888450000000 1.0
C      1  0.5668450000000  0.4838800000000  0.4497700000000 1.0
C      1  0.5668450000000  0.5354400000000  0.4609250000000 1.0
C      1  0.5668450000000  0.5515600000000  0.5111550000000 1.0
C      1  0.4331550000000  0.5161200000000  0.5502300000000 1.0
C      1  0.4331550000000  0.4645600000000  0.5390750000000 1.0
C      1  0.4331550000000  0.4484400000000  0.4888450000000 1.0
C      1  0.4331550000000  0.4838800000000  0.4497700000000 1.0
C      1  0.4331550000000  0.5354400000000  0.4609250000000 1.0
C      1  0.4331550000000  0.5515600000000  0.5111550000000 1.0
C      1  0.4848190000000  0.4629870000000  0.5408090000000 1.0
C      1  0.4848190000000  0.4461510000000  0.4883500000000 1.0
C      1  0.4848190000000  0.4831650000000  0.4475410000000 1.0
C      1  0.4848190000000  0.5370130000000  0.4591910000000 1.0
C      1  0.4848190000000  0.5538490000000  0.5116500000000 1.0
C      1  0.4848190000000  0.5168350000000  0.5524590000000 1.0
C      1  0.5151810000000  0.4629870000000  0.5408090000000 1.0
C      1  0.5151810000000  0.4461510000000  0.4883500000000 1.0
C      1  0.5151810000000  0.4831650000000  0.4475410000000 1.0
C      1  0.5151810000000  0.5370130000000  0.4591910000000 1.0
C      1  0.5151810000000  0.5538490000000  0.5116500000000 1.0
C      1  0.5151810000000  0.5168350000000  0.5524590000000 1.0
C      1  0.5574600000000  0.4870660000000  0.5597860000000 1.0
C      1  0.5574600000000  0.4417570000000  0.5186920000000 1.0
C      1  0.5574600000000  0.4546910000000  0.4589060000000 1.0
C      1  0.5574600000000  0.5129340000000  0.4402140000000 1.0
C      1  0.5574600000000  0.5582430000000  0.4813080000000 1.0
C      1  0.5574600000000  0.5453090000000  0.5410940000000 1.0
C      1  0.4425400000000  0.4870660000000  0.5597860000000 1.0
C      1  0.4425400000000  0.4417570000000  0.5186920000000 1.0
C      1  0.4425400000000  0.4546910000000  0.4589060000000 1.0
C      1  0.4425400000000  0.5129340000000  0.4402140000000 1.0
C      1  0.4425400000000  0.5582430000000  0.4813080000000 1.0
C      1  0.4425400000000  0.5453090000000  0.5410940000000 1.0
END
