TITL C-3985245-9316-521 -1.16797562099711e-07 125000 -337.215899062397 0 0 60 (C1) n - 1
REM
REM in /home/nfs/bkarasulu/CARBON/AIRSS/Generating-Clusters/TERSOFF/Higher-Symm/Only-C60
REM
REM
REM
REM
REM
REM ./C.cell (28575a23ae977d3b5fae324c64b13b57)
REM
REM compiler GCC version 9.2.1 20190827 (Red Hat 9.2.1-1)
REM options -cpp -mtune=generic -march=x86-64 -g -O0 -fpre-include=/usr/include/finclude/math-vector-fortran.h
REM seed -194604489 -248678127 1311628743 -1979911737 -1462395353 366296965 -564879935 537807327 -1644719735 1254987434 -1577966050 -1892117660 1158428592 143290316 -499498546 -364162417 -1549543442 -306809007 36558432 1458147352 -523531239 467745832 2047394857 40067194 992561555 -569557497 -1206955400 1829108264 -554899982 -815476435 -1623735208 -387003825 -1326185923
REM
CELL 1.54180   50.00000   50.00000   50.00000   90.00000   90.00000   90.00000
LATT -1
SFAC C  
C      1  0.5334290000000  0.5361400000000  0.5712850000000 1.0
C      1  0.5275660000000  0.4650440000000  0.5708570000000 1.0
C      1  0.5268100000000  0.4189290000000  0.5139020000000 1.0
C      1  0.5392590000000  0.4318370000000  0.4425860000000 1.0
C      1  0.5348280000000  0.4962600000000  0.4197680000000 1.0
C      1  0.5200200000000  0.5619170000000  0.4489530000000 1.0
C      1  0.5339530000000  0.5833490000000  0.5188770000000 1.0
C      1  0.5151470000000  0.5549330000000  0.5572140000000 1.0
C      1  0.5125220000000  0.4914870000000  0.5748210000000 1.0
C      1  0.5107080000000  0.4346090000000  0.5337170000000 1.0
C      1  0.5219400000000  0.4227780000000  0.4638960000000 1.0
C      1  0.5155720000000  0.4738580000000  0.4273260000000 1.0
C      1  0.5160880000000  0.5365810000000  0.4357720000000 1.0
C      1  0.5157100000000  0.5817590000000  0.4960220000000 1.0
C      1  0.5343120000000  0.4315870000000  0.4897170000000 1.0
C      1  0.5410260000000  0.4605580000000  0.4409720000000 1.0
C      1  0.5378670000000  0.5178140000000  0.4380220000000 1.0
C      1  0.5302270000000  0.5638000000000  0.4760080000000 1.0
C      1  0.5365430000000  0.5587520000000  0.5339450000000 1.0
C      1  0.5342560000000  0.5091600000000  0.5625630000000 1.0
C      1  0.5322100000000  0.4544550000000  0.5442490000000 1.0
C      1  0.4869660000000  0.4952710000000  0.4284900000000 1.0
C      1  0.4934150000000  0.5439630000000  0.4794470000000 1.0
C      1  0.4876360000000  0.5736790000000  0.5085360000000 1.0
C      1  0.4847320000000  0.5404630000000  0.5689270000000 1.0
C      1  0.4876610000000  0.4767760000000  0.5604200000000 1.0
C      1  0.4870500000000  0.4319300000000  0.5089860000000 1.0
C      1  0.4914570000000  0.4284170000000  0.4579060000000 1.0
C      1  0.5473880000000  0.4593050000000  0.4922410000000 1.0
C      1  0.5525490000000  0.4749230000000  0.4649870000000 1.0
C      1  0.5479420000000  0.5107200000000  0.4665390000000 1.0
C      1  0.5457160000000  0.5391360000000  0.4869460000000 1.0
C      1  0.5454100000000  0.5341090000000  0.5180270000000 1.0
C      1  0.5450070000000  0.5044920000000  0.5343680000000 1.0
C      1  0.5461150000000  0.4723300000000  0.5239850000000 1.0
C      1  0.4669050000000  0.5450320000000  0.5437280000000 1.0
C      1  0.4617810000000  0.4923750000000  0.5649930000000 1.0
C      1  0.4636490000000  0.4479210000000  0.5273500000000 1.0
C      1  0.4626830000000  0.4402960000000  0.4762750000000 1.0
C      1  0.4664550000000  0.4774870000000  0.4438400000000 1.0
C      1  0.4761540000000  0.5308650000000  0.4615990000000 1.0
C      1  0.4607330000000  0.5650300000000  0.4953110000000 1.0
C      1  0.4483720000000  0.5269090000000  0.5286680000000 1.0
C      1  0.4456430000000  0.4973280000000  0.5388280000000 1.0
C      1  0.4428480000000  0.4682780000000  0.5177290000000 1.0
C      1  0.4443480000000  0.4649840000000  0.4860080000000 1.0
C      1  0.4490840000000  0.4871090000000  0.4659880000000 1.0
C      1  0.4559450000000  0.5149870000000  0.4768240000000 1.0
C      1  0.4475070000000  0.5369340000000  0.4992550000000 1.0
C      1  0.4920760000000  0.4582890000000  0.4873250000000 1.0
C      1  0.4922130000000  0.4604640000000  0.4513190000000 1.0
C      1  0.4893650000000  0.5232570000000  0.4368620000000 1.0
C      1  0.5008350000000  0.5335650000000  0.5051380000000 1.0
C      1  0.4937150000000  0.5516510000000  0.5295100000000 1.0
C      1  0.4841960000000  0.5136250000000  0.5800360000000 1.0
C      1  0.4903620000000  0.4641480000000  0.5354200000000 1.0
C      1  0.5101900000000  0.5055900000000  0.5060380000000 1.0
C      1  0.4905030000000  0.4833230000000  0.5072300000000 1.0
C      1  0.4661210000000  0.4994470000000  0.5023400000000 1.0
C      1  0.5347330000000  0.4992860000000  0.4940360000000 1.0
END
