TITL C-3985259-1859-983 -1.96902252205243e-07 125000 -321.911023368963 0 0 60 (C3) n - 1
REM
REM in /home/nfs/bkarasulu/CARBON/AIRSS/Generating-Clusters/TERSOFF/Higher-Symm/Only-C60
REM
REM
REM
REM
REM
REM ./C.cell (28575a23ae977d3b5fae324c64b13b57)
REM
REM compiler GCC version 9.2.1 20190827 (Red Hat 9.2.1-1)
REM options -cpp -mtune=generic -march=x86-64 -g -O0 -fpre-include=/usr/include/finclude/math-vector-fortran.h
REM seed 1076664900 1837408002 -1652649480 1865799992 -1538785197 540116127 -780452519 1816756718 -935275046 -1601701567 -1665190637 -1450501072 1447952759 629975881 391343620 1655082017 397468346 2144853892 -1106615352 -1457285753 682168528 847655393 1798539573 1163024929 -662853891 -955348176 -1703362140 -1966033323 -1331750742 -1247818411 801336363 -764063847 140886681
REM
CELL 1.54180   50.00000   50.00000   50.00000   90.00000   90.00000   90.00000
LATT -1
SFAC C  
C      1  0.4975490000000  0.4628980000000  0.4549570000000 1.0
C      1  0.4690940000000  0.5206700000000  0.4549580000000 1.0
C      1  0.5333530000000  0.5164350000000  0.4549530000000 1.0
C      1  0.5136300000000  0.4775900000000  0.4347770000000 1.0
C      1  0.4737790000000  0.4993970000000  0.4347770000000 1.0
C      1  0.5125910000000  0.5230150000000  0.4347710000000 1.0
C      1  0.5254000000000  0.4508580000000  0.5073810000000 1.0
C      1  0.4447420000000  0.5025740000000  0.5073840000000 1.0
C      1  0.5298580000000  0.5465670000000  0.5073810000000 1.0
C      1  0.4866300000000  0.4744230000000  0.5096410000000 1.0
C      1  0.4845350000000  0.5243670000000  0.5096410000000 1.0
C      1  0.5288350000000  0.5012100000000  0.5096390000000 1.0
C      1  0.4274810000000  0.4910670000000  0.5308660000000 1.0
C      1  0.5285240000000  0.5672700000000  0.5308620000000 1.0
C      1  0.5439970000000  0.4416630000000  0.5308620000000 1.0
C      1  0.4417390000000  0.5138650000000  0.5476800000000 1.0
C      1  0.5411400000000  0.5435240000000  0.5476770000000 1.0
C      1  0.5171250000000  0.4426110000000  0.5476780000000 1.0
C      1  0.4699940000000  0.5514840000000  0.4496400000000 1.0
C      1  0.5595870000000  0.5002420000000  0.4496400000000 1.0
C      1  0.4704120000000  0.4482700000000  0.4496410000000 1.0
C      1  0.5157580000000  0.4435300000000  0.4673160000000 1.0
C      1  0.4432170000000  0.5145860000000  0.4673170000000 1.0
C      1  0.5410240000000  0.5418860000000  0.4673140000000 1.0
C      1  0.4898450000000  0.5284380000000  0.5597280000000 1.0
C      1  0.5297080000000  0.4945780000000  0.5597270000000 1.0
C      1  0.4804530000000  0.4769850000000  0.5597290000000 1.0
C      1  0.5128230000000  0.5526480000000  0.4790500000000 1.0
C      1  0.5391810000000  0.4625710000000  0.4790480000000 1.0
C      1  0.4479920000000  0.4847810000000  0.4790520000000 1.0
C      1  0.4812340000000  0.4782690000000  0.4789620000000 1.0
C      1  0.4905630000000  0.5271150000000  0.4789620000000 1.0
C      1  0.5281990000000  0.4946170000000  0.4789580000000 1.0
C      1  0.5129360000000  0.5247160000000  0.5206500000000 1.0
C      1  0.5149370000000  0.4764400000000  0.5206490000000 1.0
C      1  0.4721280000000  0.4988440000000  0.5206510000000 1.0
C      1  0.5099830000000  0.4730520000000  0.5532870000000 1.0
C      1  0.4716740000000  0.5048300000000  0.5532890000000 1.0
C      1  0.5183490000000  0.5221180000000  0.5532880000000 1.0
C      1  0.4414660000000  0.5349890000000  0.4919580000000 1.0
C      1  0.5595680000000  0.5331970000000  0.4919540000000 1.0
C      1  0.4989650000000  0.4318130000000  0.4919580000000 1.0
C      1  0.4423900000000  0.4629760000000  0.5262020000000 1.0
C      1  0.4967430000000  0.5684040000000  0.5261990000000 1.0
C      1  0.5608690000000  0.4686200000000  0.5261970000000 1.0
C      1  0.5532660000000  0.5179990000000  0.5301870000000 1.0
C      1  0.4889560000000  0.4448720000000  0.5301900000000 1.0
C      1  0.4577800000000  0.5371300000000  0.5301900000000 1.0
C      1  0.4791290000000  0.5536220000000  0.5453070000000 1.0
C      1  0.5568760000000  0.4912650000000  0.5453050000000 1.0
C      1  0.4639990000000  0.4551130000000  0.5453090000000 1.0
C      1  0.4966170000000  0.5481190000000  0.4349160000000 1.0
C      1  0.5433590000000  0.4788670000000  0.4349210000000 1.0
C      1  0.4600190000000  0.4730130000000  0.4349190000000 1.0
C      1  0.5628020000000  0.4758690000000  0.4960430000000 1.0
C      1  0.4477000000000  0.4576760000000  0.4960470000000 1.0
C      1  0.4894960000000  0.5664560000000  0.4960440000000 1.0
C      1  0.4627830000000  0.5584900000000  0.4814570000000 1.0
C      1  0.5692610000000  0.5029850000000  0.4814550000000 1.0
C      1  0.4679540000000  0.4385230000000  0.4814590000000 1.0
END
