TITL C-3985250-725-828 0.000526040750475056 125000 -316.552711621257 0 0 60 (C3) n - 1
REM
REM in /home/nfs/bkarasulu/CARBON/AIRSS/Generating-Clusters/TERSOFF/Higher-Symm/Only-C60
REM
REM
REM
REM
REM
REM ./C.cell (28575a23ae977d3b5fae324c64b13b57)
REM
REM compiler GCC version 9.2.1 20190827 (Red Hat 9.2.1-1)
REM options -cpp -mtune=generic -march=x86-64 -g -O0 -fpre-include=/usr/include/finclude/math-vector-fortran.h
REM seed -1164173614 1633080175 -1650903019 1139448275 888363035 -535259955 -2140372372 -2120182237 -1283986839 -707333124 -201651727 624132305 -1414430892 1146944753 1223071003 -265696392 533811431 -222232926 2011002874 -1629442853 2126506613 -78077800 341305822 -405308628 1874532408 -226106297 -1790030309 918188852 371547453 -1469760573 -128166166 -1163183001 1022006567
REM
CELL 1.54180   50.00000   50.00000   50.00000   90.00000   90.00000   90.00000
LATT -1
SFAC C  
C      1  0.5215760000000  0.4271120000000  0.4824430000000 1.0
C      1  0.5215620000000  0.5516310000000  0.4456310000000 1.0
C      1  0.5215800000000  0.5212340000000  0.5719050000000 1.0
C      1  0.4872850000000  0.4863690000000  0.5203620000000 1.0
C      1  0.4872790000000  0.4892090000000  0.4779850000000 1.0
C      1  0.4872710000000  0.5244690000000  0.5016430000000 1.0
C      1  0.4430840000000  0.5396650000000  0.5185070000000 1.0
C      1  0.4430860000000  0.4641390000000  0.5251100000000 1.0
C      1  0.4430780000000  0.4961820000000  0.4563790000000 1.0
C      1  0.4645660000000  0.4675630000000  0.4783160000000 1.0
C      1  0.4645580000000  0.5350020000000  0.4827430000000 1.0
C      1  0.4645510000000  0.4974540000000  0.5389310000000 1.0
C      1  0.4756220000000  0.4842730000000  0.5653510000000 1.0
C      1  0.4756060000000  0.4512650000000  0.4537170000000 1.0
C      1  0.4756270000000  0.5644520000000  0.4809570000000 1.0
C      1  0.5017010000000  0.5346170000000  0.4335160000000 1.0
C      1  0.5016840000000  0.5403030000000  0.5632220000000 1.0
C      1  0.5017040000000  0.4250660000000  0.5032690000000 1.0
C      1  0.4877880000000  0.5127210000000  0.4504980000000 1.0
C      1  0.4878160000000  0.5365220000000  0.5357550000000 1.0
C      1  0.4878220000000  0.4507810000000  0.5137200000000 1.0
C      1  0.5313150000000  0.5621540000000  0.5194020000000 1.0
C      1  0.5312930000000  0.4521440000000  0.5441250000000 1.0
C      1  0.5313170000000  0.4857110000000  0.4364710000000 1.0
C      1  0.5089290000000  0.4470450000000  0.4607620000000 1.0
C      1  0.5088780000000  0.5605090000000  0.4737960000000 1.0
C      1  0.5088800000000  0.4924420000000  0.5655040000000 1.0
C      1  0.4601240000000  0.4538040000000  0.5032890000000 1.0
C      1  0.4601600000000  0.5202320000000  0.4583400000000 1.0
C      1  0.4601280000000  0.5259370000000  0.5383500000000 1.0
C      1  0.4617600000000  0.4582410000000  0.5535540000000 1.0
C      1  0.4617660000000  0.4745270000000  0.4370510000000 1.0
C      1  0.4617760000000  0.5672610000000  0.5094080000000 1.0
C      1  0.5465020000000  0.4419380000000  0.4921110000000 1.0
C      1  0.5465260000000  0.5358360000000  0.4536650000000 1.0
C      1  0.5465250000000  0.5222120000000  0.5542000000000 1.0
C      1  0.4234520000000  0.4938490000000  0.4799490000000 1.0
C      1  0.4234580000000  0.5204430000000  0.5046990000000 1.0
C      1  0.4234520000000  0.4857090000000  0.5153500000000 1.0
C      1  0.4830880000000  0.5662130000000  0.5310470000000 1.0
C      1  0.4830900000000  0.4399960000000  0.5418120000000 1.0
C      1  0.4830830000000  0.4937870000000  0.4271470000000 1.0
C      1  0.5099290000000  0.4664860000000  0.4912160000000 1.0
C      1  0.5099330000000  0.5243660000000  0.4753500000000 1.0
C      1  0.5099130000000  0.5091480000000  0.5334280000000 1.0
C      1  0.5550390000000  0.4940150000000  0.5480740000000 1.0
C      1  0.5550370000000  0.4613730000000  0.4707710000000 1.0
C      1  0.5550500000000  0.5446200000000  0.4811600000000 1.0
C      1  0.5369970000000  0.5066140000000  0.4593200000000 1.0
C      1  0.5370070000000  0.5319370000000  0.5260670000000 1.0
C      1  0.5369900000000  0.4614630000000  0.5146050000000 1.0
C      1  0.5095100000000  0.5775260000000  0.5304830000000 1.0
C      1  0.5095160000000  0.4348230000000  0.5519280000000 1.0
C      1  0.5095160000000  0.4876280000000  0.4176100000000 1.0
C      1  0.5567460000000  0.4921660000000  0.4804570000000 1.0
C      1  0.5567480000000  0.5208340000000  0.5029870000000 1.0
C      1  0.5567450000000  0.4869950000000  0.5165550000000 1.0
C      1  0.5350030000000  0.4756220000000  0.5606860000000 1.0
C      1  0.5349780000000  0.4596210000000  0.4485620000000 1.0
C      1  0.5349940000000  0.5647460000000  0.4907480000000 1.0
END
