TITL C-3985258-5380-47 2.54825758173814e-07 125000 -356.993585883064 0 0 60 (C6) n - 1
REM
REM in /home/nfs/bkarasulu/CARBON/AIRSS/Generating-Clusters/TERSOFF/Higher-Symm/Only-C60
REM
REM
REM
REM
REM
REM ./C.cell (28575a23ae977d3b5fae324c64b13b57)
REM
REM compiler GCC version 9.2.1 20190827 (Red Hat 9.2.1-1)
REM options -cpp -mtune=generic -march=x86-64 -g -O0 -fpre-include=/usr/include/finclude/math-vector-fortran.h
REM seed -2023460548 69703459 -1330252289 1132003910 -1289438385 2089331743 1839529800 -966605599 179827750 967628130 -1707554245 71102488 -162567869 -2145497264 -1811733802 -1003108719 -1117538425 -472537203 -487752449 1925335246 -1698884578 -971748725 -210780155 1119376275 -815104472 222473790 -1511169831 211258039 2123016188 -304534922 -601042944 -1959093008 -256090677
REM
CELL 1.54180   50.00000   50.00000   50.00000   90.00000   90.00000   90.00000
LATT -1
SFAC C  
C      1  0.5281010000000  0.4390160000000  0.4913010000000 1.0
C      1  0.5065170000000  0.4390160000000  0.4713140000000 1.0
C      1  0.4784150000000  0.4390160000000  0.4800130000000 1.0
C      1  0.4718990000000  0.4390160000000  0.5087000000000 1.0
C      1  0.4934830000000  0.4390160000000  0.5286860000000 1.0
C      1  0.5215850000000  0.4390160000000  0.5199870000000 1.0
C      1  0.5358420000000  0.5465570000000  0.5464380000000 1.0
C      1  0.5581370000000  0.5465570000000  0.4921790000000 1.0
C      1  0.5222960000000  0.5465570000000  0.4457410000000 1.0
C      1  0.4641580000000  0.5465570000000  0.4535620000000 1.0
C      1  0.4418630000000  0.5465570000000  0.5078210000000 1.0
C      1  0.4777040000000  0.5465570000000  0.5542590000000 1.0
C      1  0.5111420000000  0.5560690000000  0.4730240000000 1.0
C      1  0.4822090000000  0.5560690000000  0.4768630000000 1.0
C      1  0.4710670000000  0.5560690000000  0.5038390000000 1.0
C      1  0.4888580000000  0.5560690000000  0.5269760000000 1.0
C      1  0.5177910000000  0.5560690000000  0.5231370000000 1.0
C      1  0.5289330000000  0.5560690000000  0.4961610000000 1.0
C      1  0.5123020000000  0.5102880000000  0.5722940000000 1.0
C      1  0.5687590000000  0.5102880000000  0.5254930000000 1.0
C      1  0.5564570000000  0.5102880000000  0.4531990000000 1.0
C      1  0.4876980000000  0.5102880000000  0.4277060000000 1.0
C      1  0.4312410000000  0.5102880000000  0.4745070000000 1.0
C      1  0.4435430000000  0.5102880000000  0.5468010000000 1.0
C      1  0.5689060000000  0.4670990000000  0.4766220000000 1.0
C      1  0.5142070000000  0.4670990000000  0.4286370000000 1.0
C      1  0.4453010000000  0.4670990000000  0.4520150000000 1.0
C      1  0.4310940000000  0.4670990000000  0.5233780000000 1.0
C      1  0.4857930000000  0.4670990000000  0.5713630000000 1.0
C      1  0.5546990000000  0.4670990000000  0.5479850000000 1.0
C      1  0.4870350000000  0.4418350000000  0.5571050000000 1.0
C      1  0.5429720000000  0.4418350000000  0.5397810000000 1.0
C      1  0.5559370000000  0.4418340000000  0.4826760000000 1.0
C      1  0.5129650000000  0.4418340000000  0.4428950000000 1.0
C      1  0.4570280000000  0.4418340000000  0.4602200000000 1.0
C      1  0.4440630000000  0.4418350000000  0.5173250000000 1.0
C      1  0.4957700000000  0.4906730000000  0.5291990000000 1.0
C      1  0.5231720000000  0.4906730000000  0.5182630000000 1.0
C      1  0.5274020000000  0.4906730000000  0.4890640000000 1.0
C      1  0.5042300000000  0.4906730000000  0.4708010000000 1.0
C      1  0.4768280000000  0.4906730000000  0.4817370000000 1.0
C      1  0.4725980000000  0.4906730000000  0.5109360000000 1.0
C      1  0.5614230000000  0.5408300000000  0.5276300000000 1.0
C      1  0.5546400000000  0.5408300000000  0.4606210000000 1.0
C      1  0.4932170000000  0.5408300000000  0.4329910000000 1.0
C      1  0.4385770000000  0.5408300000000  0.4723700000000 1.0
C      1  0.4453600000000  0.5408300000000  0.5393790000000 1.0
C      1  0.5067830000000  0.5408300000000  0.5670090000000 1.0
C      1  0.5303790000000  0.5143160000000  0.4389390000000 1.0
C      1  0.4623090000000  0.5143160000000  0.4431610000000 1.0
C      1  0.4319300000000  0.5143170000000  0.5042220000000 1.0
C      1  0.4696210000000  0.5143170000000  0.5610610000000 1.0
C      1  0.5376910000000  0.5143170000000  0.5568390000000 1.0
C      1  0.5680700000000  0.5143160000000  0.4957780000000 1.0
C      1  0.5557260000000  0.4933170000000  0.4781270000000 1.0
C      1  0.5089200000000  0.4933170000000  0.4408030000000 1.0
C      1  0.4531940000000  0.4933170000000  0.4626770000000 1.0
C      1  0.4442740000000  0.4933170000000  0.5218730000000 1.0
C      1  0.4910800000000  0.4933170000000  0.5591970000000 1.0
C      1  0.5468060000000  0.4933170000000  0.5373230000000 1.0
END
