TITL C-3985250-725-507 0.000620017106575583 125000 -317.073126386217 0 0 60 (C1) n - 1
REM
REM in /home/nfs/bkarasulu/CARBON/AIRSS/Generating-Clusters/TERSOFF/Higher-Symm/Only-C60
REM
REM
REM
REM
REM
REM ./C.cell (28575a23ae977d3b5fae324c64b13b57)
REM
REM compiler GCC version 9.2.1 20190827 (Red Hat 9.2.1-1)
REM options -cpp -mtune=generic -march=x86-64 -g -O0 -fpre-include=/usr/include/finclude/math-vector-fortran.h
REM seed -1387176314 -2089612482 -330851708 -986014033 -1690357934 207430490 -573910651 -60173696 1510889026 -1287670770 1679869991 19656084 1416382569 1187305557 -1125691729 -932699158 1996871013 -107827137 -1611295995 -521101533 -1447795242 -713975223 228988711 -1414109032 1404392498 -2069485332 -1948990852 1897248586 848569674 -1446988568 -1589628071 1164326198 -1705037081
REM
CELL 1.54180   50.00000   50.00000   50.00000   90.00000   90.00000   90.00000
LATT -1
SFAC C  
C      1  0.4716620000000  0.5229500000000  0.4838770000000 1.0
C      1  0.4716640000000  0.5224250000000  0.5168390000000 1.0
C      1  0.4716680000000  0.4909150000000  0.5265270000000 1.0
C      1  0.4716690000000  0.4719630000000  0.4995520000000 1.0
C      1  0.4716650000000  0.4917610000000  0.4731900000000 1.0
C      1  0.5031410000000  0.4790460000000  0.5683240000000 1.0
C      1  0.5031440000000  0.4285460000000  0.5011850000000 1.0
C      1  0.5031440000000  0.4767920000000  0.4324190000000 1.0
C      1  0.5031450000000  0.5571100000000  0.4570430000000 1.0
C      1  0.5031400000000  0.5585040000000  0.5410420000000 1.0
C      1  0.5181480000000  0.5179040000000  0.4565440000000 1.0
C      1  0.5181480000000  0.5468600000000  0.5036030000000 1.0
C      1  0.5181490000000  0.5110550000000  0.5456830000000 1.0
C      1  0.5181500000000  0.4599700000000  0.5246340000000 1.0
C      1  0.5181570000000  0.4641980000000  0.4695370000000 1.0
C      1  0.5509030000000  0.5208120000000  0.5699590000000 1.0
C      1  0.5509040000000  0.4398980000000  0.5414200000000 1.0
C      1  0.5509130000000  0.4420420000000  0.4556380000000 1.0
C      1  0.5509080000000  0.5242780000000  0.4311770000000 1.0
C      1  0.5509060000000  0.5729600000000  0.5018240000000 1.0
C      1  0.4794470000000  0.5527030000000  0.5230930000000 1.0
C      1  0.4794480000000  0.4943230000000  0.5572560000000 1.0
C      1  0.4794490000000  0.4437940000000  0.5122890000000 1.0
C      1  0.4794450000000  0.4709380000000  0.4503370000000 1.0
C      1  0.4794470000000  0.5382510000000  0.4570120000000 1.0
C      1  0.5333250000000  0.4330950000000  0.5124670000000 1.0
C      1  0.5333240000000  0.4674700000000  0.4402330000000 1.0
C      1  0.5333250000000  0.5467950000000  0.4505910000000 1.0
C      1  0.5333220000000  0.5614520000000  0.5292410000000 1.0
C      1  0.5333220000000  0.4911810000000  0.5674840000000 1.0
C      1  0.5513890000000  0.4704500000000  0.5480660000000 1.0
C      1  0.5513760000000  0.4451660000000  0.4867480000000 1.0
C      1  0.5513880000000  0.4956550000000  0.4437540000000 1.0
C      1  0.5513890000000  0.5521470000000  0.4784890000000 1.0
C      1  0.5513870000000  0.5365750000000  0.5429550000000 1.0
C      1  0.4728730000000  0.4443350000000  0.4625540000000 1.0
C      1  0.4728760000000  0.5184090000000  0.4354850000000 1.0
C      1  0.4728760000000  0.5670450000000  0.4975710000000 1.0
C      1  0.4728740000000  0.5230270000000  0.5630100000000 1.0
C      1  0.4728750000000  0.4471900000000  0.5413680000000 1.0
C      1  0.4296770000000  0.5005850000000  0.4739950000000 1.0
C      1  0.4296750000000  0.5249110000000  0.4925140000000 1.0
C      1  0.4296730000000  0.5148140000000  0.5213730000000 1.0
C      1  0.4296740000000  0.4842490000000  0.5206880000000 1.0
C      1  0.4296750000000  0.4754540000000  0.4914070000000 1.0
C      1  0.5395120000000  0.5150830000000  0.5220130000000 1.0
C      1  0.5395190000000  0.4837230000000  0.5211570000000 1.0
C      1  0.5395130000000  0.4748570000000  0.4910700000000 1.0
C      1  0.5395060000000  0.5007210000000  0.4733280000000 1.0
C      1  0.5395060000000  0.5255900000000  0.4924540000000 1.0
C      1  0.4494580000000  0.4699850000000  0.5408000000000 1.0
C      1  0.4494590000000  0.4519180000000  0.4840610000000 1.0
C      1  0.4494570000000  0.5003020000000  0.4493370000000 1.0
C      1  0.4494540000000  0.5482770000000  0.4846280000000 1.0
C      1  0.4494540000000  0.5295340000000  0.5411570000000 1.0
C      1  0.5004600000000  0.5627080000000  0.4860630000000 1.0
C      1  0.5004580000000  0.5326330000000  0.5553320000000 1.0
C      1  0.5004600000000  0.4574620000000  0.5481340000000 1.0
C      1  0.5004620000000  0.4410790000000  0.4744160000000 1.0
C      1  0.5004620000000  0.5061240000000  0.4360530000000 1.0
END
