TITL C-3985247-764-847 1.2894808907306e-07 125000 -291.443125671791 0 0 60 (Td) n - 1
REM
REM in /home/nfs/bkarasulu/CARBON/AIRSS/Generating-Clusters/TERSOFF/Higher-Symm/Only-C60
REM
REM
REM
REM
REM
REM ./C.cell (28575a23ae977d3b5fae324c64b13b57)
REM
REM compiler GCC version 9.2.1 20190827 (Red Hat 9.2.1-1)
REM options -cpp -mtune=generic -march=x86-64 -g -O0 -fpre-include=/usr/include/finclude/math-vector-fortran.h
REM seed 24614099 -1119666229 2003032571 -1979044480 -2125791322 -1928800091 689736305 2141397692 -1959606241 -235669067 -46291179 -734053543 -537910543 -157946304 -1878827455 1613371773 -697152862 746598967 997942059 207413879 -396382001 -645834256 512145010 -1164011668 -1474280087 1123037064 614655484 1369817463 172775510 1044334768 -1479005179 -25465433 1871196465
REM
CELL 1.54180   50.00000   50.00000   50.00000   90.00000   90.00000   90.00000
LATT -1
SFAC C  
C      1  0.4755000000000  0.5669560000000  0.5461670000000 1.0
C      1  0.5461670000000  0.4755000000000  0.5669560000000 1.0
C      1  0.5669560000000  0.5461670000000  0.4755000000000 1.0
C      1  0.5245000000000  0.4330440000000  0.5461670000000 1.0
C      1  0.5245000000000  0.5669560000000  0.4538330000000 1.0
C      1  0.4755000000000  0.4330440000000  0.4538330000000 1.0
C      1  0.4538330000000  0.5245000000000  0.5669560000000 1.0
C      1  0.4538330000000  0.4755000000000  0.4330440000000 1.0
C      1  0.5461670000000  0.5245000000000  0.4330440000000 1.0
C      1  0.4330440000000  0.4538330000000  0.4755000000000 1.0
C      1  0.4330440000000  0.5461670000000  0.5245000000000 1.0
C      1  0.5669560000000  0.4538330000000  0.5245000000000 1.0
C      1  0.5669560000000  0.4755000000000  0.5461670000000 1.0
C      1  0.4755000000000  0.5461670000000  0.5669560000000 1.0
C      1  0.5461670000000  0.5669560000000  0.4755000000000 1.0
C      1  0.4330440000000  0.5245000000000  0.5461670000000 1.0
C      1  0.5669560000000  0.5245000000000  0.4538330000000 1.0
C      1  0.4330440000000  0.4755000000000  0.4538330000000 1.0
C      1  0.5245000000000  0.4538330000000  0.5669560000000 1.0
C      1  0.4755000000000  0.4538330000000  0.4330440000000 1.0
C      1  0.5245000000000  0.5461670000000  0.4330440000000 1.0
C      1  0.4538330000000  0.4330440000000  0.4755000000000 1.0
C      1  0.5461670000000  0.4330440000000  0.5245000000000 1.0
C      1  0.4538330000000  0.5669560000000  0.5245000000000 1.0
C      1  0.4997590000000  0.4346770000000  0.5248940000000 1.0
C      1  0.5248940000000  0.4997590000000  0.4346770000000 1.0
C      1  0.4346770000000  0.5248940000000  0.4997590000000 1.0
C      1  0.5002410000000  0.5653230000000  0.5248940000000 1.0
C      1  0.5002410000000  0.4346770000000  0.4751060000000 1.0
C      1  0.4997590000000  0.5653230000000  0.4751060000000 1.0
C      1  0.4751060000000  0.5002410000000  0.4346770000000 1.0
C      1  0.4751060000000  0.4997590000000  0.5653230000000 1.0
C      1  0.5248940000000  0.5002410000000  0.5653230000000 1.0
C      1  0.5653230000000  0.4751060000000  0.4997590000000 1.0
C      1  0.5653230000000  0.5248940000000  0.5002410000000 1.0
C      1  0.4346770000000  0.4751060000000  0.5002410000000 1.0
C      1  0.4346770000000  0.4997590000000  0.5248940000000 1.0
C      1  0.4997590000000  0.5248940000000  0.4346770000000 1.0
C      1  0.5248940000000  0.4346770000000  0.4997590000000 1.0
C      1  0.5653230000000  0.5002410000000  0.5248940000000 1.0
C      1  0.4346770000000  0.5002410000000  0.4751060000000 1.0
C      1  0.5653230000000  0.4997590000000  0.4751060000000 1.0
C      1  0.5002410000000  0.4751060000000  0.4346770000000 1.0
C      1  0.4997590000000  0.4751060000000  0.5653230000000 1.0
C      1  0.5002410000000  0.5248940000000  0.5653230000000 1.0
C      1  0.4751060000000  0.5653230000000  0.4997590000000 1.0
C      1  0.5248940000000  0.5653230000000  0.5002410000000 1.0
C      1  0.4751060000000  0.4346770000000  0.5002410000000 1.0
C      1  0.5138200000000  0.4611690000000  0.4611690000000 1.0
C      1  0.5138200000000  0.5388310000000  0.5388310000000 1.0
C      1  0.5388310000000  0.5138200000000  0.5388310000000 1.0
C      1  0.4861800000000  0.4611690000000  0.5388310000000 1.0
C      1  0.4861800000000  0.5388310000000  0.4611690000000 1.0
C      1  0.4611690000000  0.4861800000000  0.5388310000000 1.0
C      1  0.4611690000000  0.5138200000000  0.4611690000000 1.0
C      1  0.5388310000000  0.4861800000000  0.4611690000000 1.0
C      1  0.4611690000000  0.5388310000000  0.4861800000000 1.0
C      1  0.5388310000000  0.4611690000000  0.4861800000000 1.0
C      1  0.5388310000000  0.5388310000000  0.5138200000000 1.0
C      1  0.4611690000000  0.4611690000000  0.5138200000000 1.0
END
