TITL C-3985259-1859-371 0.000494383277518701 125000 -324.658506176237 0 0 60 (C1) n - 1
REM
REM in /home/nfs/bkarasulu/CARBON/AIRSS/Generating-Clusters/TERSOFF/Higher-Symm/Only-C60
REM
REM
REM
REM
REM
REM ./C.cell (28575a23ae977d3b5fae324c64b13b57)
REM
REM compiler GCC version 9.2.1 20190827 (Red Hat 9.2.1-1)
REM options -cpp -mtune=generic -march=x86-64 -g -O0 -fpre-include=/usr/include/finclude/math-vector-fortran.h
REM seed -1153628138 -804893079 521485982 -568630448 -919350888 -922166916 46368593 418464335 -1115338320 -2083039866 -2128189744 -2132020896 341922709 1447914000 -876072864 -191056374 117948965 -157954832 1626615054 -1587673944 956884488 -2058847909 1136400387 1594797054 -99471604 635571314 -1608048779 -487822212 -743515992 -1598615023 -2006235685 400925816 318784331
REM
CELL 1.54180   50.00000   50.00000   50.00000   90.00000   90.00000   90.00000
LATT -1
SFAC C  
C      1  0.5018500000000  0.4923520000000  0.5325060000000 1.0
C      1  0.5077900000000  0.4637360000000  0.4997010000000 1.0
C      1  0.5040880000000  0.4228750000000  0.5569990000000 1.0
C      1  0.4558810000000  0.5351790000000  0.5454270000000 1.0
C      1  0.4702710000000  0.5022970000000  0.5066900000000 1.0
C      1  0.5488440000000  0.4884810000000  0.5415830000000 1.0
C      1  0.4488940000000  0.5261960000000  0.4437180000000 1.0
C      1  0.4842300000000  0.5508800000000  0.4939660000000 1.0
C      1  0.5171350000000  0.4333600000000  0.4969090000000 1.0
C      1  0.5063570000000  0.5180230000000  0.5654270000000 1.0
C      1  0.5088660000000  0.4517560000000  0.5533780000000 1.0
C      1  0.4355420000000  0.5259460000000  0.5225210000000 1.0
C      1  0.4546110000000  0.5624950000000  0.4933480000000 1.0
C      1  0.5653180000000  0.4535650000000  0.5019210000000 1.0
C      1  0.4979880000000  0.5792930000000  0.4966940000000 1.0
C      1  0.4673530000000  0.4578590000000  0.5263680000000 1.0
C      1  0.5682070000000  0.5021230000000  0.4640740000000 1.0
C      1  0.5114230000000  0.5086940000000  0.4806900000000 1.0
C      1  0.5218830000000  0.5313320000000  0.4605250000000 1.0
C      1  0.4869170000000  0.4964730000000  0.5715110000000 1.0
C      1  0.4978110000000  0.4692690000000  0.5755060000000 1.0
C      1  0.5625320000000  0.4518590000000  0.4724870000000 1.0
C      1  0.5121380000000  0.5109180000000  0.5110360000000 1.0
C      1  0.4814770000000  0.4809970000000  0.4904400000000 1.0
C      1  0.5489820000000  0.4916910000000  0.4425620000000 1.0
C      1  0.5359880000000  0.4582770000000  0.5407080000000 1.0
C      1  0.4611040000000  0.5013200000000  0.5566810000000 1.0
C      1  0.5271180000000  0.4821860000000  0.4823900000000 1.0
C      1  0.4651940000000  0.5654200000000  0.5281970000000 1.0
C      1  0.5336920000000  0.5576830000000  0.4801150000000 1.0
C      1  0.4714540000000  0.4436590000000  0.4741100000000 1.0
C      1  0.4495580000000  0.4794930000000  0.5372100000000 1.0
C      1  0.4383570000000  0.5377310000000  0.4955490000000 1.0
C      1  0.4914950000000  0.5372040000000  0.5446730000000 1.0
C      1  0.4599500000000  0.4403480000000  0.5026660000000 1.0
C      1  0.5097870000000  0.5729030000000  0.4687250000000 1.0
C      1  0.5007760000000  0.4356780000000  0.4692750000000 1.0
C      1  0.5323890000000  0.5590910000000  0.5113890000000 1.0
C      1  0.4470400000000  0.5178600000000  0.4753860000000 1.0
C      1  0.4929780000000  0.5502360000000  0.4531700000000 1.0
C      1  0.5682340000000  0.4824380000000  0.5137130000000 1.0
C      1  0.5167490000000  0.4494980000000  0.4473660000000 1.0
C      1  0.4614630000000  0.5538360000000  0.4588470000000 1.0
C      1  0.4635760000000  0.4735950000000  0.4656850000000 1.0
C      1  0.5549430000000  0.4941930000000  0.4895810000000 1.0
C      1  0.5354460000000  0.5091660000000  0.5649060000000 1.0
C      1  0.4988920000000  0.4931120000000  0.4290990000000 1.0
C      1  0.5398390000000  0.4655750000000  0.4579170000000 1.0
C      1  0.4825470000000  0.5185520000000  0.4674420000000 1.0
C      1  0.4402040000000  0.4971080000000  0.5147660000000 1.0
C      1  0.5032160000000  0.4641670000000  0.4261220000000 1.0
C      1  0.4874860000000  0.5284440000000  0.5136710000000 1.0
C      1  0.5489840000000  0.5397730000000  0.5250330000000 1.0
C      1  0.4726510000000  0.4987300000000  0.4440840000000 1.0
C      1  0.5387500000000  0.5132610000000  0.5232340000000 1.0
C      1  0.5247830000000  0.5089880000000  0.4375300000000 1.0
C      1  0.5016530000000  0.5676330000000  0.5282710000000 1.0
C      1  0.4957820000000  0.4643690000000  0.5286470000000 1.0
C      1  0.4392450000000  0.4887960000000  0.4818570000000 1.0
C      1  0.5422910000000  0.4420260000000  0.5159980000000 1.0
END
