TITL C-3985247-764-801 -9.17695106715891e-06 125000 -329.897214314001 0 0 60 (C1) n - 1
REM
REM in /home/nfs/bkarasulu/CARBON/AIRSS/Generating-Clusters/TERSOFF/Higher-Symm/Only-C60
REM
REM
REM
REM
REM
REM ./C.cell (28575a23ae977d3b5fae324c64b13b57)
REM
REM compiler GCC version 9.2.1 20190827 (Red Hat 9.2.1-1)
REM options -cpp -mtune=generic -march=x86-64 -g -O0 -fpre-include=/usr/include/finclude/math-vector-fortran.h
REM seed -2110675045 1247811292 1147310957 -1291766751 1462333643 830519952 1618545525 -537137576 -37997337 -1594514105 389850686 214643049 -1941037 -1654036657 1342131023 2039894651 -1705138937 158068496 -392895384 -1206506956 81254599 1075849766 -568972484 1962794543 -182117456 1080965392 1746423574 204820478 844063048 -875196660 1887960882 -1002184708 526278369
REM
CELL 1.54180   50.00000   50.00000   50.00000   90.00000   90.00000   90.00000
LATT -1
SFAC C  
C      1  0.5157900000000  0.5210940000000  0.5678430000000 1.0
C      1  0.5312190000000  0.4882630000000  0.5357940000000 1.0
C      1  0.4702990000000  0.4489340000000  0.5168360000000 1.0
C      1  0.5555450000000  0.5068890000000  0.4843440000000 1.0
C      1  0.4501380000000  0.4865740000000  0.4449080000000 1.0
C      1  0.5081690000000  0.5384120000000  0.4236480000000 1.0
C      1  0.5073170000000  0.5564050000000  0.4480290000000 1.0
C      1  0.4545420000000  0.4928910000000  0.5377350000000 1.0
C      1  0.5167300000000  0.4459910000000  0.5180060000000 1.0
C      1  0.4684510000000  0.5313020000000  0.4352990000000 1.0
C      1  0.4874950000000  0.5108850000000  0.5661040000000 1.0
C      1  0.5145410000000  0.5080690000000  0.4932840000000 1.0
C      1  0.5758530000000  0.4835310000000  0.5364150000000 1.0
C      1  0.4659660000000  0.5268100000000  0.5418040000000 1.0
C      1  0.5661220000000  0.5118080000000  0.5405920000000 1.0
C      1  0.5225110000000  0.4421290000000  0.4766820000000 1.0
C      1  0.5215630000000  0.5343000000000  0.5423170000000 1.0
C      1  0.4818320000000  0.5233200000000  0.5146230000000 1.0
C      1  0.5396130000000  0.5531160000000  0.4959290000000 1.0
C      1  0.5618950000000  0.4776140000000  0.4817390000000 1.0
C      1  0.5094090000000  0.5597510000000  0.5373070000000 1.0
C      1  0.5085730000000  0.4630180000000  0.5673140000000 1.0
C      1  0.5066090000000  0.4702410000000  0.5355910000000 1.0
C      1  0.4836910000000  0.4936690000000  0.4961850000000 1.0
C      1  0.4578840000000  0.4710320000000  0.5602180000000 1.0
C      1  0.4324750000000  0.4882390000000  0.5143590000000 1.0
C      1  0.4833620000000  0.4816560000000  0.5718420000000 1.0
C      1  0.5461710000000  0.4561680000000  0.4994900000000 1.0
C      1  0.4816670000000  0.5556390000000  0.5470800000000 1.0
C      1  0.4503760000000  0.5507140000000  0.5195120000000 1.0
C      1  0.4485870000000  0.5486430000000  0.4886910000000 1.0
C      1  0.4942100000000  0.5373500000000  0.4710790000000 1.0
C      1  0.4734470000000  0.5615470000000  0.4438650000000 1.0
C      1  0.4520550000000  0.5014860000000  0.4947260000000 1.0
C      1  0.5618850000000  0.4713410000000  0.4530400000000 1.0
C      1  0.4917230000000  0.5450250000000  0.4981170000000 1.0
C      1  0.4599360000000  0.4449340000000  0.5452680000000 1.0
C      1  0.4437760000000  0.5223270000000  0.4778570000000 1.0
C      1  0.4285530000000  0.4668260000000  0.4919080000000 1.0
C      1  0.5367580000000  0.4479690000000  0.5548410000000 1.0
C      1  0.5361530000000  0.4740950000000  0.4394480000000 1.0
C      1  0.4789340000000  0.4637550000000  0.4784980000000 1.0
C      1  0.4904270000000  0.4636860000000  0.4510700000000 1.0
C      1  0.4956440000000  0.5096340000000  0.4258870000000 1.0
C      1  0.5574460000000  0.5256110000000  0.5109040000000 1.0
C      1  0.4782500000000  0.4829820000000  0.4323970000000 1.0
C      1  0.4592050000000  0.5688750000000  0.4696140000000 1.0
C      1  0.5262070000000  0.4239600000000  0.5381880000000 1.0
C      1  0.4472000000000  0.5160670000000  0.4495830000000 1.0
C      1  0.5292130000000  0.5141740000000  0.5191050000000 1.0
C      1  0.5402540000000  0.5027610000000  0.5627740000000 1.0
C      1  0.5237140000000  0.5014460000000  0.4417780000000 1.0
C      1  0.5132320000000  0.5617560000000  0.5085610000000 1.0
C      1  0.5174980000000  0.4542190000000  0.4494230000000 1.0
C      1  0.4488740000000  0.4663030000000  0.4702100000000 1.0
C      1  0.5307600000000  0.5159320000000  0.4667380000000 1.0
C      1  0.4936120000000  0.4382360000000  0.4959590000000 1.0
C      1  0.5524510000000  0.4654230000000  0.5311070000000 1.0
C      1  0.4794250000000  0.4784030000000  0.5227430000000 1.0
C      1  0.5347620000000  0.5467690000000  0.4657930000000 1.0
END
