TITL C-3985254-1270-1582 0.000674974834764855 125000 -330.761496799942 0 0 60 (C3) n - 1
REM
REM in /home/nfs/bkarasulu/CARBON/AIRSS/Generating-Clusters/TERSOFF/Higher-Symm/Only-C60
REM
REM
REM
REM
REM
REM ./C.cell (28575a23ae977d3b5fae324c64b13b57)
REM
REM compiler GCC version 9.2.1 20190827 (Red Hat 9.2.1-1)
REM options -cpp -mtune=generic -march=x86-64 -g -O0 -fpre-include=/usr/include/finclude/math-vector-fortran.h
REM seed -332148067 1702229622 264176681 -2125686355 1066287898 1900777915 1260640636 1148104785 -292152773 1471884479 1611382526 -463774001 331333116 1469707687 275222826 1405491283 233524961 -624244534 2048447800 1154502507 -316849722 -525270814 -189380242 1531153198 412230002 -653788608 931535022 1181965851 1768511856 766291515 -346732416 -392633915 -1232609957
REM
CELL 1.54180   50.00000   50.00000   50.00000   90.00000   90.00000   90.00000
LATT -1
SFAC C  
C      1  0.5015140000000  0.4731540000000  0.4428610000000 1.0
C      1  0.5015040000000  0.5629080000000  0.5053200000000 1.0
C      1  0.5015030000000  0.4639500000000  0.5518240000000 1.0
C      1  0.4771210000000  0.4351910000000  0.4642640000000 1.0
C      1  0.4771160000000  0.5633510000000  0.4617390000000 1.0
C      1  0.4771040000000  0.5014710000000  0.5739900000000 1.0
C      1  0.4950450000000  0.5195290000000  0.4781800000000 1.0
C      1  0.4950360000000  0.5091380000000  0.5278260000000 1.0
C      1  0.4950490000000  0.4713370000000  0.4939920000000 1.0
C      1  0.4660870000000  0.4896380000000  0.4821150000000 1.0
C      1  0.4660740000000  0.5206560000000  0.4999450000000 1.0
C      1  0.4660760000000  0.4897000000000  0.5179070000000 1.0
C      1  0.4335940000000  0.4859360000000  0.5267880000000 1.0
C      1  0.4336020000000  0.4838160000000  0.4744190000000 1.0
C      1  0.4335900000000  0.5302310000000  0.4987650000000 1.0
C      1  0.5067400000000  0.4193840000000  0.5195680000000 1.0
C      1  0.5067510000000  0.5233700000000  0.4204240000000 1.0
C      1  0.5067180000000  0.5572350000000  0.5600390000000 1.0
C      1  0.4249880000000  0.4717100000000  0.5009600000000 1.0
C      1  0.4249820000000  0.5132930000000  0.4750120000000 1.0
C      1  0.4249770000000  0.5149720000000  0.5239960000000 1.0
C      1  0.4903040000000  0.4426800000000  0.4885000000000 1.0
C      1  0.4903050000000  0.5386200000000  0.4561070000000 1.0
C      1  0.4902930000000  0.5187130000000  0.5553860000000 1.0
C      1  0.4913590000000  0.4408160000000  0.5330060000000 1.0
C      1  0.4913640000000  0.5010190000000  0.4322340000000 1.0
C      1  0.4913470000000  0.5581570000000  0.5347530000000 1.0
C      1  0.4746840000000  0.4741080000000  0.5647980000000 1.0
C      1  0.4746980000000  0.4568330000000  0.4451640000000 1.0
C      1  0.4746870000000  0.5690720000000  0.4900310000000 1.0
C      1  0.4662760000000  0.4539120000000  0.5233310000000 1.0
C      1  0.4662810000000  0.5028380000000  0.4484190000000 1.0
C      1  0.4662660000000  0.5432350000000  0.5282380000000 1.0
C      1  0.5469070000000  0.4577570000000  0.4657560000000 1.0
C      1  0.5469050000000  0.5507820000000  0.4805460000000 1.0
C      1  0.5469000000000  0.4914610000000  0.5537160000000 1.0
C      1  0.4493410000000  0.4749080000000  0.4465540000000 1.0
C      1  0.4493280000000  0.5588220000000  0.5049840000000 1.0
C      1  0.4493290000000  0.4662670000000  0.5484500000000 1.0
C      1  0.5358900000000  0.5031080000000  0.4668270000000 1.0
C      1  0.5358850000000  0.5271750000000  0.5192840000000 1.0
C      1  0.5358840000000  0.4697190000000  0.5139010000000 1.0
C      1  0.5072740000000  0.5300610000000  0.5073540000000 1.0
C      1  0.5072680000000  0.4786130000000  0.5223570000000 1.0
C      1  0.5072810000000  0.4913400000000  0.4702940000000 1.0
C      1  0.5269010000000  0.4559770000000  0.4437260000000 1.0
C      1  0.5268950000000  0.5707480000000  0.4900160000000 1.0
C      1  0.5268930000000  0.4732780000000  0.5662690000000 1.0
C      1  0.5822960000000  0.4912740000000  0.4819760000000 1.0
C      1  0.5822980000000  0.5199830000000  0.5014660000000 1.0
C      1  0.5822950000000  0.4887460000000  0.5165860000000 1.0
C      1  0.5388530000000  0.5194520000000  0.5474070000000 1.0
C      1  0.5388560000000  0.4492240000000  0.4931520000000 1.0
C      1  0.5388600000000  0.5313240000000  0.4594570000000 1.0
C      1  0.5264270000000  0.4237370000000  0.4984910000000 1.0
C      1  0.5264310000000  0.5394570000000  0.4347060000000 1.0
C      1  0.5264160000000  0.5368160000000  0.5668070000000 1.0
C      1  0.5584510000000  0.5364680000000  0.5034920000000 1.0
C      1  0.5584460000000  0.4787500000000  0.5298470000000 1.0
C      1  0.5584530000000  0.4847840000000  0.4666820000000 1.0
END
