TITL C-3985254-1270-894 6.54413932501597e-05 125000 -340.020524945025 0 0 60 (C2h) n - 1
REM
REM in /home/nfs/bkarasulu/CARBON/AIRSS/Generating-Clusters/TERSOFF/Higher-Symm/Only-C60
REM
REM
REM
REM
REM
REM ./C.cell (28575a23ae977d3b5fae324c64b13b57)
REM
REM compiler GCC version 9.2.1 20190827 (Red Hat 9.2.1-1)
REM options -cpp -mtune=generic -march=x86-64 -g -O0 -fpre-include=/usr/include/finclude/math-vector-fortran.h
REM seed -1871451145 -148541441 -1356400361 2094440314 -482742884 706169744 -390331397 58140046 1199447664 1214647837 212784535 -2099522434 -536979961 1639953487 -63202255 1183198222 -1248147020 -1315204063 -196453003 -2121204481 -897909170 250695455 1098733763 247726825 -368795031 -264526877 1680119567 77416569 -1029390135 1898944819 1425068977 -2035933072 -1707995696
REM
CELL 1.54180   50.00000   50.00000   50.00000   90.00000   90.00000   90.00000
LATT -1
SFAC C  
C      1  0.5486910000000  0.5440390000000  0.5126350000000 1.0
C      1  0.5453880000000  0.5465300000000  0.4541940000000 1.0
C      1  0.4822300000000  0.5474190000000  0.4369410000000 1.0
C      1  0.4513120000000  0.5440350000000  0.4873610000000 1.0
C      1  0.4546090000000  0.5465310000000  0.5458060000000 1.0
C      1  0.5177690000000  0.5474200000000  0.5630570000000 1.0
C      1  0.4406230000000  0.5486990000000  0.5158810000000 1.0
C      1  0.4572420000000  0.5476350000000  0.4526080000000 1.0
C      1  0.5156120000000  0.5448980000000  0.4468380000000 1.0
C      1  0.5593790000000  0.5487020000000  0.4841200000000 1.0
C      1  0.5427580000000  0.5476350000000  0.5473920000000 1.0
C      1  0.4843940000000  0.5448960000000  0.5531630000000 1.0
C      1  0.5823160000000  0.5000070000000  0.4847260000000 1.0
C      1  0.5289510000000  0.5000020000000  0.4206840000000 1.0
C      1  0.4437270000000  0.4999940000000  0.4307710000000 1.0
C      1  0.4176850000000  0.5000010000000  0.5152740000000 1.0
C      1  0.4710500000000  0.5000020000000  0.5793160000000 1.0
C      1  0.5562730000000  0.4999960000000  0.5692280000000 1.0
C      1  0.4217170000000  0.4999980000000  0.4868260000000 1.0
C      1  0.4687050000000  0.4999950000000  0.4152400000000 1.0
C      1  0.5560040000000  0.5000050000000  0.4306370000000 1.0
C      1  0.5782830000000  0.5000020000000  0.5131720000000 1.0
C      1  0.5312950000000  0.4999970000000  0.5847600000000 1.0
C      1  0.4439950000000  0.5000040000000  0.5693650000000 1.0
C      1  0.5139220000000  0.5247030000000  0.4214180000000 1.0
C      1  0.4356380000000  0.5251570000000  0.4440500000000 1.0
C      1  0.4222500000000  0.5253950000000  0.5293750000000 1.0
C      1  0.4860770000000  0.5247010000000  0.5785810000000 1.0
C      1  0.5643620000000  0.5251590000000  0.5559500000000 1.0
C      1  0.5777470000000  0.5253960000000  0.4706260000000 1.0
C      1  0.4841330000000  0.5251260000000  0.4138500000000 1.0
C      1  0.5657060000000  0.5249980000000  0.4420380000000 1.0
C      1  0.5704610000000  0.5244950000000  0.5259880000000 1.0
C      1  0.5158650000000  0.5251270000000  0.5861490000000 1.0
C      1  0.4342950000000  0.5249980000000  0.5579580000000 1.0
C      1  0.4295390000000  0.5244920000000  0.4740120000000 1.0
C      1  0.5657120000000  0.4750100000000  0.4420380000000 1.0
C      1  0.4841390000000  0.4748670000000  0.4138540000000 1.0
C      1  0.4295460000000  0.4755020000000  0.4740180000000 1.0
C      1  0.4342890000000  0.4750090000000  0.5579630000000 1.0
C      1  0.5158630000000  0.4748680000000  0.5861470000000 1.0
C      1  0.5704520000000  0.4755040000000  0.5259810000000 1.0
C      1  0.4356440000000  0.4748330000000  0.4440580000000 1.0
C      1  0.5139270000000  0.4752990000000  0.4214200000000 1.0
C      1  0.5777560000000  0.4746110000000  0.4706180000000 1.0
C      1  0.5643550000000  0.4748350000000  0.5559420000000 1.0
C      1  0.4860730000000  0.4752990000000  0.5785820000000 1.0
C      1  0.4222450000000  0.4746090000000  0.5293790000000 1.0
C      1  0.4822410000000  0.4525770000000  0.4369490000000 1.0
C      1  0.4513180000000  0.4559640000000  0.4873750000000 1.0
C      1  0.4546000000000  0.4534710000000  0.5458130000000 1.0
C      1  0.5177600000000  0.4525780000000  0.5630520000000 1.0
C      1  0.5486810000000  0.4559670000000  0.5126260000000 1.0
C      1  0.5453990000000  0.4534710000000  0.4541880000000 1.0
C      1  0.5156130000000  0.4551060000000  0.4468360000000 1.0
C      1  0.5593820000000  0.4513050000000  0.4841120000000 1.0
C      1  0.5427480000000  0.4523610000000  0.5473830000000 1.0
C      1  0.4843850000000  0.4551040000000  0.5531660000000 1.0
C      1  0.4406170000000  0.4513030000000  0.5158890000000 1.0
C      1  0.4572520000000  0.4523600000000  0.4526180000000 1.0
END
