TITL C-3985257-5396-238 3.67944586252842e-05 125000 -335.434007003022 0 0 60 (C2) n - 1
REM
REM in /home/nfs/bkarasulu/CARBON/AIRSS/Generating-Clusters/TERSOFF/Higher-Symm/Only-C60
REM
REM
REM
REM
REM
REM ./C.cell (28575a23ae977d3b5fae324c64b13b57)
REM
REM compiler GCC version 9.2.1 20190827 (Red Hat 9.2.1-1)
REM options -cpp -mtune=generic -march=x86-64 -g -O0 -fpre-include=/usr/include/finclude/math-vector-fortran.h
REM seed 1916562035 -1594363400 2077213861 -2062116605 991918079 -1419568295 1957847782 -432789421 -830918649 1346762990 -92213971 -452615262 -941804565 -1620664998 -44871018 -2075018800 -161918667 -1675752759 -1684591736 829666709 1659077477 1116155584 -922567429 550598436 -589195948 835157662 -320780050 -166378526 -1730147370 -116631359 844478878 91019965 1836214710
REM
CELL 1.54180   50.00000   50.00000   50.00000   90.00000   90.00000   90.00000
LATT -1
SFAC C  
C      1  0.5634130000000  0.5504980000000  0.4990350000000 1.0
C      1  0.4365870000000  0.4495020000000  0.4990350000000 1.0
C      1  0.4432170000000  0.5069140000000  0.4498460000000 1.0
C      1  0.5567830000000  0.4930860000000  0.4498460000000 1.0
C      1  0.5136790000000  0.4812890000000  0.4695690000000 1.0
C      1  0.4863210000000  0.5187110000000  0.4695690000000 1.0
C      1  0.5432850000000  0.5567760000000  0.5279930000000 1.0
C      1  0.4567150000000  0.4432240000000  0.5279930000000 1.0
C      1  0.5481140000000  0.5040030000000  0.4991480000000 1.0
C      1  0.4518860000000  0.4959970000000  0.4991470000000 1.0
C      1  0.4253180000000  0.4823850000000  0.4634910000000 1.0
C      1  0.5746820000000  0.5176150000000  0.4634910000000 1.0
C      1  0.4931030000000  0.5775260000000  0.4600490000000 1.0
C      1  0.5068970000000  0.4224740000000  0.4600500000000 1.0
C      1  0.4851110000000  0.4410230000000  0.4555090000000 1.0
C      1  0.5148890000000  0.5589770000000  0.4555090000000 1.0
C      1  0.4738850000000  0.5348630000000  0.5638090000000 1.0
C      1  0.5261160000000  0.4651360000000  0.5638110000000 1.0
C      1  0.5203850000000  0.5319050000000  0.5645410000000 1.0
C      1  0.4796160000000  0.4680950000000  0.5645410000000 1.0
C      1  0.4748280000000  0.5726110000000  0.4823500000000 1.0
C      1  0.5251720000000  0.4273900000000  0.4823510000000 1.0
C      1  0.4914040000000  0.4697560000000  0.4495960000000 1.0
C      1  0.5085950000000  0.5302440000000  0.4495960000000 1.0
C      1  0.4298560000000  0.4782290000000  0.4925940000000 1.0
C      1  0.5701440000000  0.5217710000000  0.4925930000000 1.0
C      1  0.4773170000000  0.4400040000000  0.5011500000000 1.0
C      1  0.5226840000000  0.5599960000000  0.5011490000000 1.0
C      1  0.5093540000000  0.4257970000000  0.5340240000000 1.0
C      1  0.4906460000000  0.5742020000000  0.5340230000000 1.0
C      1  0.4837480000000  0.5184160000000  0.5264490000000 1.0
C      1  0.5162520000000  0.4815840000000  0.5264490000000 1.0
C      1  0.5454020000000  0.4913760000000  0.5243540000000 1.0
C      1  0.4545980000000  0.5086240000000  0.5243550000000 1.0
C      1  0.5358200000000  0.5177930000000  0.4395510000000 1.0
C      1  0.4641800000000  0.4822070000000  0.4395510000000 1.0
C      1  0.5028750000000  0.4838340000000  0.5556030000000 1.0
C      1  0.4971250000000  0.5161660000000  0.5556030000000 1.0
C      1  0.4998010000000  0.5248370000000  0.5003190000000 1.0
C      1  0.5001990000000  0.4751620000000  0.5003190000000 1.0
C      1  0.5408680000000  0.4721630000000  0.4640450000000 1.0
C      1  0.4591320000000  0.5278370000000  0.4640450000000 1.0
C      1  0.5204710000000  0.5766740000000  0.5405940000000 1.0
C      1  0.4795290000000  0.4233260000000  0.5405940000000 1.0
C      1  0.4712190000000  0.5618000000000  0.5525350000000 1.0
C      1  0.5287790000000  0.4382000000000  0.5525350000000 1.0
C      1  0.5418530000000  0.5615700000000  0.4722690000000 1.0
C      1  0.4581470000000  0.4384300000000  0.4722700000000 1.0
C      1  0.5231310000000  0.5072480000000  0.4860250000000 1.0
C      1  0.4768700000000  0.4927520000000  0.4860250000000 1.0
C      1  0.4442710000000  0.4602440000000  0.4516470000000 1.0
C      1  0.5557290000000  0.5397560000000  0.4516470000000 1.0
C      1  0.5064980000000  0.4339350000000  0.5052490000000 1.0
C      1  0.4935020000000  0.5660660000000  0.5052490000000 1.0
C      1  0.5441290000000  0.5346620000000  0.5492170000000 1.0
C      1  0.4558720000000  0.4653380000000  0.5492180000000 1.0
C      1  0.5475220000000  0.4458750000000  0.4752590000000 1.0
C      1  0.4524780000000  0.5541250000000  0.4752580000000 1.0
C      1  0.5566380000000  0.5091380000000  0.5441790000000 1.0
C      1  0.4433630000000  0.4908620000000  0.5441790000000 1.0
END
