TITL C-3985254-1270-300 0.0195083830638321 125000 -305.533863040871 0 0 60 (D2d) n - 1
REM
REM in /home/nfs/bkarasulu/CARBON/AIRSS/Generating-Clusters/TERSOFF/Higher-Symm/Only-C60
REM
REM
REM
REM
REM
REM ./C.cell (28575a23ae977d3b5fae324c64b13b57)
REM
REM compiler GCC version 9.2.1 20190827 (Red Hat 9.2.1-1)
REM options -cpp -mtune=generic -march=x86-64 -g -O0 -fpre-include=/usr/include/finclude/math-vector-fortran.h
REM seed 2041616292 1503873004 -1467867028 -1350446202 -1007252018 1761154279 -2105814905 -1061933245 -359367813 -1517901605 -919369082 131169641 -1920475682 -585379506 1337278824 146730065 741996477 -209997106 401386872 1075137430 1662229509 11069823 -1779545111 -1753849265 -1451749347 762181618 -834877614 -651412643 -1252639609 1460711342 -1399681848 -351122340 -1302575158
REM
CELL 1.54180   50.00000   50.00000   50.00000   90.00000   90.00000   90.00000
LATT -1
SFAC C  
C      1  0.4885350000000  0.5092160000000  0.4691890000000 1.0
C      1  0.4885350000000  0.4907840000000  0.5308110000000 1.0
C      1  0.5114650000000  0.4907840000000  0.4691890000000 1.0
C      1  0.5114650000000  0.5092160000000  0.5308110000000 1.0
C      1  0.4885350000000  0.4691890000000  0.5092160000000 1.0
C      1  0.4885350000000  0.5308110000000  0.4907840000000 1.0
C      1  0.5114650000000  0.4691890000000  0.4907840000000 1.0
C      1  0.5114650000000  0.5308110000000  0.5092160000000 1.0
C      1  0.5392180000000  0.4743820000000  0.5039180000000 1.0
C      1  0.5392180000000  0.5256180000000  0.4960820000000 1.0
C      1  0.4607820000000  0.5256180000000  0.5039180000000 1.0
C      1  0.4607820000000  0.4743820000000  0.4960820000000 1.0
C      1  0.5392180000000  0.5039180000000  0.4743820000000 1.0
C      1  0.5392180000000  0.4960820000000  0.5256180000000 1.0
C      1  0.4607820000000  0.5039180000000  0.5256180000000 1.0
C      1  0.4607820000000  0.4960820000000  0.4743820000000 1.0
C      1  0.4578110000000  0.4959980000000  0.5667720000000 1.0
C      1  0.4578110000000  0.5040020000000  0.4332280000000 1.0
C      1  0.5421890000000  0.5040020000000  0.5667720000000 1.0
C      1  0.5421890000000  0.4959980000000  0.4332280000000 1.0
C      1  0.4578110000000  0.5667720000000  0.4959980000000 1.0
C      1  0.4578110000000  0.4332280000000  0.5040020000000 1.0
C      1  0.5421890000000  0.5667720000000  0.5040020000000 1.0
C      1  0.5421890000000  0.4332280000000  0.4959980000000 1.0
C      1  0.5106100000000  0.5661970000000  0.5457750000000 1.0
C      1  0.5106100000000  0.4338030000000  0.4542250000000 1.0
C      1  0.4893900000000  0.4338030000000  0.5457750000000 1.0
C      1  0.4893900000000  0.5661970000000  0.4542250000000 1.0
C      1  0.5106100000000  0.5457750000000  0.5661970000000 1.0
C      1  0.5106100000000  0.4542250000000  0.4338030000000 1.0
C      1  0.4893900000000  0.5457750000000  0.4338030000000 1.0
C      1  0.4893900000000  0.4542250000000  0.5661970000000 1.0
C      1  0.4555490000000  0.4492610000000  0.4746150000000 1.0
C      1  0.4555490000000  0.5507390000000  0.5253850000000 1.0
C      1  0.5444510000000  0.5507390000000  0.4746150000000 1.0
C      1  0.5444510000000  0.4492610000000  0.5253850000000 1.0
C      1  0.4555490000000  0.4746150000000  0.4492610000000 1.0
C      1  0.4555490000000  0.5253850000000  0.5507390000000 1.0
C      1  0.5444510000000  0.4746150000000  0.5507390000000 1.0
C      1  0.5444510000000  0.5253850000000  0.4492610000000 1.0
C      1  0.5162420000000  0.4819710000000  0.4404160000000 1.0
C      1  0.5162420000000  0.5180290000000  0.5595840000000 1.0
C      1  0.4837580000000  0.5180290000000  0.4404160000000 1.0
C      1  0.4837580000000  0.4819710000000  0.5595840000000 1.0
C      1  0.5162420000000  0.4404160000000  0.4819710000000 1.0
C      1  0.5162420000000  0.5595840000000  0.5180290000000 1.0
C      1  0.4837580000000  0.4404160000000  0.5180290000000 1.0
C      1  0.4837580000000  0.5595840000000  0.4819710000000 1.0
C      1  0.4362850000000  0.5535780000000  0.4806830000000 1.0
C      1  0.4362850000000  0.4464220000000  0.5193170000000 1.0
C      1  0.5637150000000  0.4464220000000  0.4806830000000 1.0
C      1  0.5637150000000  0.5535780000000  0.5193170000000 1.0
C      1  0.4362850000000  0.4806830000000  0.5535780000000 1.0
C      1  0.4362850000000  0.5193170000000  0.4464220000000 1.0
C      1  0.5637150000000  0.4806830000000  0.4464220000000 1.0
C      1  0.5637150000000  0.5193170000000  0.5535780000000 1.0
C      1  0.4372410000000  0.4775470000000  0.5224530000000 1.0
C      1  0.4372410000000  0.5224530000000  0.4775470000000 1.0
C      1  0.5627590000000  0.5224530000000  0.5224530000000 1.0
C      1  0.5627590000000  0.4775470000000  0.4775470000000 1.0
END
