TITL C-3985244-725-444 0.00449980674334899 125000 -309.610261564837 0 0 60 (C1) n - 1
REM
REM in /home/nfs/bkarasulu/CARBON/AIRSS/Generating-Clusters/TERSOFF/Higher-Symm/Only-C60
REM
REM
REM
REM
REM
REM ./C.cell (28575a23ae977d3b5fae324c64b13b57)
REM
REM compiler GCC version 9.2.1 20190827 (Red Hat 9.2.1-1)
REM options -cpp -mtune=generic -march=x86-64 -g -O0 -fpre-include=/usr/include/finclude/math-vector-fortran.h
REM seed -1806758753 402214777 -1177823840 -1885259971 529521768 1961005792 1736153597 -248579108 -79513149 -767307988 1651282088 -1278830914 -1052855028 -70823117 -1479457741 -343176563 -14331028 -357745734 -832184270 -359880247 -283956517 1282995040 970891060 -301355969 892862626 -1571734069 1462633452 338391420 36191107 1085841933 1743633729 -1664333839 1322457716
REM
CELL 1.54180   50.00000   50.00000   50.00000   90.00000   90.00000   90.00000
LATT -1
SFAC C  
C      1  0.4728360000000  0.5494050000000  0.5641950000000 1.0
C      1  0.4990380000000  0.4481920000000  0.5535530000000 1.0
C      1  0.4630200000000  0.5570860000000  0.4730640000000 1.0
C      1  0.5336490000000  0.4374390000000  0.4706980000000 1.0
C      1  0.5091580000000  0.4742000000000  0.5456070000000 1.0
C      1  0.4735650000000  0.5228800000000  0.5522520000000 1.0
C      1  0.5634530000000  0.4928210000000  0.4751910000000 1.0
C      1  0.4321060000000  0.5020530000000  0.4757700000000 1.0
C      1  0.5279270000000  0.5496740000000  0.5201250000000 1.0
C      1  0.4697690000000  0.4481010000000  0.5190020000000 1.0
C      1  0.4731010000000  0.5082140000000  0.4962580000000 1.0
C      1  0.5253310000000  0.4883040000000  0.4924570000000 1.0
C      1  0.5628460000000  0.4641740000000  0.4858520000000 1.0
C      1  0.4320310000000  0.5304010000000  0.4859330000000 1.0
C      1  0.5006710000000  0.5452640000000  0.5058330000000 1.0
C      1  0.4958370000000  0.4533900000000  0.5030680000000 1.0
C      1  0.4606880000000  0.4211270000000  0.5123100000000 1.0
C      1  0.5369090000000  0.5759450000000  0.5106900000000 1.0
C      1  0.5343540000000  0.5626370000000  0.4631110000000 1.0
C      1  0.4586970000000  0.4333160000000  0.4643730000000 1.0
C      1  0.5325470000000  0.4775050000000  0.5261090000000 1.0
C      1  0.4578170000000  0.5169730000000  0.5280470000000 1.0
C      1  0.4666240000000  0.5138950000000  0.4401390000000 1.0
C      1  0.5275360000000  0.4831800000000  0.4389920000000 1.0
C      1  0.4948660000000  0.5861270000000  0.4874080000000 1.0
C      1  0.4994710000000  0.4099530000000  0.4860380000000 1.0
C      1  0.5204000000000  0.4306950000000  0.4990110000000 1.0
C      1  0.4740630000000  0.5654070000000  0.5022770000000 1.0
C      1  0.4639310000000  0.4632310000000  0.4641500000000 1.0
C      1  0.5297460000000  0.5322470000000  0.4641390000000 1.0
C      1  0.4490820000000  0.4691620000000  0.5145600000000 1.0
C      1  0.5472440000000  0.5264350000000  0.5157310000000 1.0
C      1  0.5497390000000  0.5022240000000  0.5331630000000 1.0
C      1  0.4433180000000  0.4910170000000  0.5327710000000 1.0
C      1  0.5438580000000  0.4539790000000  0.5079030000000 1.0
C      1  0.4490790000000  0.5402680000000  0.5088870000000 1.0
C      1  0.5437140000000  0.5145810000000  0.4887270000000 1.0
C      1  0.4538850000000  0.4825830000000  0.4889670000000 1.0
C      1  0.5019530000000  0.5333690000000  0.4786540000000 1.0
C      1  0.4931190000000  0.4674510000000  0.4754640000000 1.0
C      1  0.5248780000000  0.4648550000000  0.4650680000000 1.0
C      1  0.4724350000000  0.5294370000000  0.4669320000000 1.0
C      1  0.5465200000000  0.5045060000000  0.4481720000000 1.0
C      1  0.4476200000000  0.4914500000000  0.4484740000000 1.0
C      1  0.5244530000000  0.5813520000000  0.4846460000000 1.0
C      1  0.4700120000000  0.4146110000000  0.4853060000000 1.0
C      1  0.5037170000000  0.4970190000000  0.6365470000000 1.0
C      1  0.4971500000000  0.4998820000000  0.4306390000000 1.0
C      1  0.5000380000000  0.4956940000000  0.6876580000000 1.0
C      1  0.5080910000000  0.5068250000000  0.5864620000000 1.0
C      1  0.4925750000000  0.5024980000000  0.6104900000000 1.0
C      1  0.4980330000000  0.5027870000000  0.5591690000000 1.0
C      1  0.4956110000000  0.4947860000000  0.4635560000000 1.0
C      1  0.5018050000000  0.5025760000000  0.5071430000000 1.0
C      1  0.5094960000000  0.5140370000000  0.5324710000000 1.0
C      1  0.5006000000000  0.5059370000000  0.3514840000000 1.0
C      1  0.4957120000000  0.4960530000000  0.3782170000000 1.0
C      1  0.4935800000000  0.4919270000000  0.3271480000000 1.0
C      1  0.5021890000000  0.5103310000000  0.4025140000000 1.0
C      1  0.4918000000000  0.5051660000000  0.6616090000000 1.0
END
