TITL C-3985247-764-478 8.5012700819502e-05 125000 -364.738767429147 0 0 60 (D5) n - 1
REM
REM in /home/nfs/bkarasulu/CARBON/AIRSS/Generating-Clusters/TERSOFF/Higher-Symm/Only-C60
REM
REM
REM
REM
REM
REM ./C.cell (28575a23ae977d3b5fae324c64b13b57)
REM
REM compiler GCC version 9.2.1 20190827 (Red Hat 9.2.1-1)
REM options -cpp -mtune=generic -march=x86-64 -g -O0 -fpre-include=/usr/include/finclude/math-vector-fortran.h
REM seed 422578087 -1667435503 584744245 -303417138 -922966240 -1511813061 1086688923 1566694934 188398646 1481922108 1510814754 1426509583 -468972937 -465228728 990265752 1900179460 1277576070 1416240822 -1132019614 895404881 681459599 792329944 -1147000134 -1433143900 1656998601 1728205084 1245112230 -524442140 -1053253516 -1060985888 -1587263743 -522834247 -1382154900
REM
CELL 1.54180   50.00000   50.00000   50.00000   90.00000   90.00000   90.00000
LATT -1
SFAC C  
C      1  0.4755320000000  0.4389610000000  0.4931850000000 1.0
C      1  0.4859620000000  0.4389580000000  0.5211850000000 1.0
C      1  0.5158120000000  0.4389560000000  0.5199160000000 1.0
C      1  0.5238350000000  0.4389400000000  0.4911270000000 1.0
C      1  0.4989290000000  0.4389480000000  0.4746110000000 1.0
C      1  0.4755070000000  0.5610610000000  0.5068200000000 1.0
C      1  0.4859460000000  0.5610540000000  0.4788150000000 1.0
C      1  0.5157800000000  0.5610370000000  0.4800780000000 1.0
C      1  0.5238170000000  0.5610360000000  0.5088710000000 1.0
C      1  0.4989150000000  0.5610530000000  0.5253870000000 1.0
C      1  0.5230650000000  0.5406520000000  0.5640710000000 1.0
C      1  0.5680570000000  0.5406300000000  0.4978560000000 1.0
C      1  0.5189810000000  0.5406300000000  0.4346000000000 1.0
C      1  0.4436670000000  0.5406540000000  0.4617180000000 1.0
C      1  0.4461850000000  0.5406550000000  0.5417390000000 1.0
C      1  0.5230700000000  0.4593430000000  0.4359270000000 1.0
C      1  0.5680850000000  0.4593410000000  0.5021440000000 1.0
C      1  0.5190000000000  0.4593640000000  0.5654030000000 1.0
C      1  0.4436860000000  0.4593640000000  0.5382720000000 1.0
C      1  0.4462100000000  0.4593640000000  0.4582660000000 1.0
C      1  0.4865660000000  0.4604370000000  0.5664000000000 1.0
C      1  0.5590090000000  0.4604260000000  0.5333140000000 1.0
C      1  0.5498990000000  0.4604240000000  0.4541780000000 1.0
C      1  0.4718480000000  0.4604460000000  0.4384040000000 1.0
C      1  0.4327170000000  0.4604400000000  0.5077310000000 1.0
C      1  0.4865580000000  0.5395590000000  0.4336010000000 1.0
C      1  0.5589760000000  0.5395480000000  0.4666950000000 1.0
C      1  0.5499010000000  0.5395760000000  0.5458150000000 1.0
C      1  0.4718390000000  0.5395740000000  0.5616090000000 1.0
C      1  0.4326930000000  0.5395760000000  0.4922550000000 1.0
C      1  0.5320240000000  0.4518010000000  0.5404070000000 1.0
C      1  0.5483340000000  0.4517750000000  0.4820360000000 1.0
C      1  0.4978540000000  0.4517960000000  0.4485050000000 1.0
C      1  0.4503730000000  0.4518080000000  0.4861380000000 1.0
C      1  0.4714780000000  0.4517980000000  0.5429350000000 1.0
C      1  0.5320160000000  0.5481840000000  0.4596090000000 1.0
C      1  0.5483100000000  0.5482020000000  0.5179620000000 1.0
C      1  0.4978400000000  0.5482110000000  0.5514990000000 1.0
C      1  0.4503420000000  0.5482190000000  0.5138570000000 1.0
C      1  0.4714610000000  0.5482080000000  0.4570610000000 1.0
C      1  0.5717970000000  0.4891320000000  0.5400660000000 1.0
C      1  0.5602710000000  0.4891150000000  0.4441030000000 1.0
C      1  0.4654670000000  0.4891290000000  0.4254000000000 1.0
C      1  0.4183880000000  0.4891400000000  0.5097820000000 1.0
C      1  0.4840830000000  0.4891370000000  0.5806560000000 1.0
C      1  0.5717680000000  0.5108490000000  0.4599480000000 1.0
C      1  0.5602840000000  0.5108730000000  0.5559010000000 1.0
C      1  0.4654640000000  0.5108760000000  0.5745980000000 1.0
C      1  0.4183670000000  0.5108800000000  0.4902060000000 1.0
C      1  0.4840780000000  0.5108640000000  0.4193430000000 1.0
C      1  0.5156990000000  0.4886130000000  0.5773990000000 1.0
C      1  0.5784540000000  0.4885910000000  0.5089910000000 1.0
C      1  0.5327840000000  0.4885880000000  0.4281550000000 1.0
C      1  0.4418050000000  0.4886080000000  0.4466150000000 1.0
C      1  0.4312570000000  0.4886120000000  0.5388350000000 1.0
C      1  0.5156910000000  0.5113860000000  0.4226060000000 1.0
C      1  0.5784370000000  0.5113820000000  0.4910170000000 1.0
C      1  0.5327850000000  0.5114020000000  0.5718370000000 1.0
C      1  0.4418040000000  0.5114050000000  0.5533820000000 1.0
C      1  0.4312380000000  0.5114090000000  0.4611550000000 1.0
END
