TITL C-3985250-725-1237 -0.000138837137231316 125000 -295.583817690673 0 0 60 (C3) n - 1
REM
REM in /home/nfs/bkarasulu/CARBON/AIRSS/Generating-Clusters/TERSOFF/Higher-Symm/Only-C60
REM
REM
REM
REM
REM
REM ./C.cell (28575a23ae977d3b5fae324c64b13b57)
REM
REM compiler GCC version 9.2.1 20190827 (Red Hat 9.2.1-1)
REM options -cpp -mtune=generic -march=x86-64 -g -O0 -fpre-include=/usr/include/finclude/math-vector-fortran.h
REM seed 1486179435 -1884245756 -2036320726 320105799 -1202188135 595335692 -1150227383 2119393082 -1361912910 -612406521 941074549 -2087232579 1279370695 -369061626 67273511 887797191 -967021858 -1358747865 -1490544300 595619798 -552421518 1223670593 -1466537803 1910408235 882252752 -1510472717 1808376273 -924188530 1437109186 1307272631 1034460277 -1714397975 1661858356
REM
CELL 1.54180   50.00000   50.00000   50.00000   90.00000   90.00000   90.00000
LATT -1
SFAC C  
C      1  0.5567500000000  0.4697510000000  0.5420430000000 1.0
C      1  0.5567520000000  0.5515340000000  0.5051750000000 1.0
C      1  0.5567500000000  0.4787150000000  0.4527800000000 1.0
C      1  0.4383370000000  0.4752140000000  0.5124580000000 1.0
C      1  0.4383160000000  0.5231670000000  0.5152290000000 1.0
C      1  0.4383740000000  0.5016060000000  0.4723160000000 1.0
C      1  0.4726980000000  0.5601700000000  0.5391240000000 1.0
C      1  0.4726910000000  0.5038010000000  0.4283340000000 1.0
C      1  0.4726960000000  0.4360300000000  0.5325450000000 1.0
C      1  0.4956410000000  0.4697450000000  0.4946180000000 1.0
C      1  0.4956380000000  0.5104650000000  0.5288880000000 1.0
C      1  0.4956460000000  0.5197890000000  0.4764860000000 1.0
C      1  0.5312280000000  0.4631360000000  0.5287640000000 1.0
C      1  0.5312270000000  0.5433440000000  0.5175410000000 1.0
C      1  0.5312240000000  0.4935180000000  0.4536910000000 1.0
C      1  0.5289980000000  0.4424680000000  0.4805930000000 1.0
C      1  0.5289970000000  0.5119600000000  0.5595260000000 1.0
C      1  0.5289960000000  0.5455740000000  0.4598760000000 1.0
C      1  0.4986190000000  0.5034640000000  0.5775100000000 1.0
C      1  0.4986160000000  0.5653960000000  0.4582460000000 1.0
C      1  0.4986210000000  0.4311400000000  0.4642430000000 1.0
C      1  0.5137020000000  0.4701830000000  0.4633150000000 1.0
C      1  0.5137010000000  0.4831380000000  0.5441630000000 1.0
C      1  0.5137060000000  0.5466790000000  0.4925200000000 1.0
C      1  0.5299170000000  0.5096480000000  0.4815850000000 1.0
C      1  0.5299130000000  0.4792310000000  0.5008520000000 1.0
C      1  0.5299110000000  0.5111230000000  0.5175590000000 1.0
C      1  0.4731850000000  0.4484290000000  0.4518060000000 1.0
C      1  0.4731790000000  0.4840530000000  0.5687560000000 1.0
C      1  0.4731860000000  0.5675270000000  0.4794370000000 1.0
C      1  0.5564430000000  0.4659050000000  0.4803900000000 1.0
C      1  0.5564410000000  0.5000660000000  0.5393310000000 1.0
C      1  0.5564450000000  0.5340330000000  0.4802720000000 1.0
C      1  0.4787850000000  0.5255800000000  0.5028540000000 1.0
C      1  0.4787770000000  0.4896880000000  0.4764230000000 1.0
C      1  0.4787650000000  0.4847400000000  0.5207170000000 1.0
C      1  0.4572840000000  0.5344180000000  0.5593480000000 1.0
C      1  0.4572830000000  0.5341910000000  0.4405330000000 1.0
C      1  0.4572860000000  0.4313870000000  0.5001300000000 1.0
C      1  0.5004180000000  0.4229180000000  0.5192780000000 1.0
C      1  0.5004160000000  0.5552370000000  0.5571180000000 1.0
C      1  0.5004080000000  0.5218510000000  0.4236040000000 1.0
C      1  0.4761900000000  0.4800760000000  0.4475530000000 1.0
C      1  0.4761880000000  0.4645420000000  0.5434780000000 1.0
C      1  0.4761950000000  0.5553870000000  0.5089680000000 1.0
C      1  0.4879030000000  0.4377640000000  0.4934830000000 1.0
C      1  0.4879020000000  0.5254740000000  0.5571530000000 1.0
C      1  0.4879020000000  0.5367620000000  0.4493650000000 1.0
C      1  0.4510100000000  0.4479210000000  0.4735840000000 1.0
C      1  0.4510040000000  0.5031660000000  0.5583040000000 1.0
C      1  0.4510110000000  0.5489140000000  0.4681230000000 1.0
C      1  0.5255350000000  0.4381220000000  0.5120720000000 1.0
C      1  0.5255310000000  0.5413950000000  0.5475510000000 1.0
C      1  0.5255280000000  0.5204820000000  0.4403710000000 1.0
C      1  0.5806960000000  0.5033820000000  0.5202410000000 1.0
C      1  0.5806940000000  0.5158330000000  0.4869510000000 1.0
C      1  0.5806960000000  0.4807820000000  0.4928040000000 1.0
C      1  0.4467000000000  0.5257310000000  0.4867290000000 1.0
C      1  0.4466810000000  0.4756200000000  0.4843640000000 1.0
C      1  0.4466650000000  0.4986380000000  0.5289300000000 1.0
END
