TITL C-3985245-9316-928 1.57217241707735e-08 125000 -346.051633042298 0 0 60 (C5) n - 1
REM
REM in /home/nfs/bkarasulu/CARBON/AIRSS/Generating-Clusters/TERSOFF/Higher-Symm/Only-C60
REM
REM
REM
REM
REM
REM ./C.cell (28575a23ae977d3b5fae324c64b13b57)
REM
REM compiler GCC version 9.2.1 20190827 (Red Hat 9.2.1-1)
REM options -cpp -mtune=generic -march=x86-64 -g -O0 -fpre-include=/usr/include/finclude/math-vector-fortran.h
REM seed -1273845750 150565758 -1822746619 -1652586480 -320775987 1390428649 -1933313050 -1912097749 -382439848 -327497465 1605100111 873146967 1121769438 -882055726 1453714771 812196491 -1668892150 1985005099 -34546521 1915895151 859823788 -10366299 -141831249 -930791222 1172319823 667894258 -1253430667 -167811591 1627447114 1816293312 -1134480333 1227460897 -199736839
REM
CELL 1.54180   50.00000   50.00000   50.00000   90.00000   90.00000   90.00000
LATT -1
SFAC C  
C      1  0.5512190000000  0.5467800000000  0.5160230000000 1.0
C      1  0.5603180000000  0.4657440000000  0.5160230000000 1.0
C      1  0.4860600000000  0.4320480000000  0.5160230000000 1.0
C      1  0.4310670000000  0.4922600000000  0.5160230000000 1.0
C      1  0.4713370000000  0.5631680000000  0.5160230000000 1.0
C      1  0.5512190000000  0.5467800000000  0.4839770000000 1.0
C      1  0.5603180000000  0.4657440000000  0.4839770000000 1.0
C      1  0.4860600000000  0.4320480000000  0.4839770000000 1.0
C      1  0.4310670000000  0.4922600000000  0.4839770000000 1.0
C      1  0.4713370000000  0.5631680000000  0.4839770000000 1.0
C      1  0.4536000000000  0.5452430000000  0.5349810000000 1.0
C      1  0.5286910000000  0.5581100000000  0.5349810000000 1.0
C      1  0.5641320000000  0.4906710000000  0.5349810000000 1.0
C      1  0.5109450000000  0.4361240000000  0.5349810000000 1.0
C      1  0.4426330000000  0.4698520000000  0.5349810000000 1.0
C      1  0.4536000000000  0.5452430000000  0.4650190000000 1.0
C      1  0.5286910000000  0.5581100000000  0.4650190000000 1.0
C      1  0.5641320000000  0.4906710000000  0.4650190000000 1.0
C      1  0.5109450000000  0.4361240000000  0.4650190000000 1.0
C      1  0.4426330000000  0.4698520000000  0.4650190000000 1.0
C      1  0.5017290000000  0.4738210000000  0.4292160000000 1.0
C      1  0.4756370000000  0.4902660000000  0.4292160000000 1.0
C      1  0.4832140000000  0.5201630000000  0.4292160000000 1.0
C      1  0.5139890000000  0.5221950000000  0.4292160000000 1.0
C      1  0.5254320000000  0.4935540000000  0.4292160000000 1.0
C      1  0.5017290000000  0.4738210000000  0.5707840000000 1.0
C      1  0.4756370000000  0.4902660000000  0.5707840000000 1.0
C      1  0.4832140000000  0.5201630000000  0.5707840000000 1.0
C      1  0.5139890000000  0.5221950000000  0.5707840000000 1.0
C      1  0.5254320000000  0.4935540000000  0.5707840000000 1.0
C      1  0.5531470000000  0.4865620000000  0.4374490000000 1.0
C      1  0.5036430000000  0.4453010000000  0.4374490000000 1.0
C      1  0.4491050000000  0.4796320000000  0.4374490000000 1.0
C      1  0.4649010000000  0.5421110000000  0.4374490000000 1.0
C      1  0.5292030000000  0.5463940000000  0.4374490000000 1.0
C      1  0.5531470000000  0.4865620000000  0.5625510000000 1.0
C      1  0.5036430000000  0.4453010000000  0.5625510000000 1.0
C      1  0.4491050000000  0.4796320000000  0.5625510000000 1.0
C      1  0.4649010000000  0.5421110000000  0.5625510000000 1.0
C      1  0.5292030000000  0.5463940000000  0.5625510000000 1.0
C      1  0.4844250000000  0.4787590000000  0.4841370000000 1.0
C      1  0.4749850000000  0.5082490000000  0.4841370000000 1.0
C      1  0.5001150000000  0.5263390000000  0.4841370000000 1.0
C      1  0.5250860000000  0.5080300000000  0.4841370000000 1.0
C      1  0.5153890000000  0.4786230000000  0.4841370000000 1.0
C      1  0.4844250000000  0.4787590000000  0.5158630000000 1.0
C      1  0.4749850000000  0.5082490000000  0.5158630000000 1.0
C      1  0.5001150000000  0.5263390000000  0.5158630000000 1.0
C      1  0.5250860000000  0.5080300000000  0.5158630000000 1.0
C      1  0.5153890000000  0.4786230000000  0.5158630000000 1.0
C      1  0.5317130000000  0.4560320000000  0.5248240000000 1.0
C      1  0.4679840000000  0.4562520000000  0.5248240000000 1.0
C      1  0.4485000000000  0.5169300000000  0.5248240000000 1.0
C      1  0.5001870000000  0.5542110000000  0.5248240000000 1.0
C      1  0.5516150000000  0.5165740000000  0.5248240000000 1.0
C      1  0.5317130000000  0.4560320000000  0.4751760000000 1.0
C      1  0.4679840000000  0.4562520000000  0.4751760000000 1.0
C      1  0.4485000000000  0.5169300000000  0.4751760000000 1.0
C      1  0.5001870000000  0.5542110000000  0.4751760000000 1.0
C      1  0.5516150000000  0.5165740000000  0.4751760000000 1.0
END
