TITL C-3985254-1270-1928 5.12191188290277e-07 125000 -370.93368180309 0 0 60 (D6h) n - 1
REM
REM in /home/nfs/bkarasulu/CARBON/AIRSS/Generating-Clusters/TERSOFF/Higher-Symm/Only-C60
REM
REM
REM
REM
REM
REM ./C.cell (28575a23ae977d3b5fae324c64b13b57)
REM
REM compiler GCC version 9.2.1 20190827 (Red Hat 9.2.1-1)
REM options -cpp -mtune=generic -march=x86-64 -g -O0 -fpre-include=/usr/include/finclude/math-vector-fortran.h
REM seed 1982846509 1747597009 955408567 -808753812 -1580680860 668120473 -1274988750 1864889819 -239982048 -298186442 -1744348340 -1629233997 1276396198 -1780234884 1742058574 194413760 -1645177981 -1472967629 1322411750 1346842107 1503389846 -1003520430 -2078956881 1607108475 2142810085 1954445537 1998251835 -1366046327 -2133035481 -573770897 -2093868298 -318329018 702404411
REM
CELL 1.54180   50.00000   50.00000   50.00000   90.00000   90.00000   90.00000
LATT -1
SFAC C  
C      1  0.4988600000000  0.5163740000000  0.5314420000000 1.0
C      1  0.4722010000000  0.5163740000000  0.5147340000000 1.0
C      1  0.4733410000000  0.5163740000000  0.4832920000000 1.0
C      1  0.5011400000000  0.5163740000000  0.4685580000000 1.0
C      1  0.5277990000000  0.5163740000000  0.4852660000000 1.0
C      1  0.5266590000000  0.5163740000000  0.5167080000000 1.0
C      1  0.4988600000000  0.4836260000000  0.5314420000000 1.0
C      1  0.4722010000000  0.4836260000000  0.5147340000000 1.0
C      1  0.4733410000000  0.4836260000000  0.4832920000000 1.0
C      1  0.5011400000000  0.4836260000000  0.4685580000000 1.0
C      1  0.5277990000000  0.4836260000000  0.4852660000000 1.0
C      1  0.5266590000000  0.4836260000000  0.5167080000000 1.0
C      1  0.5020170000000  0.4403380000000  0.4443440000000 1.0
C      1  0.5492080000000  0.4403380000000  0.4739190000000 1.0
C      1  0.5471910000000  0.4403380000000  0.5295750000000 1.0
C      1  0.4979830000000  0.4403380000000  0.5556560000000 1.0
C      1  0.4507920000000  0.4403380000000  0.5260810000000 1.0
C      1  0.4528090000000  0.4403380000000  0.4704250000000 1.0
C      1  0.5020170000000  0.5596620000000  0.4443440000000 1.0
C      1  0.5492080000000  0.5596620000000  0.4739190000000 1.0
C      1  0.5471910000000  0.5596620000000  0.5295750000000 1.0
C      1  0.4979830000000  0.5596620000000  0.5556560000000 1.0
C      1  0.4507920000000  0.5596620000000  0.5260810000000 1.0
C      1  0.4528090000000  0.5596620000000  0.4704250000000 1.0
C      1  0.4989190000000  0.4257810000000  0.5298220000000 1.0
C      1  0.4736330000000  0.4257810000000  0.5139750000000 1.0
C      1  0.4747140000000  0.4257810000000  0.4841530000000 1.0
C      1  0.5010810000000  0.4257810000000  0.4701780000000 1.0
C      1  0.5263670000000  0.4257810000000  0.4860250000000 1.0
C      1  0.5252860000000  0.4257810000000  0.5158470000000 1.0
C      1  0.4989190000000  0.5742190000000  0.5298220000000 1.0
C      1  0.4736330000000  0.5742190000000  0.5139750000000 1.0
C      1  0.4747140000000  0.5742190000000  0.4841530000000 1.0
C      1  0.5010810000000  0.5742190000000  0.4701780000000 1.0
C      1  0.5263670000000  0.5742190000000  0.4860250000000 1.0
C      1  0.5252860000000  0.5742190000000  0.5158470000000 1.0
C      1  0.5720390000000  0.5146960000000  0.4618180000000 1.0
C      1  0.5690870000000  0.5146960000000  0.5432970000000 1.0
C      1  0.4970470000000  0.5146960000000  0.5814790000000 1.0
C      1  0.4279610000000  0.5146960000000  0.5381820000000 1.0
C      1  0.4309130000000  0.5146960000000  0.4567030000000 1.0
C      1  0.5029530000000  0.5146960000000  0.4185210000000 1.0
C      1  0.5720390000000  0.4853040000000  0.4618180000000 1.0
C      1  0.5690870000000  0.4853040000000  0.5432970000000 1.0
C      1  0.4970470000000  0.4853040000000  0.5814790000000 1.0
C      1  0.4279610000000  0.4853040000000  0.5381820000000 1.0
C      1  0.4309130000000  0.4853040000000  0.4567030000000 1.0
C      1  0.5029530000000  0.4853040000000  0.4185210000000 1.0
C      1  0.5481760000000  0.4694890000000  0.5301920000000 1.0
C      1  0.4979410000000  0.4694890000000  0.5568170000000 1.0
C      1  0.4497650000000  0.4694890000000  0.5266250000000 1.0
C      1  0.4518240000000  0.4694890000000  0.4698080000000 1.0
C      1  0.5020590000000  0.4694890000000  0.4431830000000 1.0
C      1  0.5502350000000  0.4694890000000  0.4733750000000 1.0
C      1  0.5481760000000  0.5305110000000  0.5301920000000 1.0
C      1  0.4979410000000  0.5305110000000  0.5568170000000 1.0
C      1  0.4497650000000  0.5305110000000  0.5266250000000 1.0
C      1  0.4518240000000  0.5305110000000  0.4698080000000 1.0
C      1  0.5020590000000  0.5305110000000  0.4431830000000 1.0
C      1  0.5502350000000  0.5305110000000  0.4733750000000 1.0
END
