TITL C-3985252-168-231 1.98819302842075e-07 125000 -311.070509447394 0 0 60 (C6h) n - 1
REM
REM in /home/nfs/bkarasulu/CARBON/AIRSS/Generating-Clusters/TERSOFF/Higher-Symm/Only-C60
REM
REM
REM
REM
REM
REM ./C.cell (28575a23ae977d3b5fae324c64b13b57)
REM
REM compiler GCC version 9.2.1 20190827 (Red Hat 9.2.1-1)
REM options -cpp -mtune=generic -march=x86-64 -g -O0 -fpre-include=/usr/include/finclude/math-vector-fortran.h
REM seed 1468752155 1804381683 730329594 -685078632 1758162103 1691388410 -1981495873 570780625 -1536995217 1817765171 909525367 -555842747 96379590 -840229637 1305076087 -552227648 -1936518415 1509636694 1416013036 -273805599 -134680415 -716095700 -416649798 -1137857829 -751058889 -989870424 -600219043 1787472236 119597388 -695117457 1523073358 -1984439290 2138145668
REM
CELL 1.54180   50.00000   50.00000   50.00000   90.00000   90.00000   90.00000
LATT -1
SFAC C  
C      1  0.5327220000000  0.5550310000000  0.5027810000000 1.0
C      1  0.5187700000000  0.5550310000000  0.4730530000000 1.0
C      1  0.4860480000000  0.5550310000000  0.4702710000000 1.0
C      1  0.4672780000000  0.5550310000000  0.4972190000000 1.0
C      1  0.4812300000000  0.5550310000000  0.5269470000000 1.0
C      1  0.5139520000000  0.5550310000000  0.5297290000000 1.0
C      1  0.5327220000000  0.4449690000000  0.5027810000000 1.0
C      1  0.5187700000000  0.4449690000000  0.4730530000000 1.0
C      1  0.4860480000000  0.4449690000000  0.4702710000000 1.0
C      1  0.4672780000000  0.4449690000000  0.4972190000000 1.0
C      1  0.4812300000000  0.4449690000000  0.5269470000000 1.0
C      1  0.5139520000000  0.4449690000000  0.5297290000000 1.0
C      1  0.5762330000000  0.5181590000000  0.4874320000000 1.0
C      1  0.5272320000000  0.5181590000000  0.4276960000000 1.0
C      1  0.4509990000000  0.5181590000000  0.4402650000000 1.0
C      1  0.4237670000000  0.5181590000000  0.5125680000000 1.0
C      1  0.4727680000000  0.5181590000000  0.5723040000000 1.0
C      1  0.5490010000000  0.5181590000000  0.5597350000000 1.0
C      1  0.5762330000000  0.4818410000000  0.4874320000000 1.0
C      1  0.5272320000000  0.4818410000000  0.4276960000000 1.0
C      1  0.4509990000000  0.4818410000000  0.4402650000000 1.0
C      1  0.4237670000000  0.4818410000000  0.5125680000000 1.0
C      1  0.4727680000000  0.4818410000000  0.5723040000000 1.0
C      1  0.5490010000000  0.4818410000000  0.5597350000000 1.0
C      1  0.4439160000000  0.4834970000000  0.4701700000000 1.0
C      1  0.4461240000000  0.4834970000000  0.5336550000000 1.0
C      1  0.5022080000000  0.4834970000000  0.5634850000000 1.0
C      1  0.5560840000000  0.4834970000000  0.5298300000000 1.0
C      1  0.5538760000000  0.4834970000000  0.4663450000000 1.0
C      1  0.4977920000000  0.4834970000000  0.4365150000000 1.0
C      1  0.4439160000000  0.5165030000000  0.4701700000000 1.0
C      1  0.4461240000000  0.5165030000000  0.5336550000000 1.0
C      1  0.5022080000000  0.5165030000000  0.5634850000000 1.0
C      1  0.5560840000000  0.5165030000000  0.5298300000000 1.0
C      1  0.5538760000000  0.5165030000000  0.4663450000000 1.0
C      1  0.4977920000000  0.5165030000000  0.4365150000000 1.0
C      1  0.5272890000000  0.4842570000000  0.4848400000000 1.0
C      1  0.5005160000000  0.4842570000000  0.4687870000000 1.0
C      1  0.4732270000000  0.4842570000000  0.4839470000000 1.0
C      1  0.4727110000000  0.4842570000000  0.5151600000000 1.0
C      1  0.4994840000000  0.4842570000000  0.5312130000000 1.0
C      1  0.5267730000000  0.4842570000000  0.5160530000000 1.0
C      1  0.5272890000000  0.5157430000000  0.4848400000000 1.0
C      1  0.5005160000000  0.5157430000000  0.4687870000000 1.0
C      1  0.4732270000000  0.5157430000000  0.4839470000000 1.0
C      1  0.4727110000000  0.5157430000000  0.5151600000000 1.0
C      1  0.4994840000000  0.5157430000000  0.5312130000000 1.0
C      1  0.5267730000000  0.5157430000000  0.5160530000000 1.0
C      1  0.4622770000000  0.5375100000000  0.5495050000000 1.0
C      1  0.5240110000000  0.5375100000000  0.5574220000000 1.0
C      1  0.5617340000000  0.5375100000000  0.5079170000000 1.0
C      1  0.5377230000000  0.5375100000000  0.4504950000000 1.0
C      1  0.4759890000000  0.5375100000000  0.4425780000000 1.0
C      1  0.4382660000000  0.5375100000000  0.4920830000000 1.0
C      1  0.4622770000000  0.4624900000000  0.5495050000000 1.0
C      1  0.5240110000000  0.4624900000000  0.5574220000000 1.0
C      1  0.5617340000000  0.4624900000000  0.5079170000000 1.0
C      1  0.5377230000000  0.4624900000000  0.4504950000000 1.0
C      1  0.4759890000000  0.4624900000000  0.4425780000000 1.0
C      1  0.4382660000000  0.4624900000000  0.4920830000000 1.0
END
