TITL C-3985250-725-976 -0.00131067468912185 125000 -327.957720796375 0 0 60 (S10) n - 1
REM
REM in /home/nfs/bkarasulu/CARBON/AIRSS/Generating-Clusters/TERSOFF/Higher-Symm/Only-C60
REM
REM
REM
REM
REM
REM ./C.cell (28575a23ae977d3b5fae324c64b13b57)
REM
REM compiler GCC version 9.2.1 20190827 (Red Hat 9.2.1-1)
REM options -cpp -mtune=generic -march=x86-64 -g -O0 -fpre-include=/usr/include/finclude/math-vector-fortran.h
REM seed 1844552406 -297345974 -580960971 219729409 -1387188827 -1690364746 100490808 -718396187 -302242491 1080753169 2087273347 1318080286 -264719524 -1719169773 953763184 808972250 -642652515 1935988854 -825620596 -909011886 933543504 -2070676482 1809232950 352054735 1755497457 826944633 -680496719 -1518995609 2110832246 -1301393594 -238771050 -272600309 1286189370
REM
CELL 1.54180   50.00000   50.00000   50.00000   90.00000   90.00000   90.00000
LATT -1
SFAC C  
C      1  0.5079050000000  0.4755670000000  0.4438940000000 1.0
C      1  0.4920970000000  0.4755960000000  0.5560640000000 1.0
C      1  0.4792040000000  0.4848680000000  0.4438730000000 1.0
C      1  0.4743850000000  0.4999940000000  0.5560600000000 1.0
C      1  0.4792150000000  0.5150560000000  0.4438780000000 1.0
C      1  0.4920950000000  0.5244330000000  0.5561060000000 1.0
C      1  0.5079030000000  0.5244040000000  0.4439360000000 1.0
C      1  0.5207960000000  0.5151320000000  0.5561270000000 1.0
C      1  0.5256150000000  0.5000060000000  0.4439400000000 1.0
C      1  0.5207850000000  0.4849440000000  0.5561220000000 1.0
C      1  0.5672690000000  0.5146040000000  0.5290120000000 1.0
C      1  0.5628960000000  0.4722950000000  0.4710680000000 1.0
C      1  0.5346570000000  0.4405880000000  0.5289790000000 1.0
C      1  0.4930680000000  0.4314940000000  0.4709370000000 1.0
C      1  0.4541780000000  0.4486800000000  0.5289820000000 1.0
C      1  0.4327310000000  0.4853960000000  0.4709880000000 1.0
C      1  0.4371040000000  0.5277050000000  0.5289320000000 1.0
C      1  0.4653430000000  0.5594120000000  0.4710210000000 1.0
C      1  0.5069320000000  0.5685060000000  0.5290630000000 1.0
C      1  0.5458220000000  0.5513200000000  0.4710180000000 1.0
C      1  0.5692540000000  0.4847100000000  0.5330310000000 1.0
C      1  0.5470060000000  0.4469150000000  0.4670040000000 1.0
C      1  0.5068880000000  0.4293970000000  0.5329450000000 1.0
C      1  0.4640040000000  0.4387910000000  0.4669670000000 1.0
C      1  0.4349890000000  0.4716720000000  0.5329990000000 1.0
C      1  0.4307460000000  0.5152900000000  0.4669690000000 1.0
C      1  0.4529940000000  0.5530850000000  0.5329960000000 1.0
C      1  0.4931120000000  0.5706030000000  0.4670550000000 1.0
C      1  0.5359960000000  0.5612090000000  0.5330330000000 1.0
C      1  0.5650110000000  0.5283280000000  0.4670010000000 1.0
C      1  0.4596360000000  0.5290590000000  0.4610070000000 1.0
C      1  0.4844840000000  0.5472560000000  0.5389910000000 1.0
C      1  0.5151650000000  0.5473480000000  0.4610410000000 1.0
C      1  0.5401760000000  0.5294170000000  0.5390150000000 1.0
C      1  0.5496790000000  0.5001830000000  0.4610700000000 1.0
C      1  0.5403640000000  0.4709410000000  0.5389930000000 1.0
C      1  0.5155160000000  0.4527440000000  0.4610090000000 1.0
C      1  0.4848350000000  0.4526520000000  0.5389590000000 1.0
C      1  0.4598240000000  0.4705830000000  0.4609850000000 1.0
C      1  0.4503210000000  0.4998170000000  0.5389300000000 1.0
C      1  0.5418700000000  0.4341410000000  0.4980780000000 1.0
C      1  0.4951040000000  0.4220560000000  0.5018390000000 1.0
C      1  0.4502230000000  0.4397760000000  0.4981000000000 1.0
C      1  0.4243690000000  0.4806240000000  0.5019080000000 1.0
C      1  0.4274560000000  0.5287200000000  0.4980430000000 1.0
C      1  0.4581300000000  0.5658590000000  0.5019220000000 1.0
C      1  0.5048960000000  0.5779440000000  0.4981610000000 1.0
C      1  0.5497770000000  0.5602240000000  0.5019000000000 1.0
C      1  0.5756310000000  0.5193760000000  0.4980920000000 1.0
C      1  0.5725440000000  0.4712800000000  0.5019570000000 1.0
C      1  0.4621880000000  0.5235800000000  0.4934130000000 1.0
C      1  0.4833040000000  0.5413310000000  0.5065580000000 1.0
C      1  0.5107900000000  0.5433170000000  0.4934910000000 1.0
C      1  0.5342010000000  0.5287380000000  0.5065860000000 1.0
C      1  0.5444970000000  0.5031570000000  0.4935010000000 1.0
C      1  0.5378120000000  0.4764200000000  0.5065870000000 1.0
C      1  0.5166960000000  0.4586690000000  0.4934420000000 1.0
C      1  0.4892100000000  0.4566830000000  0.5065090000000 1.0
C      1  0.4657990000000  0.4712620000000  0.4934140000000 1.0
C      1  0.4555030000000  0.4968430000000  0.5064990000000 1.0
END
