TITL C-3985259-1859-1327 -4.40557785530207e-07 125000 -327.23560740486 0 0 60 (C5) n - 1
REM
REM in /home/nfs/bkarasulu/CARBON/AIRSS/Generating-Clusters/TERSOFF/Higher-Symm/Only-C60
REM
REM
REM
REM
REM
REM ./C.cell (28575a23ae977d3b5fae324c64b13b57)
REM
REM compiler GCC version 9.2.1 20190827 (Red Hat 9.2.1-1)
REM options -cpp -mtune=generic -march=x86-64 -g -O0 -fpre-include=/usr/include/finclude/math-vector-fortran.h
REM seed 462363037 178037706 -575982350 -1312875241 -1185503053 888988445 -36794563 529798768 -1037513424 1550193315 -1779049577 -1461831649 67258133 -405694685 -704977867 -968516552 1325356896 -789131654 -713445111 136146146 131857359 -564480103 -1709334290 1708176695 -71689869 2147469027 -827015187 -543641674 1695422672 650798573 -1166062575 -1520581307 -1397621727
REM
CELL 1.54180   50.00000   50.00000   50.00000   90.00000   90.00000   90.00000
LATT -1
SFAC C  
C      1  0.4743460000000  0.5349680000000  0.5061170000000 1.0
C      1  0.4862550000000  0.5349680000000  0.4774920000000 1.0
C      1  0.5171590000000  0.5349680000000  0.4799720000000 1.0
C      1  0.5243500000000  0.5349680000000  0.5101300000000 1.0
C      1  0.4978900000000  0.5349680000000  0.5262890000000 1.0
C      1  0.4743460000000  0.4650320000000  0.5061170000000 1.0
C      1  0.4862550000000  0.4650320000000  0.4774920000000 1.0
C      1  0.5171590000000  0.4650320000000  0.4799720000000 1.0
C      1  0.5243500000000  0.4650320000000  0.5101300000000 1.0
C      1  0.4978900000000  0.4650320000000  0.5262890000000 1.0
C      1  0.5314590000000  0.4358630000000  0.4685640000000 1.0
C      1  0.5396190000000  0.4358630000000  0.5202050000000 1.0
C      1  0.4930270000000  0.4358630000000  0.5439230000000 1.0
C      1  0.4560720000000  0.4358630000000  0.5069410000000 1.0
C      1  0.4798240000000  0.4358630000000  0.4603660000000 1.0
C      1  0.5314590000000  0.5641370000000  0.4685640000000 1.0
C      1  0.5396190000000  0.5641370000000  0.5202050000000 1.0
C      1  0.4930270000000  0.5641370000000  0.5439230000000 1.0
C      1  0.4560720000000  0.5641370000000  0.5069410000000 1.0
C      1  0.4798240000000  0.5641370000000  0.4603660000000 1.0
C      1  0.4619870000000  0.4408690000000  0.5381270000000 1.0
C      1  0.4519920000000  0.4408690000000  0.4756290000000 1.0
C      1  0.5083430000000  0.4408690000000  0.4468110000000 1.0
C      1  0.5531640000000  0.4408690000000  0.4914980000000 1.0
C      1  0.5245150000000  0.4408690000000  0.5479350000000 1.0
C      1  0.4619870000000  0.5591310000000  0.5381270000000 1.0
C      1  0.4519920000000  0.5591310000000  0.4756290000000 1.0
C      1  0.5083430000000  0.5591310000000  0.4468110000000 1.0
C      1  0.5531640000000  0.5591310000000  0.4914980000000 1.0
C      1  0.5245150000000  0.5591310000000  0.5479350000000 1.0
C      1  0.5278490000000  0.4692120000000  0.5584710000000 1.0
C      1  0.4529960000000  0.4692120000000  0.5445550000000 1.0
C      1  0.4431010000000  0.4692120000000  0.4690650000000 1.0
C      1  0.5118380000000  0.4692120000000  0.4363270000000 1.0
C      1  0.5642150000000  0.4692120000000  0.4915830000000 1.0
C      1  0.5278490000000  0.5307880000000  0.5584710000000 1.0
C      1  0.4529960000000  0.5307880000000  0.5445550000000 1.0
C      1  0.4431010000000  0.5307880000000  0.4690650000000 1.0
C      1  0.5118380000000  0.5307880000000  0.4363270000000 1.0
C      1  0.5642150000000  0.5307880000000  0.4915830000000 1.0
C      1  0.4506950000000  0.4841050000000  0.5169160000000 1.0
C      1  0.4686760000000  0.4841050000000  0.4583350000000 1.0
C      1  0.5299460000000  0.4841050000000  0.4573340000000 1.0
C      1  0.5498320000000  0.4841050000000  0.5152960000000 1.0
C      1  0.5008520000000  0.4841050000000  0.5521190000000 1.0
C      1  0.4506950000000  0.5158950000000  0.5169160000000 1.0
C      1  0.4686760000000  0.5158950000000  0.4583350000000 1.0
C      1  0.5299460000000  0.5158950000000  0.4573340000000 1.0
C      1  0.5498320000000  0.5158950000000  0.5152960000000 1.0
C      1  0.5008520000000  0.5158950000000  0.5521190000000 1.0
C      1  0.5610810000000  0.5160420000000  0.4659450000000 1.0
C      1  0.5512630000000  0.5160420000000  0.5475680000000 1.0
C      1  0.4706020000000  0.5160420000000  0.5634540000000 1.0
C      1  0.4305670000000  0.5160420000000  0.4916490000000 1.0
C      1  0.4864870000000  0.5160420000000  0.4313850000000 1.0
C      1  0.5610810000000  0.4839580000000  0.4659450000000 1.0
C      1  0.5512630000000  0.4839580000000  0.5475680000000 1.0
C      1  0.4706020000000  0.4839580000000  0.5634540000000 1.0
C      1  0.4305670000000  0.4839580000000  0.4916490000000 1.0
C      1  0.4864870000000  0.4839580000000  0.4313850000000 1.0
END
