TITL C-3985259-1859-148 1.11403884123272e-07 125000 -300.430856893254 0 0 60 (T23) n - 1
REM
REM in /home/nfs/bkarasulu/CARBON/AIRSS/Generating-Clusters/TERSOFF/Higher-Symm/Only-C60
REM
REM
REM
REM
REM
REM ./C.cell (28575a23ae977d3b5fae324c64b13b57)
REM
REM compiler GCC version 9.2.1 20190827 (Red Hat 9.2.1-1)
REM options -cpp -mtune=generic -march=x86-64 -g -O0 -fpre-include=/usr/include/finclude/math-vector-fortran.h
REM seed 843659448 1734217723 -974406179 1518174143 174809341 892292692 1734867411 1004657375 -2067417075 -875789540 -455328328 -2049256591 1599299329 341192602 -143879895 1323835625 -321272622 863017964 602974331 -192991899 2106955084 -348086829 -399265172 435828099 -1752600072 -1067711633 455214357 1439737047 463415602 -1033991225 -1556522964 -1599560510 544717753
REM
CELL 1.54180   50.00000   50.00000   50.00000   90.00000   90.00000   90.00000
LATT -1
SFAC C  
C      1  0.4493110000000  0.4724740000000  0.4873460000000 1.0
C      1  0.4870540000000  0.4481720000000  0.4739040000000 1.0
C      1  0.4736130000000  0.4859160000000  0.4496030000000 1.0
C      1  0.4493110000000  0.5264030000000  0.5143910000000 1.0
C      1  0.5518430000000  0.5264030000000  0.4873460000000 1.0
C      1  0.5518430000000  0.4724740000000  0.5143910000000 1.0
C      1  0.4870540000000  0.5507040000000  0.5278320000000 1.0
C      1  0.5141000000000  0.5507050000000  0.4739050000000 1.0
C      1  0.5141000000000  0.4481720000000  0.5278330000000 1.0
C      1  0.4736130000000  0.5129610000000  0.5521350000000 1.0
C      1  0.5275410000000  0.5129610000000  0.4496030000000 1.0
C      1  0.5275400000000  0.4859150000000  0.5521340000000 1.0
C      1  0.4864530000000  0.5279120000000  0.4373320000000 1.0
C      1  0.4370410000000  0.4853140000000  0.5293420000000 1.0
C      1  0.5290500000000  0.4359020000000  0.4867440000000 1.0
C      1  0.4864530000000  0.4709660000000  0.5644050000000 1.0
C      1  0.5147010000000  0.4709650000000  0.4373320000000 1.0
C      1  0.5147010000000  0.5279120000000  0.5644050000000 1.0
C      1  0.4370410000000  0.5135630000000  0.4723950000000 1.0
C      1  0.5641130000000  0.5135630000000  0.5293420000000 1.0
C      1  0.5641130000000  0.4853140000000  0.4723950000000 1.0
C      1  0.5290500000000  0.5629750000000  0.5149930000000 1.0
C      1  0.4721040000000  0.5629750000000  0.4867440000000 1.0
C      1  0.4721040000000  0.4359020000000  0.5149930000000 1.0
C      1  0.4882420000000  0.4600810000000  0.4474550000000 1.0
C      1  0.4471640000000  0.4871030000000  0.4615120000000 1.0
C      1  0.4612200000000  0.4460250000000  0.4885340000000 1.0
C      1  0.4882420000000  0.5387950000000  0.5542810000000 1.0
C      1  0.5129120000000  0.5387960000000  0.4474560000000 1.0
C      1  0.5129120000000  0.4600810000000  0.5542820000000 1.0
C      1  0.4471640000000  0.5117730000000  0.5402250000000 1.0
C      1  0.5539900000000  0.5117740000000  0.4615120000000 1.0
C      1  0.5539900000000  0.4871030000000  0.5402250000000 1.0
C      1  0.4612200000000  0.5528520000000  0.5132040000000 1.0
C      1  0.5399340000000  0.5528520000000  0.4885330000000 1.0
C      1  0.5399340000000  0.4460250000000  0.5132040000000 1.0
C      1  0.5005770000000  0.4994380000000  0.4204670000000 1.0
C      1  0.4201760000000  0.4994390000000  0.5008680000000 1.0
C      1  0.5005770000000  0.4190370000000  0.5008680000000 1.0
C      1  0.5005770000000  0.4994390000000  0.5812700000000 1.0
C      1  0.5809780000000  0.4994380000000  0.5008690000000 1.0
C      1  0.5005770000000  0.5798400000000  0.5008690000000 1.0
C      1  0.5005770000000  0.5355500000000  0.5008690000000 1.0
C      1  0.5005770000000  0.4994390000000  0.5369800000000 1.0
C      1  0.5366880000000  0.4994380000000  0.5008690000000 1.0
C      1  0.5005770000000  0.4633270000000  0.5008690000000 1.0
C      1  0.5005770000000  0.4994380000000  0.4647580000000 1.0
C      1  0.4644660000000  0.4994390000000  0.5008690000000 1.0
C      1  0.5559930000000  0.4440220000000  0.4454520000000 1.0
C      1  0.4451610000000  0.5548550000000  0.4454520000000 1.0
C      1  0.4451610000000  0.4440220000000  0.5562850000000 1.0
C      1  0.5559930000000  0.5548550000000  0.5562850000000 1.0
C      1  0.4632900000000  0.5367250000000  0.4635820000000 1.0
C      1  0.4632900000000  0.4621520000000  0.5381560000000 1.0
C      1  0.5378640000000  0.4621510000000  0.4635810000000 1.0
C      1  0.5378640000000  0.5367260000000  0.5381560000000 1.0
C      1  0.5184810000000  0.4815340000000  0.4829640000000 1.0
C      1  0.4826730000000  0.5173430000000  0.4829640000000 1.0
C      1  0.4826730000000  0.4815340000000  0.5187730000000 1.0
C      1  0.5184810000000  0.5173430000000  0.5187730000000 1.0
END
