TITL C-3985252-168-266 -2.93726464957653e-07 125000 -300.504496213885 0 0 60 (C4v) n - 1
REM
REM in /home/nfs/bkarasulu/CARBON/AIRSS/Generating-Clusters/TERSOFF/Higher-Symm/Only-C60
REM
REM
REM
REM
REM
REM ./C.cell (28575a23ae977d3b5fae324c64b13b57)
REM
REM compiler GCC version 9.2.1 20190827 (Red Hat 9.2.1-1)
REM options -cpp -mtune=generic -march=x86-64 -g -O0 -fpre-include=/usr/include/finclude/math-vector-fortran.h
REM seed -1084838011 1140588412 -1065735647 -1317180425 -900854804 777066144 1879631289 -970829773 244172807 936676350 -740685523 1148804794 77097438 -145830190 -221958193 2056320503 602300044 633486673 1240537199 367080411 -624642409 1243553833 948155011 348981064 164370018 -965062993 1421283860 467571819 -1420576208 435875275 -490624119 -1710751886 -2021534073
REM
CELL 1.54180   50.00000   50.00000   50.00000   90.00000   90.00000   90.00000
LATT -1
SFAC C  
C      1  0.5422540000000  0.4832280000000  0.4528020000000 1.0
C      1  0.5167720000000  0.5422540000000  0.4528020000000 1.0
C      1  0.4577460000000  0.5167720000000  0.4528020000000 1.0
C      1  0.4832280000000  0.4577460000000  0.4528020000000 1.0
C      1  0.5422540000000  0.5167720000000  0.4528020000000 1.0
C      1  0.5167720000000  0.4577460000000  0.4528020000000 1.0
C      1  0.4577460000000  0.4832280000000  0.4528020000000 1.0
C      1  0.4832280000000  0.5422540000000  0.4528020000000 1.0
C      1  0.4839570000000  0.4627680000000  0.5535450000000 1.0
C      1  0.5372320000000  0.4839570000000  0.5535450000000 1.0
C      1  0.5160430000000  0.5372320000000  0.5535450000000 1.0
C      1  0.4627680000000  0.5160430000000  0.5535450000000 1.0
C      1  0.4839570000000  0.5372320000000  0.5535450000000 1.0
C      1  0.5372320000000  0.5160430000000  0.5535450000000 1.0
C      1  0.5160430000000  0.4627680000000  0.5535450000000 1.0
C      1  0.4627680000000  0.4839570000000  0.5535450000000 1.0
C      1  0.4607940000000  0.4226990000000  0.4840960000000 1.0
C      1  0.5773010000000  0.4607940000000  0.4840960000000 1.0
C      1  0.5392060000000  0.5773010000000  0.4840960000000 1.0
C      1  0.4226990000000  0.5392060000000  0.4840960000000 1.0
C      1  0.4607940000000  0.5773010000000  0.4840960000000 1.0
C      1  0.5773010000000  0.5392060000000  0.4840960000000 1.0
C      1  0.5392060000000  0.4226990000000  0.4840960000000 1.0
C      1  0.4226990000000  0.4607940000000  0.4840960000000 1.0
C      1  0.4359090000000  0.4584200000000  0.4574730000000 1.0
C      1  0.5415800000000  0.4359090000000  0.4574730000000 1.0
C      1  0.5640910000000  0.5415800000000  0.4574730000000 1.0
C      1  0.4584200000000  0.5640910000000  0.4574730000000 1.0
C      1  0.4359090000000  0.5415800000000  0.4574730000000 1.0
C      1  0.5415800000000  0.5640910000000  0.4574730000000 1.0
C      1  0.5640910000000  0.4584200000000  0.4574730000000 1.0
C      1  0.4584200000000  0.4359090000000  0.4574730000000 1.0
C      1  0.4831200000000  0.5395460000000  0.4871370000000 1.0
C      1  0.4604540000000  0.4831200000000  0.4871370000000 1.0
C      1  0.5168800000000  0.4604540000000  0.4871370000000 1.0
C      1  0.5395460000000  0.5168800000000  0.4871370000000 1.0
C      1  0.4831200000000  0.4604540000000  0.4871370000000 1.0
C      1  0.4604540000000  0.5168800000000  0.4871370000000 1.0
C      1  0.5168800000000  0.5395460000000  0.4871370000000 1.0
C      1  0.5395460000000  0.4831200000000  0.4871370000000 1.0
C      1  0.5169850000000  0.5613630000000  0.5320240000000 1.0
C      1  0.4386370000000  0.5169850000000  0.5320240000000 1.0
C      1  0.4830150000000  0.4386370000000  0.5320240000000 1.0
C      1  0.5613630000000  0.4830150000000  0.5320240000000 1.0
C      1  0.5169850000000  0.4386370000000  0.5320240000000 1.0
C      1  0.4386370000000  0.4830150000000  0.5320240000000 1.0
C      1  0.4830150000000  0.5613630000000  0.5320240000000 1.0
C      1  0.5613630000000  0.5169850000000  0.5320240000000 1.0
C      1  0.4418990000000  0.4660680000000  0.5073000000000 1.0
C      1  0.5339320000000  0.4418990000000  0.5073000000000 1.0
C      1  0.5581010000000  0.5339320000000  0.5073000000000 1.0
C      1  0.4660680000000  0.5581010000000  0.5073000000000 1.0
C      1  0.4418990000000  0.5339320000000  0.5073000000000 1.0
C      1  0.5339320000000  0.5581010000000  0.5073000000000 1.0
C      1  0.5581010000000  0.4660680000000  0.5073000000000 1.0
C      1  0.4660680000000  0.4418990000000  0.5073000000000 1.0
C      1  0.5000000000000  0.4771490000000  0.5132040000000 1.0
C      1  0.5000000000000  0.5228510000000  0.5132040000000 1.0
C      1  0.4771490000000  0.5000000000000  0.5132040000000 1.0
C      1  0.5228510000000  0.5000000000000  0.5132040000000 1.0
END
