TITL C-3985246-2097-27 -5.76351262539675e-07 125000 -351.356933970631 0 0 60 (D6h) n - 1
REM
REM in /home/nfs/bkarasulu/CARBON/AIRSS/Generating-Clusters/TERSOFF/Higher-Symm/Only-C60
REM
REM
REM
REM
REM
REM ./C.cell (28575a23ae977d3b5fae324c64b13b57)
REM
REM compiler GCC version 9.2.1 20190827 (Red Hat 9.2.1-1)
REM options -cpp -mtune=generic -march=x86-64 -g -O0 -fpre-include=/usr/include/finclude/math-vector-fortran.h
REM seed 155759180 -1376672712 -1939367766 -276763579 -882929878 141366788 660277723 -1086709288 -2097220513 -2081969723 1125001492 -1214176708 -344584475 -1196787944 -996644620 -1858261421 -809598668 -1272374421 1488181629 543738539 280218219 -931776424 -1053905339 1447337842 -643884142 356600595 -2094231164 -1925647167 -783446078 285866942 -2024869417 1717580500 1500293752
REM
CELL 1.54180   50.00000   50.00000   50.00000   90.00000   90.00000   90.00000
LATT -1
SFAC C  
C      1  0.5167600000000  0.4835470000000  0.4715030000000 1.0
C      1  0.5167600000000  0.4835470000000  0.5284970000000 1.0
C      1  0.5167600000000  0.5329060000000  0.5000000000000 1.0
C      1  0.4832400000000  0.4835470000000  0.4715030000000 1.0
C      1  0.4832400000000  0.4835470000000  0.5284970000000 1.0
C      1  0.4832400000000  0.5329060000000  0.5000000000000 1.0
C      1  0.5167600000000  0.5164530000000  0.4715030000000 1.0
C      1  0.5167600000000  0.5164530000000  0.5284970000000 1.0
C      1  0.5167600000000  0.4670940000000  0.5000000000000 1.0
C      1  0.4832400000000  0.5164530000000  0.4715030000000 1.0
C      1  0.4832400000000  0.5164530000000  0.5284970000000 1.0
C      1  0.4832400000000  0.4670940000000  0.5000000000000 1.0
C      1  0.4594560000000  0.4284010000000  0.5249490000000 1.0
C      1  0.4594560000000  0.5574060000000  0.5495320000000 1.0
C      1  0.4594560000000  0.5141940000000  0.4255190000000 1.0
C      1  0.5405440000000  0.4284010000000  0.5249490000000 1.0
C      1  0.5405440000000  0.5574060000000  0.5495320000000 1.0
C      1  0.5405440000000  0.5141940000000  0.4255190000000 1.0
C      1  0.4594560000000  0.5715990000000  0.5249490000000 1.0
C      1  0.4594560000000  0.4425940000000  0.5495320000000 1.0
C      1  0.4594560000000  0.4858060000000  0.4255190000000 1.0
C      1  0.5405440000000  0.5715990000000  0.5249490000000 1.0
C      1  0.5405440000000  0.4425940000000  0.5495320000000 1.0
C      1  0.5405440000000  0.4858060000000  0.4255190000000 1.0
C      1  0.4413600000000  0.4698780000000  0.5000000000000 1.0
C      1  0.4413600000000  0.5150610000000  0.5260860000000 1.0
C      1  0.4413600000000  0.5150610000000  0.4739140000000 1.0
C      1  0.5586400000000  0.4698780000000  0.5000000000000 1.0
C      1  0.5586400000000  0.5150610000000  0.5260860000000 1.0
C      1  0.5586400000000  0.5150610000000  0.4739140000000 1.0
C      1  0.4413600000000  0.5301220000000  0.5000000000000 1.0
C      1  0.4413600000000  0.4849390000000  0.5260860000000 1.0
C      1  0.4413600000000  0.4849390000000  0.4739140000000 1.0
C      1  0.5586400000000  0.5301220000000  0.5000000000000 1.0
C      1  0.5586400000000  0.4849390000000  0.5260860000000 1.0
C      1  0.5586400000000  0.4849390000000  0.4739140000000 1.0
C      1  0.5394500000000  0.5282680000000  0.5489610000000 1.0
C      1  0.5394500000000  0.5282680000000  0.4510390000000 1.0
C      1  0.5394500000000  0.4434650000000  0.5000000000000 1.0
C      1  0.4605500000000  0.5282680000000  0.5489610000000 1.0
C      1  0.4605500000000  0.5282680000000  0.4510390000000 1.0
C      1  0.4605500000000  0.4434650000000  0.5000000000000 1.0
C      1  0.5394500000000  0.4717320000000  0.5489610000000 1.0
C      1  0.5394500000000  0.4717320000000  0.4510390000000 1.0
C      1  0.5394500000000  0.5565350000000  0.5000000000000 1.0
C      1  0.4605500000000  0.4717320000000  0.5489610000000 1.0
C      1  0.4605500000000  0.4717320000000  0.4510390000000 1.0
C      1  0.4605500000000  0.5565350000000  0.5000000000000 1.0
C      1  0.4594560000000  0.4858060000000  0.5744810000000 1.0
C      1  0.4594560000000  0.5715990000000  0.4750510000000 1.0
C      1  0.4594560000000  0.4425940000000  0.4504670000000 1.0
C      1  0.5405440000000  0.4858060000000  0.5744810000000 1.0
C      1  0.5405440000000  0.5715990000000  0.4750510000000 1.0
C      1  0.5405440000000  0.4425940000000  0.4504670000000 1.0
C      1  0.4594560000000  0.5141940000000  0.5744810000000 1.0
C      1  0.4594560000000  0.4284010000000  0.4750510000000 1.0
C      1  0.4594560000000  0.5574060000000  0.4504670000000 1.0
C      1  0.5405440000000  0.5141940000000  0.5744810000000 1.0
C      1  0.5405440000000  0.4284010000000  0.4750510000000 1.0
C      1  0.5405440000000  0.5574060000000  0.4504670000000 1.0
END
