TITL C-3985259-1859-752 0.000413948059999672 125000 -324.572301566972 0 0 60 (C1) n - 1
REM
REM in /home/nfs/bkarasulu/CARBON/AIRSS/Generating-Clusters/TERSOFF/Higher-Symm/Only-C60
REM
REM
REM
REM
REM
REM ./C.cell (28575a23ae977d3b5fae324c64b13b57)
REM
REM compiler GCC version 9.2.1 20190827 (Red Hat 9.2.1-1)
REM options -cpp -mtune=generic -march=x86-64 -g -O0 -fpre-include=/usr/include/finclude/math-vector-fortran.h
REM seed -740934683 -1666217773 -1980049482 773877857 -770582400 -1514245800 -519118014 -1979902514 148323565 422381035 1212117030 -165540373 8057660 623345837 -1195321356 -1185073537 910778378 2078574034 502494466 2062705168 258379975 1643159276 1712432219 1761688347 255059626 -957409244 -2047353596 136819308 1605524142 -909762631 1023202513 1736406257 366541057
REM
CELL 1.54180   50.00000   50.00000   50.00000   90.00000   90.00000   90.00000
LATT -1
SFAC C  
C      1  0.5565530000000  0.4862220000000  0.5341060000000 1.0
C      1  0.5473880000000  0.4901350000000  0.4621340000000 1.0
C      1  0.4770650000000  0.4869520000000  0.4418130000000 1.0
C      1  0.4356180000000  0.4881580000000  0.5023250000000 1.0
C      1  0.4868730000000  0.4867840000000  0.5602370000000 1.0
C      1  0.5437220000000  0.5217810000000  0.5700120000000 1.0
C      1  0.5700550000000  0.5305830000000  0.4870330000000 1.0
C      1  0.5093010000000  0.5254820000000  0.4267000000000 1.0
C      1  0.4257560000000  0.5267280000000  0.4627860000000 1.0
C      1  0.4559450000000  0.5276950000000  0.5535390000000 1.0
C      1  0.5523890000000  0.5194980000000  0.4648500000000 1.0
C      1  0.4801000000000  0.5143340000000  0.4321550000000 1.0
C      1  0.4356560000000  0.5177440000000  0.4959670000000 1.0
C      1  0.4820280000000  0.5153480000000  0.5644670000000 1.0
C      1  0.5572200000000  0.5149510000000  0.5427090000000 1.0
C      1  0.4497150000000  0.5328650000000  0.5220650000000 1.0
C      1  0.5100850000000  0.5316750000000  0.5691170000000 1.0
C      1  0.5564510000000  0.5369200000000  0.5163960000000 1.0
C      1  0.5302950000000  0.5372650000000  0.4536200000000 1.0
C      1  0.4560440000000  0.5346780000000  0.4461090000000 1.0
C      1  0.5018690000000  0.5344990000000  0.4669600000000 1.0
C      1  0.4628940000000  0.5304370000000  0.4816170000000 1.0
C      1  0.4802810000000  0.5326800000000  0.5196050000000 1.0
C      1  0.5169800000000  0.5329170000000  0.5397010000000 1.0
C      1  0.5314790000000  0.5231050000000  0.5016860000000 1.0
C      1  0.5420480000000  0.4317420000000  0.5117550000000 1.0
C      1  0.5262640000000  0.4328490000000  0.4645510000000 1.0
C      1  0.4756190000000  0.4319630000000  0.4654900000000 1.0
C      1  0.4590230000000  0.4326230000000  0.5126480000000 1.0
C      1  0.5008630000000  0.4317590000000  0.5407430000000 1.0
C      1  0.5149880000000  0.4782090000000  0.5656080000000 1.0
C      1  0.5695740000000  0.4797410000000  0.5081210000000 1.0
C      1  0.5282560000000  0.4820800000000  0.4409470000000 1.0
C      1  0.4503010000000  0.4790240000000  0.4525370000000 1.0
C      1  0.4418470000000  0.4818840000000  0.5319140000000 1.0
C      1  0.4770830000000  0.4826650000000  0.5036980000000 1.0
C      1  0.4895760000000  0.5037300000000  0.5219430000000 1.0
C      1  0.5198690000000  0.5020450000000  0.5213720000000 1.0
C      1  0.5166030000000  0.4856630000000  0.4903310000000 1.0
C      1  0.4885820000000  0.5052860000000  0.4778000000000 1.0
C      1  0.4825640000000  0.5516130000000  0.4512350000000 1.0
C      1  0.4724400000000  0.5620190000000  0.4906050000000 1.0
C      1  0.4885800000000  0.5619200000000  0.5293140000000 1.0
C      1  0.5300700000000  0.5580800000000  0.5248470000000 1.0
C      1  0.5278530000000  0.5670000000000  0.4725210000000 1.0
C      1  0.4578880000000  0.4430630000000  0.4857720000000 1.0
C      1  0.4752310000000  0.4438620000000  0.5337070000000 1.0
C      1  0.5269420000000  0.4427960000000  0.5336320000000 1.0
C      1  0.5433430000000  0.4435620000000  0.4855130000000 1.0
C      1  0.5006530000000  0.4441010000000  0.4569750000000 1.0
C      1  0.5552780000000  0.4706640000000  0.4838590000000 1.0
C      1  0.5014840000000  0.4707290000000  0.4458500000000 1.0
C      1  0.4452500000000  0.4690700000000  0.4799580000000 1.0
C      1  0.4679660000000  0.4705620000000  0.5428520000000 1.0
C      1  0.5339450000000  0.4686380000000  0.5451130000000 1.0
C      1  0.5068840000000  0.5386470000000  0.4957960000000 1.0
C      1  0.4982450000000  0.4603580000000  0.4957540000000 1.0
C      1  0.5018970000000  0.4312340000000  0.4987540000000 1.0
C      1  0.5062230000000  0.5715040000000  0.5009940000000 1.0
C      1  0.5033780000000  0.6022870000000  0.4994390000000 1.0
END
