TITL C-3985245-9316-1035 0.00048052935146063 125000 -350.849219435101 0 0 60 (C5) n - 1
REM
REM in /home/nfs/bkarasulu/CARBON/AIRSS/Generating-Clusters/TERSOFF/Higher-Symm/Only-C60
REM
REM
REM
REM
REM
REM ./C.cell (28575a23ae977d3b5fae324c64b13b57)
REM
REM compiler GCC version 9.2.1 20190827 (Red Hat 9.2.1-1)
REM options -cpp -mtune=generic -march=x86-64 -g -O0 -fpre-include=/usr/include/finclude/math-vector-fortran.h
REM seed 893403376 -668736415 771590060 1221381205 273686163 -840462690 -1259857716 -1024261300 -340952436 395179858 -366335250 -1296535018 -187596222 -883500262 -189636594 -1633121996 50249719 1559066328 -328403718 -1269819857 76926939 1875470518 -1406397278 855976723 -2064525363 -933930811 1673384386 1259159928 -199448576 1538756186 1309100981 -1721265720 1494221473
REM
CELL 1.54180   50.00000   50.00000   50.00000   90.00000   90.00000   90.00000
LATT -1
SFAC C  
C      1  0.4543540000000  0.4539210000000  0.4777110000000 1.0
C      1  0.4420650000000  0.5291710000000  0.4776990000000 1.0
C      1  0.5098370000000  0.5641120000000  0.4777030000000 1.0
C      1  0.5640180000000  0.5104600000000  0.4776950000000 1.0
C      1  0.5297270000000  0.4423490000000  0.4777070000000 1.0
C      1  0.4563190000000  0.5766880000000  0.4860150000000 1.0
C      1  0.5594290000000  0.5652490000000  0.4860120000000 1.0
C      1  0.5804210000000  0.4636380000000  0.4860100000000 1.0
C      1  0.4902580000000  0.4122890000000  0.4860300000000 1.0
C      1  0.4135660000000  0.4821640000000  0.4860180000000 1.0
C      1  0.4836710000000  0.5203310000000  0.5616150000000 1.0
C      1  0.5142940000000  0.5218000000000  0.5616200000000 1.0
C      1  0.5251560000000  0.4931310000000  0.5616230000000 1.0
C      1  0.5012450000000  0.4739450000000  0.5616180000000 1.0
C      1  0.4756050000000  0.4907540000000  0.5616130000000 1.0
C      1  0.5016980000000  0.4589610000000  0.5349700000000 1.0
C      1  0.4614910000000  0.4856990000000  0.5349640000000 1.0
C      1  0.4745040000000  0.5321990000000  0.5349680000000 1.0
C      1  0.5227490000000  0.5341930000000  0.5349760000000 1.0
C      1  0.5395610000000  0.4889300000000  0.5349750000000 1.0
C      1  0.4954420000000  0.5253530000000  0.4910950000000 1.0
C      1  0.5227080000000  0.5121710000000  0.4910970000000 1.0
C      1  0.5185990000000  0.4821650000000  0.4910980000000 1.0
C      1  0.4887900000000  0.4768060000000  0.4910960000000 1.0
C      1  0.4744780000000  0.5034960000000  0.4910940000000 1.0
C      1  0.5639380000000  0.4813230000000  0.4701620000000 1.0
C      1  0.5019880000000  0.4334280000000  0.4701760000000 1.0
C      1  0.4372980000000  0.4775410000000  0.4701710000000 1.0
C      1  0.4592590000000  0.5526920000000  0.4701630000000 1.0
C      1  0.5375210000000  0.5550320000000  0.4701640000000 1.0
C      1  0.4517010000000  0.5512620000000  0.5276590000000 1.0
C      1  0.5338300000000  0.5617680000000  0.5276630000000 1.0
C      1  0.5692080000000  0.4869380000000  0.5276440000000 1.0
C      1  0.5089450000000  0.4301360000000  0.5276700000000 1.0
C      1  0.4362990000000  0.4699180000000  0.5276710000000 1.0
C      1  0.4976080000000  0.5402460000000  0.5180860000000 1.0
C      1  0.5375510000000  0.5147070000000  0.5180910000000 1.0
C      1  0.5255970000000  0.4688390000000  0.5180880000000 1.0
C      1  0.4782830000000  0.4660300000000  0.5180830000000 1.0
C      1  0.4609790000000  0.5101580000000  0.5180810000000 1.0
C      1  0.5607710000000  0.5533820000000  0.5127060000000 1.0
C      1  0.5695750000000  0.4587100000000  0.5126980000000 1.0
C      1  0.4822160000000  0.4210880000000  0.5127180000000 1.0
C      1  0.4194330000000  0.4925120000000  0.5127080000000 1.0
C      1  0.4679910000000  0.5742950000000  0.5127040000000 1.0
C      1  0.5219470000000  0.5136180000000  0.4437950000000 1.0
C      1  0.5197350000000  0.4833360000000  0.4437960000000 1.0
C      1  0.4902510000000  0.4760820000000  0.4437970000000 1.0
C      1  0.4742410000000  0.5018820000000  0.4437930000000 1.0
C      1  0.4938310000000  0.5250800000000  0.4437930000000 1.0
C      1  0.4540070000000  0.5026040000000  0.4666920000000 1.0
C      1  0.4882610000000  0.5445480000000  0.4666900000000 1.0
C      1  0.5387420000000  0.5249330000000  0.4666900000000 1.0
C      1  0.5356870000000  0.4708620000000  0.4666890000000 1.0
C      1  0.4833120000000  0.4570610000000  0.4666960000000 1.0
C      1  0.5386400000000  0.4404570000000  0.5094860000000 1.0
C      1  0.4553140000000  0.4448560000000  0.5094900000000 1.0
C      1  0.4337560000000  0.5254840000000  0.5094820000000 1.0
C      1  0.5037400000000  0.5708750000000  0.5094830000000 1.0
C      1  0.5685620000000  0.5183400000000  0.5095010000000 1.0
END
