TITL C-3985254-1270-810 0.0287497128601392 125000 -252.29872301198 0 0 60 (C3) n - 1
REM
REM in /home/nfs/bkarasulu/CARBON/AIRSS/Generating-Clusters/TERSOFF/Higher-Symm/Only-C60
REM
REM
REM
REM
REM
REM ./C.cell (28575a23ae977d3b5fae324c64b13b57)
REM
REM compiler GCC version 9.2.1 20190827 (Red Hat 9.2.1-1)
REM options -cpp -mtune=generic -march=x86-64 -g -O0 -fpre-include=/usr/include/finclude/math-vector-fortran.h
REM seed 739915597 620291507 -459195700 1251633763 855683397 894062748 1876270809 1480048932 1709940593 -1456386927 970760036 1260335954 -607753700 155249054 -721346153 -799003821 2099737015 1119386539 -2069177217 787444173 -1591941904 -1509054592 48502747 1816836877 842969687 -1290092287 -1758216353 1497270057 -661700905 -767744367 -930728267 1463348781 -1107561015
REM
CELL 1.54180   50.00000   50.00000   50.00000   90.00000   90.00000   90.00000
LATT -1
SFAC C  
C      1  0.4960550000000  0.4846810000000  0.4739090000000 1.0
C      1  0.4960540000000  0.5302520000000  0.4997770000000 1.0
C      1  0.4960570000000  0.4850690000000  0.5263090000000 1.0
C      1  0.4904580000000  0.4404750000000  0.5123900000000 1.0
C      1  0.4904720000000  0.5190420000000  0.4422580000000 1.0
C      1  0.4904730000000  0.5404840000000  0.5453610000000 1.0
C      1  0.4228560000000  0.4953900000000  0.4796110000000 1.0
C      1  0.4228550000000  0.5199620000000  0.5062010000000 1.0
C      1  0.4228590000000  0.4846460000000  0.5141910000000 1.0
C      1  0.5506570000000  0.5082240000000  0.4649190000000 1.0
C      1  0.5506580000000  0.5262720000000  0.5246630000000 1.0
C      1  0.5506660000000  0.4655070000000  0.5104070000000 1.0
C      1  0.5233430000000  0.5146450000000  0.5152770000000 1.0
C      1  0.5233420000000  0.4794480000000  0.5050430000000 1.0
C      1  0.5233420000000  0.5059080000000  0.4796830000000 1.0
C      1  0.5050790000000  0.5113770000000  0.5429660000000 1.0
C      1  0.5050760000000  0.4571020000000  0.4883710000000 1.0
C      1  0.5050780000000  0.5315200000000  0.4686640000000 1.0
C      1  0.5463820000000  0.5002820000000  0.4355810000000 1.0
C      1  0.5463850000000  0.5556500000000  0.5324530000000 1.0
C      1  0.5463940000000  0.4440710000000  0.5319670000000 1.0
C      1  0.4622600000000  0.4559740000000  0.4983990000000 1.0
C      1  0.4622370000000  0.5235390000000  0.4628120000000 1.0
C      1  0.4622370000000  0.5204300000000  0.5389760000000 1.0
C      1  0.5368010000000  0.4453990000000  0.4599150000000 1.0
C      1  0.5368000000000  0.5620180000000  0.4727570000000 1.0
C      1  0.5368030000000  0.4925850000000  0.5673280000000 1.0
C      1  0.5303460000000  0.4700930000000  0.5466270000000 1.0
C      1  0.5303510000000  0.4745760000000  0.4507860000000 1.0
C      1  0.5303530000000  0.5553270000000  0.5025900000000 1.0
C      1  0.5106390000000  0.4440580000000  0.5399230000000 1.0
C      1  0.5103780000000  0.4934220000000  0.4315950000000 1.0
C      1  0.5104040000000  0.5625290000000  0.5285010000000 1.0
C      1  0.5684170000000  0.4861500000000  0.4753490000000 1.0
C      1  0.5684180000000  0.5282750000000  0.5003310000000 1.0
C      1  0.5684160000000  0.4855800000000  0.5243210000000 1.0
C      1  0.4685040000000  0.5611600000000  0.5308090000000 1.0
C      1  0.4682100000000  0.4428470000000  0.5373870000000 1.0
C      1  0.4685320000000  0.4960990000000  0.4316290000000 1.0
C      1  0.4881250000000  0.4577440000000  0.5634070000000 1.0
C      1  0.4881090000000  0.4662370000000  0.4316960000000 1.0
C      1  0.4881100000000  0.5760340000000  0.5049130000000 1.0
C      1  0.5584340000000  0.5376650000000  0.4730610000000 1.0
C      1  0.5584340000000  0.5044980000000  0.5460900000000 1.0
C      1  0.5584320000000  0.4578390000000  0.4808540000000 1.0
C      1  0.5012060000000  0.5650880000000  0.4730070000000 1.0
C      1  0.5011980000000  0.4908130000000  0.5698600000000 1.0
C      1  0.5012060000000  0.4440790000000  0.4571300000000 1.0
C      1  0.4466800000000  0.5398610000000  0.5127220000000 1.0
C      1  0.4466950000000  0.4690400000000  0.5281700000000 1.0
C      1  0.4466730000000  0.4910960000000  0.4591120000000 1.0
C      1  0.4681590000000  0.5555330000000  0.4632180000000 1.0
C      1  0.4681520000000  0.5040660000000  0.5664820000000 1.0
C      1  0.4681580000000  0.4403770000000  0.4702970000000 1.0
C      1  0.4670610000000  0.4826460000000  0.4817370000000 1.0
C      1  0.4670620000000  0.5244810000000  0.4940950000000 1.0
C      1  0.4670620000000  0.4928760000000  0.5241410000000 1.0
C      1  0.4588050000000  0.4752820000000  0.5612160000000 1.0
C      1  0.4587970000000  0.4592990000000  0.4480140000000 1.0
C      1  0.4587930000000  0.5653770000000  0.4907420000000 1.0
END
