TITL C-3985257-5396-17 -0.000447318704071079 125000 -362.939461646773 0 0 60 (C2h) n - 1
REM
REM in /home/nfs/bkarasulu/CARBON/AIRSS/Generating-Clusters/TERSOFF/Higher-Symm/Only-C60
REM
REM
REM
REM
REM
REM ./C.cell (28575a23ae977d3b5fae324c64b13b57)
REM
REM compiler GCC version 9.2.1 20190827 (Red Hat 9.2.1-1)
REM options -cpp -mtune=generic -march=x86-64 -g -O0 -fpre-include=/usr/include/finclude/math-vector-fortran.h
REM seed -1925838518 1683773177 2087295159 404125093 1094344720 198590168 -910324292 -1744311774 1763028861 -1875731868 -1368956079 1295299763 904801405 1172084749 -1276017107 989213822 904681303 829393632 -1127895289 121028016 -2065626193 1357049062 2109229089 -1652178660 -647554663 1484589324 -1246645843 1638563885 1995681284 -84622415 -1182489460 788991017 784829327
REM
CELL 1.54180   50.00000   50.00000   50.00000   90.00000   90.00000   90.00000
LATT -1
SFAC C  
C      1  0.4856930000000  0.4781990000000  0.4796800000000 1.0
C      1  0.4855940000000  0.5277410000000  0.4787460000000 1.0
C      1  0.5287500000000  0.5024070000000  0.4791400000000 1.0
C      1  0.4856910000000  0.5218100000000  0.5203250000000 1.0
C      1  0.4855990000000  0.4722640000000  0.5212500000000 1.0
C      1  0.5287540000000  0.4975980000000  0.5208600000000 1.0
C      1  0.5143090000000  0.5217980000000  0.5203220000000 1.0
C      1  0.5144010000000  0.4722650000000  0.5212420000000 1.0
C      1  0.4712570000000  0.4975940000000  0.5208600000000 1.0
C      1  0.5143060000000  0.4782000000000  0.4796820000000 1.0
C      1  0.5144050000000  0.5277380000000  0.4787520000000 1.0
C      1  0.4712540000000  0.5024060000000  0.4791420000000 1.0
C      1  0.5466560000000  0.4546200000000  0.5415420000000 1.0
C      1  0.4380230000000  0.4810540000000  0.5411720000000 1.0
C      1  0.5155790000000  0.5630620000000  0.5392900000000 1.0
C      1  0.5466510000000  0.5453770000000  0.4584580000000 1.0
C      1  0.4380240000000  0.5189460000000  0.4588280000000 1.0
C      1  0.5155790000000  0.4369380000000  0.4607110000000 1.0
C      1  0.4533490000000  0.5453750000000  0.4584600000000 1.0
C      1  0.5619760000000  0.5189470000000  0.4588250000000 1.0
C      1  0.4844210000000  0.4369390000000  0.4607130000000 1.0
C      1  0.4533470000000  0.4546260000000  0.5415390000000 1.0
C      1  0.5619760000000  0.4810540000000  0.5411750000000 1.0
C      1  0.4844220000000  0.5630610000000  0.5392890000000 1.0
C      1  0.4721920000000  0.5475530000000  0.5158810000000 1.0
C      1  0.5586270000000  0.4980910000000  0.5156060000000 1.0
C      1  0.4694530000000  0.4464310000000  0.5149050000000 1.0
C      1  0.4721910000000  0.4524480000000  0.4841190000000 1.0
C      1  0.5586250000000  0.5019110000000  0.4843950000000 1.0
C      1  0.4694520000000  0.5535710000000  0.4850930000000 1.0
C      1  0.5278120000000  0.4524460000000  0.4841170000000 1.0
C      1  0.4413720000000  0.5019090000000  0.4843980000000 1.0
C      1  0.5305490000000  0.5535700000000  0.4850930000000 1.0
C      1  0.5278120000000  0.5475570000000  0.5158810000000 1.0
C      1  0.4413750000000  0.4980950000000  0.5156060000000 1.0
C      1  0.5305490000000  0.4464330000000  0.5149040000000 1.0
C      1  0.5148210000000  0.5264460000000  0.5768850000000 1.0
C      1  0.5147730000000  0.4748380000000  0.5774560000000 1.0
C      1  0.4703420000000  0.5004940000000  0.5771610000000 1.0
C      1  0.5148210000000  0.4735500000000  0.4231140000000 1.0
C      1  0.5147740000000  0.5251590000000  0.4225430000000 1.0
C      1  0.4703430000000  0.4995020000000  0.4228400000000 1.0
C      1  0.4851770000000  0.4735500000000  0.4231150000000 1.0
C      1  0.4852240000000  0.5251590000000  0.4225420000000 1.0
C      1  0.5296550000000  0.4995030000000  0.4228390000000 1.0
C      1  0.4851760000000  0.5264470000000  0.5768850000000 1.0
C      1  0.4852230000000  0.4748380000000  0.5774590000000 1.0
C      1  0.5296540000000  0.5004940000000  0.5771600000000 1.0
C      1  0.4433450000000  0.5021610000000  0.4346260000000 1.0
C      1  0.5297690000000  0.5479010000000  0.4340210000000 1.0
C      1  0.5263730000000  0.4489880000000  0.4352510000000 1.0
C      1  0.4433430000000  0.4978340000000  0.5653760000000 1.0
C      1  0.5297690000000  0.4520960000000  0.5659750000000 1.0
C      1  0.5263730000000  0.5510090000000  0.5647500000000 1.0
C      1  0.5566520000000  0.4978370000000  0.5653780000000 1.0
C      1  0.4702300000000  0.4521000000000  0.5659760000000 1.0
C      1  0.4736270000000  0.5510100000000  0.5647490000000 1.0
C      1  0.5566530000000  0.5021610000000  0.4346230000000 1.0
C      1  0.4702300000000  0.5479000000000  0.4340220000000 1.0
C      1  0.4736270000000  0.4489880000000  0.4352530000000 1.0
END
