TITL C-3985255-5397-183 3.63153967538134e-05 125000 -308.854606474661 0 0 60 (C3) n - 1
REM
REM in /home/nfs/bkarasulu/CARBON/AIRSS/Generating-Clusters/TERSOFF/Higher-Symm/Only-C60
REM
REM
REM
REM
REM
REM ./C.cell (28575a23ae977d3b5fae324c64b13b57)
REM
REM compiler GCC version 9.2.1 20190827 (Red Hat 9.2.1-1)
REM options -cpp -mtune=generic -march=x86-64 -g -O0 -fpre-include=/usr/include/finclude/math-vector-fortran.h
REM seed 1186500273 -315252895 -768977651 -1636906898 1229724960 -508225006 669094548 549848921 -457979346 1620361752 1006113218 -1133009324 -1508787795 -568401501 1082915473 -430251066 -534001444 1746545065 -1631366555 -1442391063 -1970404682 715168923 -243810260 -1555688362 1214893088 -1741520910 -1658508806 1595432149 1454543820 -425961472 -124105662 -1192502164 -2030028339
REM
CELL 1.54180   50.00000   50.00000   50.00000   90.00000   90.00000   90.00000
LATT -1
SFAC C  
C      1  0.4848260000000  0.5213840000000  0.4728230000000 1.0
C      1  0.4840510000000  0.5213840000000  0.5267290000000 1.0
C      1  0.5311230000000  0.5213840000000  0.5004470000000 1.0
C      1  0.5151740000000  0.5213840000000  0.4728230000000 1.0
C      1  0.5159490000000  0.5213840000000  0.5267290000000 1.0
C      1  0.4688770000000  0.5213840000000  0.5004470000000 1.0
C      1  0.4852790000000  0.5602510000000  0.5618360000000 1.0
C      1  0.5609130000000  0.5602500000000  0.4818300000000 1.0
C      1  0.4538080000000  0.5602500000000  0.4563320000000 1.0
C      1  0.5147220000000  0.5602510000000  0.5618360000000 1.0
C      1  0.4390870000000  0.5602500000000  0.4818300000000 1.0
C      1  0.5461920000000  0.5602490000000  0.4563320000000 1.0
C      1  0.5577820000000  0.5209830000000  0.5519640000000 1.0
C      1  0.5161110000000  0.5209820000000  0.4239780000000 1.0
C      1  0.4261070000000  0.5209830000000  0.5240580000000 1.0
C      1  0.4422180000000  0.5209830000000  0.5519640000000 1.0
C      1  0.4838890000000  0.5209810000000  0.4239780000000 1.0
C      1  0.5738930000000  0.5209820000000  0.5240580000000 1.0
C      1  0.4281630000000  0.4850140000000  0.5229720000000 1.0
C      1  0.5558130000000  0.4850150000000  0.5507270000000 1.0
C      1  0.5160240000000  0.4850130000000  0.4263020000000 1.0
C      1  0.5718370000000  0.4850140000000  0.5229720000000 1.0
C      1  0.4441870000000  0.4850150000000  0.5507270000000 1.0
C      1  0.4839760000000  0.4850130000000  0.4263020000000 1.0
C      1  0.5257160000000  0.4940560000000  0.4547350000000 1.0
C      1  0.4479410000000  0.4940560000000  0.5003620000000 1.0
C      1  0.5263430000000  0.4940570000000  0.5449040000000 1.0
C      1  0.4742840000000  0.4940560000000  0.4547350000000 1.0
C      1  0.5520590000000  0.4940560000000  0.5003620000000 1.0
C      1  0.4736570000000  0.4940570000000  0.5449040000000 1.0
C      1  0.5143670000000  0.5097140000000  0.5696360000000 1.0
C      1  0.5531230000000  0.5097130000000  0.4527400000000 1.0
C      1  0.4325100000000  0.5097130000000  0.4776240000000 1.0
C      1  0.4856330000000  0.5097140000000  0.5696360000000 1.0
C      1  0.4468770000000  0.5097130000000  0.4527400000000 1.0
C      1  0.5674900000000  0.5097130000000  0.4776240000000 1.0
C      1  0.5294160000000  0.4749410000000  0.4996970000000 1.0
C      1  0.4850300000000  0.4749410000000  0.4746770000000 1.0
C      1  0.4855540000000  0.4749420000000  0.5256270000000 1.0
C      1  0.4705840000000  0.4749410000000  0.4996970000000 1.0
C      1  0.5149700000000  0.4749410000000  0.4746770000000 1.0
C      1  0.5144460000000  0.4749420000000  0.5256270000000 1.0
C      1  0.4380400000000  0.5347740000000  0.4979680000000 1.0
C      1  0.5292210000000  0.5347740000000  0.5546750000000 1.0
C      1  0.5327400000000  0.5347730000000  0.4473560000000 1.0
C      1  0.5619610000000  0.5347730000000  0.4979680000000 1.0
C      1  0.4707800000000  0.5347740000000  0.5546750000000 1.0
C      1  0.4672600000000  0.5347730000000  0.4473560000000 1.0
C      1  0.4817960000000  0.4436060000000  0.5313700000000 1.0
C      1  0.5362680000000  0.4436050000000  0.5000810000000 1.0
C      1  0.4819350000000  0.4436050000000  0.4685510000000 1.0
C      1  0.5182030000000  0.4436060000000  0.5313700000000 1.0
C      1  0.4637310000000  0.4436060000000  0.5000810000000 1.0
C      1  0.5180650000000  0.4436050000000  0.4685510000000 1.0
C      1  0.4739860000000  0.4552790000000  0.4386030000000 1.0
C      1  0.4598350000000  0.4552800000000  0.5532280000000 1.0
C      1  0.5661790000000  0.4552800000000  0.5081710000000 1.0
C      1  0.5260140000000  0.4552790000000  0.4386030000000 1.0
C      1  0.5401650000000  0.4552800000000  0.5532280000000 1.0
C      1  0.4338210000000  0.4552800000000  0.5081710000000 1.0
END
