TITL C-3985256-5419-111 -0.000569363674082988 125000 -356.142406366673 0 0 60 (Ci) n - 1
REM
REM in /home/nfs/bkarasulu/CARBON/AIRSS/Generating-Clusters/TERSOFF/Higher-Symm/Only-C60
REM
REM
REM
REM
REM
REM ./C.cell (28575a23ae977d3b5fae324c64b13b57)
REM
REM compiler GCC version 9.2.1 20190827 (Red Hat 9.2.1-1)
REM options -cpp -mtune=generic -march=x86-64 -g -O0 -fpre-include=/usr/include/finclude/math-vector-fortran.h
REM seed 856790207 -1721143066 1697855744 -446992476 1397739462 1353719502 395138741 665038687 -10130275 -1777028136 985485001 -841547474 1716095864 1863859949 -1793731913 408520217 -1040672030 -540371523 1955805479 723441101 -773020545 485073807 70625573 1381589609 1502067056 -1971001943 512434962 -2053960154 -26053287 -1413414990 -1047951114 228558625 -1183351032
REM
CELL 1.54180   50.00000   50.00000   50.00000   90.00000   90.00000   90.00000
LATT -1
SFAC C  
C      1  0.5156910000000  0.4568760000000  0.4646170000000 1.0
C      1  0.4842900000000  0.5431060000000  0.5353800000000 1.0
C      1  0.5627710000000  0.4726370000000  0.4791100000000 1.0
C      1  0.4372360000000  0.5273530000000  0.5209040000000 1.0
C      1  0.4180290000000  0.4860880000000  0.4995740000000 1.0
C      1  0.5819490000000  0.5139170000000  0.5004350000000 1.0
C      1  0.5024880000000  0.5772480000000  0.4972390000000 1.0
C      1  0.4975170000000  0.4227610000000  0.5027430000000 1.0
C      1  0.4934150000000  0.4626490000000  0.5158820000000 1.0
C      1  0.5065850000000  0.5373630000000  0.4841390000000 1.0
C      1  0.5579690000000  0.4804920000000  0.5318610000000 1.0
C      1  0.4420250000000  0.5194960000000  0.4681590000000 1.0
C      1  0.5327830000000  0.4904410000000  0.5537540000000 1.0
C      1  0.4672130000000  0.5096020000000  0.4462170000000 1.0
C      1  0.5608810000000  0.5493900000000  0.5266610000000 1.0
C      1  0.4391570000000  0.4505860000000  0.4733520000000 1.0
C      1  0.5130170000000  0.5653290000000  0.4715410000000 1.0
C      1  0.4869880000000  0.4346790000000  0.5284320000000 1.0
C      1  0.4961010000000  0.5245290000000  0.4434460000000 1.0
C      1  0.5038820000000  0.4754910000000  0.5565530000000 1.0
C      1  0.4976800000000  0.5540990000000  0.4466800000000 1.0
C      1  0.5023310000000  0.4458800000000  0.5533250000000 1.0
C      1  0.5322640000000  0.5408820000000  0.5244310000000 1.0
C      1  0.4677580000000  0.4591040000000  0.4755530000000 1.0
C      1  0.4572750000000  0.5620780000000  0.4942980000000 1.0
C      1  0.5427130000000  0.4379340000000  0.5057310000000 1.0
C      1  0.5588970000000  0.5461490000000  0.4734470000000 1.0
C      1  0.4410900000000  0.4538510000000  0.5265610000000 1.0
C      1  0.4204950000000  0.5000160000000  0.4738100000000 1.0
C      1  0.5795040000000  0.5000030000000  0.5262040000000 1.0
C      1  0.5702180000000  0.5005010000000  0.4763200000000 1.0
C      1  0.4297920000000  0.4994890000000  0.5236840000000 1.0
C      1  0.4646040000000  0.4801660000000  0.4393600000000 1.0
C      1  0.5354200000000  0.5198040000000  0.5606090000000 1.0
C      1  0.5523730000000  0.5194400000000  0.4594380000000 1.0
C      1  0.4476290000000  0.4805490000000  0.5405550000000 1.0
C      1  0.4728700000000  0.5047970000000  0.5012090000000 1.0
C      1  0.5271250000000  0.4952060000000  0.4987920000000 1.0
C      1  0.4755420000000  0.4748690000000  0.4980870000000 1.0
C      1  0.5244760000000  0.5251210000000  0.5018890000000 1.0
C      1  0.5620070000000  0.5330800000000  0.5530440000000 1.0
C      1  0.4380310000000  0.4669290000000  0.4469440000000 1.0
C      1  0.5134420000000  0.5415190000000  0.5487690000000 1.0
C      1  0.4864650000000  0.4584910000000  0.4512550000000 1.0
C      1  0.4810350000000  0.5251360000000  0.4826160000000 1.0
C      1  0.5189530000000  0.4748780000000  0.5173840000000 1.0
C      1  0.4424870000000  0.5379430000000  0.4932580000000 1.0
C      1  0.5574990000000  0.4620800000000  0.5067390000000 1.0
C      1  0.5221920000000  0.5087460000000  0.4519520000000 1.0
C      1  0.4778000000000  0.4912450000000  0.5480440000000 1.0
C      1  0.4811380000000  0.5123930000000  0.5278550000000 1.0
C      1  0.5188780000000  0.4876030000000  0.4721490000000 1.0
C      1  0.5741270000000  0.5423210000000  0.5004240000000 1.0
C      1  0.4258780000000  0.4576770000000  0.4995930000000 1.0
C      1  0.4805900000000  0.5649000000000  0.5111930000000 1.0
C      1  0.5194220000000  0.4350880000000  0.4888250000000 1.0
C      1  0.4534010000000  0.5404210000000  0.5422370000000 1.0
C      1  0.5466050000000  0.4595650000000  0.4577690000000 1.0
C      1  0.5416740000000  0.5684310000000  0.4687110000000 1.0
C      1  0.4583320000000  0.4315850000000  0.5312560000000 1.0
END
