TITL C-3985259-1859-252 -2.20692197302137e-07 125000 -311.070836747304 0 0 60 (C6h) n - 1
REM
REM in /home/nfs/bkarasulu/CARBON/AIRSS/Generating-Clusters/TERSOFF/Higher-Symm/Only-C60
REM
REM
REM
REM
REM
REM ./C.cell (28575a23ae977d3b5fae324c64b13b57)
REM
REM compiler GCC version 9.2.1 20190827 (Red Hat 9.2.1-1)
REM options -cpp -mtune=generic -march=x86-64 -g -O0 -fpre-include=/usr/include/finclude/math-vector-fortran.h
REM seed 1534718471 622531660 1924897558 1261986008 -279781680 1669232922 -1040549 521297258 720899516 2044855591 -1673737711 -1094604427 -742901293 1373162923 -1774756736 -142061240 -1441185735 -1662036373 241045282 -1615262339 -1976030854 -773634411 -1779555957 757970007 -677720280 322696762 835196533 -1741918100 803677306 249358327 1887130823 254910398 717908473
REM
CELL 1.54180   50.00000   50.00000   50.00000   90.00000   90.00000   90.00000
LATT -1
SFAC C  
C      1  0.4575610000000  0.5645620000000  0.5181590000000 1.0
C      1  0.4228680000000  0.4955280000000  0.5181590000000 1.0
C      1  0.4653070000000  0.4309650000000  0.5181590000000 1.0
C      1  0.5424390000000  0.4354380000000  0.5181590000000 1.0
C      1  0.5771320000000  0.5044720000000  0.5181590000000 1.0
C      1  0.5346930000000  0.5690350000000  0.5181590000000 1.0
C      1  0.4575610000000  0.5645620000000  0.4818410000000 1.0
C      1  0.4228680000000  0.4955280000000  0.4818410000000 1.0
C      1  0.4653070000000  0.4309650000000  0.4818410000000 1.0
C      1  0.5424390000000  0.4354380000000  0.4818410000000 1.0
C      1  0.5771320000000  0.5044720000000  0.4818410000000 1.0
C      1  0.5346930000000  0.5690350000000  0.4818410000000 1.0
C      1  0.5584910000000  0.5212750000000  0.5375100000000 1.0
C      1  0.5108200000000  0.5612920000000  0.5375100000000 1.0
C      1  0.4523300000000  0.5400170000000  0.5375100000000 1.0
C      1  0.4415090000000  0.4787250000000  0.5375100000000 1.0
C      1  0.4891800000000  0.4387080000000  0.5375100000000 1.0
C      1  0.5476700000000  0.4599830000000  0.5375100000000 1.0
C      1  0.5584910000000  0.5212750000000  0.4624900000000 1.0
C      1  0.5108200000000  0.5612920000000  0.4624900000000 1.0
C      1  0.4523300000000  0.5400170000000  0.4624900000000 1.0
C      1  0.4415090000000  0.4787250000000  0.4624900000000 1.0
C      1  0.4891800000000  0.4387080000000  0.4624900000000 1.0
C      1  0.5476700000000  0.4599830000000  0.4624900000000 1.0
C      1  0.5599490000000  0.4789920000000  0.4834970000000 1.0
C      1  0.5481680000000  0.5414140000000  0.4834970000000 1.0
C      1  0.4882180000000  0.5624210000000  0.4834970000000 1.0
C      1  0.4400510000000  0.5210080000000  0.4834970000000 1.0
C      1  0.4518320000000  0.4585860000000  0.4834970000000 1.0
C      1  0.5117820000000  0.4375790000000  0.4834970000000 1.0
C      1  0.5599490000000  0.4789920000000  0.5165030000000 1.0
C      1  0.5481680000000  0.5414140000000  0.5165030000000 1.0
C      1  0.4882180000000  0.5624210000000  0.5165030000000 1.0
C      1  0.4400510000000  0.5210080000000  0.5165030000000 1.0
C      1  0.4518320000000  0.4585860000000  0.5165030000000 1.0
C      1  0.5117820000000  0.4375790000000  0.5165030000000 1.0
C      1  0.4700490000000  0.5088000000000  0.5157430000000 1.0
C      1  0.4774040000000  0.4784610000000  0.5157430000000 1.0
C      1  0.5073550000000  0.4696620000000  0.5157430000000 1.0
C      1  0.5299510000000  0.4912000000000  0.5157430000000 1.0
C      1  0.5225960000000  0.5215390000000  0.5157430000000 1.0
C      1  0.4926450000000  0.5303380000000  0.5157430000000 1.0
C      1  0.4700490000000  0.5088000000000  0.4842570000000 1.0
C      1  0.4774040000000  0.4784610000000  0.4842570000000 1.0
C      1  0.5073550000000  0.4696620000000  0.4842570000000 1.0
C      1  0.5299510000000  0.4912000000000  0.4842570000000 1.0
C      1  0.5225960000000  0.5215390000000  0.4842570000000 1.0
C      1  0.4926450000000  0.5303380000000  0.4842570000000 1.0
C      1  0.5313130000000  0.5098960000000  0.5550310000000 1.0
C      1  0.5070860000000  0.5320660000000  0.5550310000000 1.0
C      1  0.4757730000000  0.5221700000000  0.5550310000000 1.0
C      1  0.4686870000000  0.4901040000000  0.5550310000000 1.0
C      1  0.4929140000000  0.4679340000000  0.5550310000000 1.0
C      1  0.5242270000000  0.4778300000000  0.5550310000000 1.0
C      1  0.5313130000000  0.5098960000000  0.4449690000000 1.0
C      1  0.5070860000000  0.5320660000000  0.4449690000000 1.0
C      1  0.4757730000000  0.5221700000000  0.4449690000000 1.0
C      1  0.4686870000000  0.4901040000000  0.4449690000000 1.0
C      1  0.4929140000000  0.4679340000000  0.4449690000000 1.0
C      1  0.5242270000000  0.4778300000000  0.4449690000000 1.0
END
