TITL C-3985257-5396-315 -0.000655060263331314 125000 -299.532015037651 0 0 60 (S12) n - 1
REM
REM in /home/nfs/bkarasulu/CARBON/AIRSS/Generating-Clusters/TERSOFF/Higher-Symm/Only-C60
REM
REM
REM
REM
REM
REM ./C.cell (28575a23ae977d3b5fae324c64b13b57)
REM
REM compiler GCC version 9.2.1 20190827 (Red Hat 9.2.1-1)
REM options -cpp -mtune=generic -march=x86-64 -g -O0 -fpre-include=/usr/include/finclude/math-vector-fortran.h
REM seed 2139768080 1450366075 1075573306 1425355531 1692093267 1854332808 -642258265 -494236473 1675993288 -1949835890 1616009728 -831659148 626061481 -46834990 -1365065539 2085848878 256098136 -1709602003 1838233348 -471229144 997419954 -1861028827 17388721 -1795990146 -2028702803 -653099509 362116314 -1310634511 587350482 228069852 1135273871 -523818700 -1863093944
REM
CELL 1.54180   50.00000   50.00000   50.00000   90.00000   90.00000   90.00000
LATT -1
SFAC C  
C      1  0.5274750000000  0.4244210000000  0.5025750000000 1.0
C      1  0.4860080000000  0.4208100000000  0.4974180000000 1.0
C      1  0.4482820000000  0.4384210000000  0.5025780000000 1.0
C      1  0.4244180000000  0.4725210000000  0.4974270000000 1.0
C      1  0.4208030000000  0.5139870000000  0.5025710000000 1.0
C      1  0.4384060000000  0.5517100000000  0.4974460000000 1.0
C      1  0.4725160000000  0.5755830000000  0.5025520000000 1.0
C      1  0.5139970000000  0.5791920000000  0.4974470000000 1.0
C      1  0.5517090000000  0.5615790000000  0.5025580000000 1.0
C      1  0.5755780000000  0.5274680000000  0.4974280000000 1.0
C      1  0.5791910000000  0.4860010000000  0.5025880000000 1.0
C      1  0.5615770000000  0.4482860000000  0.4974250000000 1.0
C      1  0.5174390000000  0.5525840000000  0.5765320000000 1.0
C      1  0.5413940000000  0.5368200000000  0.4234710000000 1.0
C      1  0.5542580000000  0.5111880000000  0.5765310000000 1.0
C      1  0.5525840000000  0.4825600000000  0.4234680000000 1.0
C      1  0.5368190000000  0.4586060000000  0.5765310000000 1.0
C      1  0.5111880000000  0.4457410000000  0.4234700000000 1.0
C      1  0.4825600000000  0.4474170000000  0.5765330000000 1.0
C      1  0.4586060000000  0.4631820000000  0.4234700000000 1.0
C      1  0.4457410000000  0.4888130000000  0.5765300000000 1.0
C      1  0.4474170000000  0.5174410000000  0.4234690000000 1.0
C      1  0.4631820000000  0.5413950000000  0.5765300000000 1.0
C      1  0.4888120000000  0.5542600000000  0.4234710000000 1.0
C      1  0.5288840000000  0.5220810000000  0.4731990000000 1.0
C      1  0.5360570000000  0.5046810000000  0.5268090000000 1.0
C      1  0.5335680000000  0.4860280000000  0.4732010000000 1.0
C      1  0.5220800000000  0.4711160000000  0.5268050000000 1.0
C      1  0.5046830000000  0.4639460000000  0.4731940000000 1.0
C      1  0.4860250000000  0.4664350000000  0.5268030000000 1.0
C      1  0.4711190000000  0.4779240000000  0.4731970000000 1.0
C      1  0.4639440000000  0.4953230000000  0.5268060000000 1.0
C      1  0.4664350000000  0.5139790000000  0.4732040000000 1.0
C      1  0.4779220000000  0.5288900000000  0.5268010000000 1.0
C      1  0.4953210000000  0.5360620000000  0.4732010000000 1.0
C      1  0.5139790000000  0.5335700000000  0.5268000000000 1.0
C      1  0.5541870000000  0.5400110000000  0.4821830000000 1.0
C      1  0.5669390000000  0.5075680000000  0.5178090000000 1.0
C      1  0.5617450000000  0.4730930000000  0.4821730000000 1.0
C      1  0.5400230000000  0.4458100000000  0.5178020000000 1.0
C      1  0.5075710000000  0.4330720000000  0.4821820000000 1.0
C      1  0.4730920000000  0.4382520000000  0.5178220000000 1.0
C      1  0.4458120000000  0.4599720000000  0.4821930000000 1.0
C      1  0.4330620000000  0.4924250000000  0.5178070000000 1.0
C      1  0.4382550000000  0.5269080000000  0.4821790000000 1.0
C      1  0.4599790000000  0.5541940000000  0.5177950000000 1.0
C      1  0.4924400000000  0.5669230000000  0.4821820000000 1.0
C      1  0.5269190000000  0.5617390000000  0.5178160000000 1.0
C      1  0.5099720000000  0.5296140000000  0.5596710000000 1.0
C      1  0.5234420000000  0.5206580000000  0.4403270000000 1.0
C      1  0.5306270000000  0.5061690000000  0.5596810000000 1.0
C      1  0.5296130000000  0.4900280000000  0.4403290000000 1.0
C      1  0.5206570000000  0.4765580000000  0.5596790000000 1.0
C      1  0.5061690000000  0.4693720000000  0.4403230000000 1.0
C      1  0.4900280000000  0.4703880000000  0.5596740000000 1.0
C      1  0.4765590000000  0.4793440000000  0.4403230000000 1.0
C      1  0.4693720000000  0.4938320000000  0.5596780000000 1.0
C      1  0.4703880000000  0.5099740000000  0.4403310000000 1.0
C      1  0.4793420000000  0.5234440000000  0.5596750000000 1.0
C      1  0.4938310000000  0.5306320000000  0.4403290000000 1.0
END
