TITL C-3985254-1270-366 -3.01435399156018e-05 125000 -319.053817914005 0 0 60 (C1) n - 1
REM
REM in /home/nfs/bkarasulu/CARBON/AIRSS/Generating-Clusters/TERSOFF/Higher-Symm/Only-C60
REM
REM
REM
REM
REM
REM ./C.cell (28575a23ae977d3b5fae324c64b13b57)
REM
REM compiler GCC version 9.2.1 20190827 (Red Hat 9.2.1-1)
REM options -cpp -mtune=generic -march=x86-64 -g -O0 -fpre-include=/usr/include/finclude/math-vector-fortran.h
REM seed 1583569480 464115150 1237699472 -1164035344 -2063868948 -1232825001 1204349892 -1616394890 551138032 1421622354 -1190319228 -2099449948 2000740786 -1723549523 -950470511 608684829 1997044989 -268623512 -664125961 -749727587 1673111204 -1535441850 -282133766 -156107779 545325203 374593883 899630993 1128580963 550597240 1885611418 -2096783579 215268424 -43042176
REM
CELL 1.54180   50.00000   50.00000   50.00000   90.00000   90.00000   90.00000
LATT -1
SFAC C  
C      1  0.5125770000000  0.5224620000000  0.5312080000000 1.0
C      1  0.4961050000000  0.5431520000000  0.5494830000000 1.0
C      1  0.4485040000000  0.5061720000000  0.4312790000000 1.0
C      1  0.5511200000000  0.4900400000000  0.5133980000000 1.0
C      1  0.4922600000000  0.5299670000000  0.4803910000000 1.0
C      1  0.4887800000000  0.4297560000000  0.5245600000000 1.0
C      1  0.5418350000000  0.4594600000000  0.4862250000000 1.0
C      1  0.4961940000000  0.4968630000000  0.4129610000000 1.0
C      1  0.4640870000000  0.4690070000000  0.4568350000000 1.0
C      1  0.4327340000000  0.4860510000000  0.4788990000000 1.0
C      1  0.5153470000000  0.5446910000000  0.4928840000000 1.0
C      1  0.5456340000000  0.5173870000000  0.5613080000000 1.0
C      1  0.5215470000000  0.5003060000000  0.4854270000000 1.0
C      1  0.4943540000000  0.4531350000000  0.4974370000000 1.0
C      1  0.4649800000000  0.4506900000000  0.4794790000000 1.0
C      1  0.4666920000000  0.5141970000000  0.4959600000000 1.0
C      1  0.4712800000000  0.5625440000000  0.4965760000000 1.0
C      1  0.5246710000000  0.4574340000000  0.4437110000000 1.0
C      1  0.5561940000000  0.5256020000000  0.4741020000000 1.0
C      1  0.4560000000000  0.4433720000000  0.5305690000000 1.0
C      1  0.5275910000000  0.4592420000000  0.5328930000000 1.0
C      1  0.5025120000000  0.5054410000000  0.4628010000000 1.0
C      1  0.5658070000000  0.5196630000000  0.5392760000000 1.0
C      1  0.4745810000000  0.5525730000000  0.4651100000000 1.0
C      1  0.4609450000000  0.5383640000000  0.5142030000000 1.0
C      1  0.4573500000000  0.5122540000000  0.5610820000000 1.0
C      1  0.4532940000000  0.4609310000000  0.5562070000000 1.0
C      1  0.4677140000000  0.5347510000000  0.5436720000000 1.0
C      1  0.4318970000000  0.5061530000000  0.4565260000000 1.0
C      1  0.5330670000000  0.5589130000000  0.5373850000000 1.0
C      1  0.5323630000000  0.5358370000000  0.5148300000000 1.0
C      1  0.4681210000000  0.4688690000000  0.5170150000000 1.0
C      1  0.5203460000000  0.5420780000000  0.4378600000000 1.0
C      1  0.5573600000000  0.5197020000000  0.5077600000000 1.0
C      1  0.4514990000000  0.4888200000000  0.5017220000000 1.0
C      1  0.4773040000000  0.4969640000000  0.5774790000000 1.0
C      1  0.4891120000000  0.4378140000000  0.5557980000000 1.0
C      1  0.4887330000000  0.5408200000000  0.4393620000000 1.0
C      1  0.5214210000000  0.4309160000000  0.5230660000000 1.0
C      1  0.4724160000000  0.4966130000000  0.4644500000000 1.0
C      1  0.5371020000000  0.4908810000000  0.5726450000000 1.0
C      1  0.4409790000000  0.4885600000000  0.5522520000000 1.0
C      1  0.5288140000000  0.5418040000000  0.5647150000000 1.0
C      1  0.4773510000000  0.5151740000000  0.4271340000000 1.0
C      1  0.5459520000000  0.4714640000000  0.4585430000000 1.0
C      1  0.5488330000000  0.5018160000000  0.4535570000000 1.0
C      1  0.5213300000000  0.5736550000000  0.4821210000000 1.0
C      1  0.5045870000000  0.5727410000000  0.5336340000000 1.0
C      1  0.4869940000000  0.4683440000000  0.5669120000000 1.0
C      1  0.5357820000000  0.4312540000000  0.4959010000000 1.0
C      1  0.5024920000000  0.4692150000000  0.4214300000000 1.0
C      1  0.5393250000000  0.5537850000000  0.4597810000000 1.0
C      1  0.4951110000000  0.5789640000000  0.5059930000000 1.0
C      1  0.4842860000000  0.4824200000000  0.5378320000000 1.0
C      1  0.5217080000000  0.4763430000000  0.5053230000000 1.0
C      1  0.5230900000000  0.5122010000000  0.4413320000000 1.0
C      1  0.4830560000000  0.4536110000000  0.4400040000000 1.0
C      1  0.5031330000000  0.4427190000000  0.4639420000000 1.0
C      1  0.5064840000000  0.4950310000000  0.5268840000000 1.0
C      1  0.5192610000000  0.4710140000000  0.5588770000000 1.0
END
