TITL C-3985258-5380-141 -0.000833699804049569 125000 -321.873997308647 0 0 60 (C1) n - 1
REM
REM in /home/nfs/bkarasulu/CARBON/AIRSS/Generating-Clusters/TERSOFF/Higher-Symm/Only-C60
REM
REM
REM
REM
REM
REM ./C.cell (28575a23ae977d3b5fae324c64b13b57)
REM
REM compiler GCC version 9.2.1 20190827 (Red Hat 9.2.1-1)
REM options -cpp -mtune=generic -march=x86-64 -g -O0 -fpre-include=/usr/include/finclude/math-vector-fortran.h
REM seed 214129253 539812660 780865296 -1879309275 -1045169700 745599204 -1350930268 709505497 -1054720420 238130633 536867536 1091532555 624757977 -1113137203 -1672583849 -964787367 -1990520329 1105521212 -635635768 1236276682 9674035 1818301520 -78304299 481046684 -2124556832 489915364 1491952255 1826867278 794726874 1149317331 1382500001 -1445627090 422474609
REM
CELL 1.54180   50.00000   50.00000   50.00000   90.00000   90.00000   90.00000
LATT -1
SFAC C  
C      1  0.4412070000000  0.5216040000000  0.4634350000000 1.0
C      1  0.4424380000000  0.5207150000000  0.5324250000000 1.0
C      1  0.4432880000000  0.4532160000000  0.5028670000000 1.0
C      1  0.4599130000000  0.5052950000000  0.5542100000000 1.0
C      1  0.4610720000000  0.4456160000000  0.4780240000000 1.0
C      1  0.4603860000000  0.5466370000000  0.4663220000000 1.0
C      1  0.4894680000000  0.5667000000000  0.4712240000000 1.0
C      1  0.4885370000000  0.4907210000000  0.5709860000000 1.0
C      1  0.4893970000000  0.4418790000000  0.4568500000000 1.0
C      1  0.5164750000000  0.5799220000000  0.5105690000000 1.0
C      1  0.5169850000000  0.4507320000000  0.5635330000000 1.0
C      1  0.5162250000000  0.4703680000000  0.4257050000000 1.0
C      1  0.5578040000000  0.4818220000000  0.4476550000000 1.0
C      1  0.5579450000000  0.5547100000000  0.5115920000000 1.0
C      1  0.5591270000000  0.4630150000000  0.5424680000000 1.0
C      1  0.5020370000000  0.5391580000000  0.5515180000000 1.0
C      1  0.5033730000000  0.4355830000000  0.5087030000000 1.0
C      1  0.5015950000000  0.5244250000000  0.4401320000000 1.0
C      1  0.5826320000000  0.4803460000000  0.4954320000000 1.0
C      1  0.5824010000000  0.5138900000000  0.4850920000000 1.0
C      1  0.5827100000000  0.5059130000000  0.5193090000000 1.0
C      1  0.4932020000000  0.5219270000000  0.5736880000000 1.0
C      1  0.4969970000000  0.4243000000000  0.4822620000000 1.0
C      1  0.4949110000000  0.5528840000000  0.4432540000000 1.0
C      1  0.5156130000000  0.4623950000000  0.4546490000000 1.0
C      1  0.5160900000000  0.5584090000000  0.4894750000000 1.0
C      1  0.5164500000000  0.4797870000000  0.5554820000000 1.0
C      1  0.4693450000000  0.5729870000000  0.4977720000000 1.0
C      1  0.4687100000000  0.4650670000000  0.5624700000000 1.0
C      1  0.4669620000000  0.4625810000000  0.4400650000000 1.0
C      1  0.4587300000000  0.4585710000000  0.5321740000000 1.0
C      1  0.4558500000000  0.4926190000000  0.4503050000000 1.0
C      1  0.4584190000000  0.5504710000000  0.5197710000000 1.0
C      1  0.5282240000000  0.5183950000000  0.4312060000000 1.0
C      1  0.5289340000000  0.5492410000000  0.5520390000000 1.0
C      1  0.5296330000000  0.4306470000000  0.5189330000000 1.0
C      1  0.5456330000000  0.4609730000000  0.4650620000000 1.0
C      1  0.5460420000000  0.5500400000000  0.4847500000000 1.0
C      1  0.5467330000000  0.4883850000000  0.5515420000000 1.0
C      1  0.5511260000000  0.4495380000000  0.5179130000000 1.0
C      1  0.5496030000000  0.5097480000000  0.4483580000000 1.0
C      1  0.5502390000000  0.5395670000000  0.5353530000000 1.0
C      1  0.5603170000000  0.4615690000000  0.4924060000000 1.0
C      1  0.5598560000000  0.5261860000000  0.4709240000000 1.0
C      1  0.5604750000000  0.5119730000000  0.5374190000000 1.0
C      1  0.4336270000000  0.4791910000000  0.5344260000000 1.0
C      1  0.4299970000000  0.4811460000000  0.4644630000000 1.0
C      1  0.4318100000000  0.5485600000000  0.5028540000000 1.0
C      1  0.4279210000000  0.4762580000000  0.4929170000000 1.0
C      1  0.4252820000000  0.5234720000000  0.4895550000000 1.0
C      1  0.4252220000000  0.5006930000000  0.5116320000000 1.0
C      1  0.4859580000000  0.5040190000000  0.4584250000000 1.0
C      1  0.4875100000000  0.5347840000000  0.5243920000000 1.0
C      1  0.4877530000000  0.4613580000000  0.5174260000000 1.0
C      1  0.4994710000000  0.5346130000000  0.4976270000000 1.0
C      1  0.5005620000000  0.4846820000000  0.5301270000000 1.0
C      1  0.4984480000000  0.4808730000000  0.4713640000000 1.0
C      1  0.4806710000000  0.4668360000000  0.4894530000000 1.0
C      1  0.4806100000000  0.5261060000000  0.4772260000000 1.0
C      1  0.4820480000000  0.5068820000000  0.5327930000000 1.0
END
