TITL C-3985249-2594-66 7.61155216975227e-08 125000 -314.15181147199 0 0 60 (C3h) n - 1
REM
REM in /home/nfs/bkarasulu/CARBON/AIRSS/Generating-Clusters/TERSOFF/Higher-Symm/Only-C60
REM
REM
REM
REM
REM
REM ./C.cell (28575a23ae977d3b5fae324c64b13b57)
REM
REM compiler GCC version 9.2.1 20190827 (Red Hat 9.2.1-1)
REM options -cpp -mtune=generic -march=x86-64 -g -O0 -fpre-include=/usr/include/finclude/math-vector-fortran.h
REM seed 1487647760 -325406398 1687287768 -1635324683 -1370134914 1240416634 2108068537 -1439441799 1574250749 1194801219 2050493234 -1945889652 960615827 -2025930953 -1209357001 -1334164933 -1371037718 1750127067 1480913429 -1904694906 -1185858849 1113351669 88198555 1968699154 -173669807 -1559729352 -1607279816 356779267 429207540 -2018433983 402169181 140285098 1208736567
REM
CELL 1.54180   50.00000   50.00000   50.00000   90.00000   90.00000   90.00000
LATT -1
SFAC C  
C      1  0.4502870000000  0.4697200000000  0.5392690000000 1.0
C      1  0.4502870000000  0.4811320000000  0.4541420000000 1.0
C      1  0.4502870000000  0.5491490000000  0.5065890000000 1.0
C      1  0.5497130000000  0.4697200000000  0.5392690000000 1.0
C      1  0.5497130000000  0.4811320000000  0.4541420000000 1.0
C      1  0.5497130000000  0.5491490000000  0.5065890000000 1.0
C      1  0.4635680000000  0.5480280000000  0.4596470000000 1.0
C      1  0.4635680000000  0.5109320000000  0.5617700000000 1.0
C      1  0.4635680000000  0.4410400000000  0.4785830000000 1.0
C      1  0.5364320000000  0.5480280000000  0.4596470000000 1.0
C      1  0.5364320000000  0.5109320000000  0.5617700000000 1.0
C      1  0.5364320000000  0.4410400000000  0.4785830000000 1.0
C      1  0.4844780000000  0.5576240000000  0.4820760000000 1.0
C      1  0.4844780000000  0.4867110000000  0.5588650000000 1.0
C      1  0.4844780000000  0.4556660000000  0.4590580000000 1.0
C      1  0.5155220000000  0.5576240000000  0.4820760000000 1.0
C      1  0.5155220000000  0.4867110000000  0.5588650000000 1.0
C      1  0.5155220000000  0.4556660000000  0.4590580000000 1.0
C      1  0.4854610000000  0.4383110000000  0.5377280000000 1.0
C      1  0.4854610000000  0.4981710000000  0.4277110000000 1.0
C      1  0.4854610000000  0.5635180000000  0.5345600000000 1.0
C      1  0.5145390000000  0.4383110000000  0.5377280000000 1.0
C      1  0.5145390000000  0.4981710000000  0.4277110000000 1.0
C      1  0.5145390000000  0.5635180000000  0.5345600000000 1.0
C      1  0.4717130000000  0.5226610000000  0.4420080000000 1.0
C      1  0.4717130000000  0.5388920000000  0.5486210000000 1.0
C      1  0.4717130000000  0.4384470000000  0.5093710000000 1.0
C      1  0.5282870000000  0.5226610000000  0.4420080000000 1.0
C      1  0.5282870000000  0.5388920000000  0.5486210000000 1.0
C      1  0.5282870000000  0.4384470000000  0.5093710000000 1.0
C      1  0.4716830000000  0.4574640000000  0.5569430000000 1.0
C      1  0.4716830000000  0.4719540000000  0.4346910000000 1.0
C      1  0.4716830000000  0.5705820000000  0.5083660000000 1.0
C      1  0.5283170000000  0.4574640000000  0.5569430000000 1.0
C      1  0.5283170000000  0.4719540000000  0.4346910000000 1.0
C      1  0.5283170000000  0.5705820000000  0.5083660000000 1.0
C      1  0.4407620000000  0.4613390000000  0.4740670000000 1.0
C      1  0.4407620000000  0.5417890000000  0.4794850000000 1.0
C      1  0.4407620000000  0.4968720000000  0.5464480000000 1.0
C      1  0.5592380000000  0.4613390000000  0.4740670000000 1.0
C      1  0.5592380000000  0.5417890000000  0.4794850000000 1.0
C      1  0.5592380000000  0.4968720000000  0.5464480000000 1.0
C      1  0.5173310000000  0.4944050000000  0.5257110000000 1.0
C      1  0.5173310000000  0.4805310000000  0.4822990000000 1.0
C      1  0.5173310000000  0.5250640000000  0.4919900000000 1.0
C      1  0.4826690000000  0.4944050000000  0.5257110000000 1.0
C      1  0.4826690000000  0.4805310000000  0.4822990000000 1.0
C      1  0.4826690000000  0.5250640000000  0.4919900000000 1.0
C      1  0.5654650000000  0.5110610000000  0.4822330000000 1.0
C      1  0.5654650000000  0.5098560000000  0.5184630000000 1.0
C      1  0.5654650000000  0.4790820000000  0.4993040000000 1.0
C      1  0.4345350000000  0.5110610000000  0.4822330000000 1.0
C      1  0.4345350000000  0.5098560000000  0.5184630000000 1.0
C      1  0.4345350000000  0.4790820000000  0.4993040000000 1.0
C      1  0.5345060000000  0.5232130000000  0.5207690000000 1.0
C      1  0.5345060000000  0.4704070000000  0.5097190000000 1.0
C      1  0.5345060000000  0.5063800000000  0.4695120000000 1.0
C      1  0.4654940000000  0.5232130000000  0.5207690000000 1.0
C      1  0.4654940000000  0.4704070000000  0.5097190000000 1.0
C      1  0.4654940000000  0.5063800000000  0.4695120000000 1.0
END
