TITL C-3985254-1270-139 0.00276174722471336 125000 -322.590839031586 0 0 60 (C1) n - 1
REM
REM in /home/nfs/bkarasulu/CARBON/AIRSS/Generating-Clusters/TERSOFF/Higher-Symm/Only-C60
REM
REM
REM
REM
REM
REM ./C.cell (28575a23ae977d3b5fae324c64b13b57)
REM
REM compiler GCC version 9.2.1 20190827 (Red Hat 9.2.1-1)
REM options -cpp -mtune=generic -march=x86-64 -g -O0 -fpre-include=/usr/include/finclude/math-vector-fortran.h
REM seed -498209914 108596070 1647789389 1706743448 -1560878719 1258269296 1394878717 -1840118351 98230379 -486353564 1418597053 597430163 731715493 -1726983122 1047226422 -231897094 920473872 520954868 88325184 1156956515 1708613923 -642359780 1371080214 480816271 610775282 -922693370 -450754084 -776887884 -1047613479 -1562938087 -416482494 -1664950859 1000236062
REM
CELL 1.54180   50.00000   50.00000   50.00000   90.00000   90.00000   90.00000
LATT -1
SFAC C  
C      1  0.5332350000000  0.5554840000000  0.4836550000000 1.0
C      1  0.4437160000000  0.5378050000000  0.4616610000000 1.0
C      1  0.5199410000000  0.5217870000000  0.4429120000000 1.0
C      1  0.5541630000000  0.4530180000000  0.5421230000000 1.0
C      1  0.5590100000000  0.4750530000000  0.5196920000000 1.0
C      1  0.5739920000000  0.4932580000000  0.4986990000000 1.0
C      1  0.5543040000000  0.4907470000000  0.4723460000000 1.0
C      1  0.4752160000000  0.5083640000000  0.4302980000000 1.0
C      1  0.4708810000000  0.5289090000000  0.4543260000000 1.0
C      1  0.5450420000000  0.4676010000000  0.4529530000000 1.0
C      1  0.4854610000000  0.5396070000000  0.5558770000000 1.0
C      1  0.4450830000000  0.5300230000000  0.5331100000000 1.0
C      1  0.5059010000000  0.4991110000000  0.4251240000000 1.0
C      1  0.4305540000000  0.5107500000000  0.4627080000000 1.0
C      1  0.4846740000000  0.4550130000000  0.4688510000000 1.0
C      1  0.4698980000000  0.5297980000000  0.5169310000000 1.0
C      1  0.5549590000000  0.4954200000000  0.5432890000000 1.0
C      1  0.5517860000000  0.5332360000000  0.4782000000000 1.0
C      1  0.5081030000000  0.5026210000000  0.4666500000000 1.0
C      1  0.4497850000000  0.5150770000000  0.5602240000000 1.0
C      1  0.4733570000000  0.4410100000000  0.4980780000000 1.0
C      1  0.5255570000000  0.5606050000000  0.5115190000000 1.0
C      1  0.5476530000000  0.4398420000000  0.4655960000000 1.0
C      1  0.5493200000000  0.5259080000000  0.4491910000000 1.0
C      1  0.4936090000000  0.4914210000000  0.5200670000000 1.0
C      1  0.5327570000000  0.4649970000000  0.5007290000000 1.0
C      1  0.5292000000000  0.5393220000000  0.5500530000000 1.0
C      1  0.4447700000000  0.5573590000000  0.4835830000000 1.0
C      1  0.5389550000000  0.4348650000000  0.4951600000000 1.0
C      1  0.5078740000000  0.4658450000000  0.5168990000000 1.0
C      1  0.4609960000000  0.4744390000000  0.4672210000000 1.0
C      1  0.5129630000000  0.5514020000000  0.4621470000000 1.0
C      1  0.4812690000000  0.5096620000000  0.5674730000000 1.0
C      1  0.4550380000000  0.4704670000000  0.5396410000000 1.0
C      1  0.4737020000000  0.5049120000000  0.5008590000000 1.0
C      1  0.5272060000000  0.4412110000000  0.5448960000000 1.0
C      1  0.5742290000000  0.5213890000000  0.5117180000000 1.0
C      1  0.5265040000000  0.4975610000000  0.5466840000000 1.0
C      1  0.4940050000000  0.4396470000000  0.5187250000000 1.0
C      1  0.4842960000000  0.5703720000000  0.5139970000000 1.0
C      1  0.4268290000000  0.4991200000000  0.4916660000000 1.0
C      1  0.5039220000000  0.4569480000000  0.5600020000000 1.0
C      1  0.5365380000000  0.5113030000000  0.4958540000000 1.0
C      1  0.5591780000000  0.5261990000000  0.5384980000000 1.0
C      1  0.5158730000000  0.5124290000000  0.5204310000000 1.0
C      1  0.4838540000000  0.4802350000000  0.5486860000000 1.0
C      1  0.4537390000000  0.4612730000000  0.5109780000000 1.0
C      1  0.5010180000000  0.5446880000000  0.5274910000000 1.0
C      1  0.5106210000000  0.4740270000000  0.4757910000000 1.0
C      1  0.4525330000000  0.4916180000000  0.4442450000000 1.0
C      1  0.4525400000000  0.4845990000000  0.4932690000000 1.0
C      1  0.4714090000000  0.5696750000000  0.4875080000000 1.0
C      1  0.5183680000000  0.4706580000000  0.4342380000000 1.0
C      1  0.5199730000000  0.4235530000000  0.5195720000000 1.0
C      1  0.4229100000000  0.5101810000000  0.5198390000000 1.0
C      1  0.5149450000000  0.5134830000000  0.5699910000000 1.0
C      1  0.4858860000000  0.5161810000000  0.4765890000000 1.0
C      1  0.4342420000000  0.4916340000000  0.5460180000000 1.0
C      1  0.4983720000000  0.4500860000000  0.4419640000000 1.0
C      1  0.4882830000000  0.5671940000000  0.4635050000000 1.0
END
