TITL C-3985259-1859-500 3.24866774614036e-07 125000 -336.402900154338 0 0 60 (C2h) n - 1
REM
REM in /home/nfs/bkarasulu/CARBON/AIRSS/Generating-Clusters/TERSOFF/Higher-Symm/Only-C60
REM
REM
REM
REM
REM
REM ./C.cell (28575a23ae977d3b5fae324c64b13b57)
REM
REM compiler GCC version 9.2.1 20190827 (Red Hat 9.2.1-1)
REM options -cpp -mtune=generic -march=x86-64 -g -O0 -fpre-include=/usr/include/finclude/math-vector-fortran.h
REM seed -1554132294 -1624300986 -761840709 931431979 1353858302 -1378370087 -1882462954 16992383 -1846076983 -168393225 1069585551 16426469 1049769799 -342098564 610288943 1516368975 -1530401601 -1961333992 1326374818 946089581 990089853 645602440 492113000 -861702124 993656607 -1841611963 -1436300594 1188963980 -1718274603 2141758708 -930103793 -682190738 -1940345476
REM
CELL 1.54180   50.00000   50.00000   50.00000   90.00000   90.00000   90.00000
LATT -1
SFAC C  
C      1  0.5266940000000  0.5433950000000  0.5541920000000 1.0
C      1  0.5266940000000  0.4566060000000  0.4458070000000 1.0
C      1  0.4733060000000  0.5433940000000  0.5541930000000 1.0
C      1  0.4733050000000  0.4566050000000  0.4458080000000 1.0
C      1  0.5300300000000  0.4383460000000  0.5398870000000 1.0
C      1  0.5300260000000  0.5616560000000  0.4601120000000 1.0
C      1  0.4699740000000  0.4383450000000  0.5398890000000 1.0
C      1  0.4699710000000  0.5616530000000  0.4601120000000 1.0
C      1  0.4334060000000  0.5038000000000  0.4827120000000 1.0
C      1  0.4334070000000  0.4961970000000  0.5172900000000 1.0
C      1  0.5665930000000  0.5038030000000  0.4827090000000 1.0
C      1  0.5665940000000  0.4961990000000  0.5172880000000 1.0
C      1  0.5285780000000  0.5366410000000  0.5027640000000 1.0
C      1  0.5285790000000  0.4633600000000  0.4972350000000 1.0
C      1  0.4714210000000  0.5366400000000  0.5027650000000 1.0
C      1  0.4714220000000  0.4633590000000  0.4972370000000 1.0
C      1  0.5569400000000  0.5511350000000  0.4579730000000 1.0
C      1  0.5569430000000  0.4488670000000  0.5420250000000 1.0
C      1  0.4430570000000  0.5511320000000  0.4579740000000 1.0
C      1  0.4430610000000  0.4488660000000  0.5420280000000 1.0
C      1  0.5170570000000  0.5706520000000  0.5418900000000 1.0
C      1  0.5170580000000  0.4293490000000  0.4581100000000 1.0
C      1  0.4829420000000  0.5706520000000  0.5418900000000 1.0
C      1  0.4829430000000  0.4293480000000  0.4581110000000 1.0
C      1  0.5159970000000  0.4979160000000  0.5327370000000 1.0
C      1  0.5159960000000  0.5020850000000  0.4672620000000 1.0
C      1  0.4840040000000  0.4979150000000  0.5327380000000 1.0
C      1  0.4840030000000  0.5020840000000  0.4672630000000 1.0
C      1  0.5581250000000  0.5475750000000  0.5090760000000 1.0
C      1  0.5581260000000  0.4524270000000  0.4909220000000 1.0
C      1  0.4418740000000  0.5475730000000  0.5090770000000 1.0
C      1  0.4418750000000  0.4524240000000  0.4909250000000 1.0
C      1  0.4324680000000  0.4733950000000  0.4699110000000 1.0
C      1  0.4324680000000  0.5266020000000  0.5300910000000 1.0
C      1  0.5675320000000  0.4733980000000  0.4699080000000 1.0
C      1  0.5675320000000  0.5266040000000  0.5300890000000 1.0
C      1  0.4609060000000  0.4264280000000  0.4802470000000 1.0
C      1  0.4609040000000  0.5735700000000  0.5197550000000 1.0
C      1  0.5390960000000  0.4264300000000  0.4802450000000 1.0
C      1  0.5390940000000  0.5735720000000  0.5197540000000 1.0
C      1  0.4314600000000  0.4630980000000  0.5191510000000 1.0
C      1  0.4314580000000  0.5368990000000  0.4808510000000 1.0
C      1  0.5685420000000  0.4631010000000  0.5191480000000 1.0
C      1  0.5685400000000  0.5369020000000  0.4808490000000 1.0
C      1  0.4454020000000  0.5335300000000  0.5556230000000 1.0
C      1  0.4454000000000  0.4664680000000  0.4443790000000 1.0
C      1  0.5545990000000  0.5335320000000  0.5556220000000 1.0
C      1  0.5545980000000  0.4664700000000  0.4443760000000 1.0
C      1  0.4848230000000  0.4708650000000  0.4698690000000 1.0
C      1  0.4848230000000  0.5291340000000  0.5301310000000 1.0
C      1  0.5151770000000  0.4708660000000  0.4698680000000 1.0
C      1  0.5151770000000  0.5291350000000  0.5301310000000 1.0
C      1  0.5343350000000  0.4894120000000  0.5112840000000 1.0
C      1  0.5343340000000  0.5105900000000  0.4887140000000 1.0
C      1  0.4656660000000  0.4894110000000  0.5112860000000 1.0
C      1  0.4656650000000  0.5105880000000  0.4887150000000 1.0
C      1  0.5143540000000  0.5545450000000  0.4836600000000 1.0
C      1  0.5143570000000  0.4454550000000  0.5163390000000 1.0
C      1  0.4856430000000  0.5545440000000  0.4836600000000 1.0
C      1  0.4856460000000  0.4454550000000  0.5163400000000 1.0
END
