TITL C-3985250-725-133 -5.30007510836674e-07 125000 -339.346863658557 0 0 60 (D3) n - 1
REM
REM in /home/nfs/bkarasulu/CARBON/AIRSS/Generating-Clusters/TERSOFF/Higher-Symm/Only-C60
REM
REM
REM
REM
REM
REM ./C.cell (28575a23ae977d3b5fae324c64b13b57)
REM
REM compiler GCC version 9.2.1 20190827 (Red Hat 9.2.1-1)
REM options -cpp -mtune=generic -march=x86-64 -g -O0 -fpre-include=/usr/include/finclude/math-vector-fortran.h
REM seed -384019308 -1616668352 -922349629 2133310018 -1687720122 360931064 -2138209140 561690030 616537928 987306070 -1053994774 -21005036 -310427651 -433199398 -1554068278 -236699356 1111105269 -2084213582 671090371 1714034731 -26593952 646479641 -1576950426 1953238063 652033436 1757695089 676856596 -607908272 -1445387525 1055715320 -972736394 -325307734 -725007091
REM
CELL 1.54180   50.00000   50.00000   50.00000   90.00000   90.00000   90.00000
LATT -1
SFAC C  
C      1  0.5150900000000  0.4432860000000  0.4661870000000 1.0
C      1  0.5150960000000  0.5576390000000  0.4677910000000 1.0
C      1  0.5150930000000  0.4990730000000  0.5660190000000 1.0
C      1  0.4849100000000  0.5567140000000  0.4661870000000 1.0
C      1  0.4849040000000  0.4423610000000  0.4677910000000 1.0
C      1  0.4849070000000  0.5009270000000  0.5660190000000 1.0
C      1  0.4691770000000  0.5432330000000  0.5401410000000 1.0
C      1  0.4691740000000  0.4436270000000  0.5173660000000 1.0
C      1  0.4691770000000  0.5131480000000  0.4424960000000 1.0
C      1  0.5308230000000  0.4567670000000  0.5401410000000 1.0
C      1  0.5308260000000  0.5563740000000  0.5173660000000 1.0
C      1  0.5308230000000  0.4868520000000  0.4424960000000 1.0
C      1  0.4859220000000  0.4671750000000  0.5217690000000 1.0
C      1  0.4859200000000  0.4975610000000  0.4606930000000 1.0
C      1  0.4859200000000  0.5352690000000  0.5175430000000 1.0
C      1  0.5140780000000  0.5328250000000  0.5217690000000 1.0
C      1  0.5140800000000  0.5024390000000  0.4606930000000 1.0
C      1  0.5140800000000  0.4647310000000  0.5175430000000 1.0
C      1  0.5323090000000  0.4309560000000  0.4882580000000 1.0
C      1  0.5323140000000  0.5446870000000  0.4460770000000 1.0
C      1  0.5323130000000  0.5243520000000  0.5656610000000 1.0
C      1  0.4676910000000  0.5690440000000  0.4882580000000 1.0
C      1  0.4676860000000  0.4553130000000  0.4460770000000 1.0
C      1  0.4676860000000  0.4756480000000  0.5656610000000 1.0
C      1  0.5568270000000  0.5304000000000  0.4970440000000 1.0
C      1  0.5568230000000  0.4873550000000  0.5278070000000 1.0
C      1  0.5568270000000  0.4822360000000  0.4751480000000 1.0
C      1  0.4431730000000  0.4696000000000  0.4970440000000 1.0
C      1  0.4431770000000  0.5126450000000  0.5278070000000 1.0
C      1  0.4431730000000  0.5177640000000  0.4751480000000 1.0
C      1  0.5580390000000  0.4429800000000  0.4990820000000 1.0
C      1  0.5580430000000  0.5293000000000  0.4510800000000 1.0
C      1  0.5580430000000  0.5277120000000  0.5498350000000 1.0
C      1  0.4419610000000  0.5570200000000  0.4990820000000 1.0
C      1  0.4419570000000  0.4707000000000  0.4510800000000 1.0
C      1  0.4419570000000  0.4722880000000  0.5498350000000 1.0
C      1  0.5729860000000  0.5386170000000  0.4744450000000 1.0
C      1  0.5729850000000  0.5028170000000  0.5462220000000 1.0
C      1  0.5729850000000  0.4585530000000  0.4793290000000 1.0
C      1  0.4270140000000  0.4613830000000  0.4744450000000 1.0
C      1  0.4270150000000  0.4971830000000  0.5462220000000 1.0
C      1  0.4270150000000  0.5414470000000  0.4793290000000 1.0
C      1  0.4425190000000  0.5008530000000  0.4489560000000 1.0
C      1  0.4425210000000  0.5437840000000  0.5262570000000 1.0
C      1  0.4425170000000  0.4553720000000  0.5247850000000 1.0
C      1  0.5574810000000  0.4991470000000  0.4489560000000 1.0
C      1  0.5574790000000  0.4562160000000  0.5262570000000 1.0
C      1  0.5574830000000  0.5446280000000  0.5247850000000 1.0
C      1  0.5276770000000  0.4577680000000  0.4437720000000 1.0
C      1  0.5276820000000  0.5698090000000  0.4915400000000 1.0
C      1  0.5276790000000  0.4724190000000  0.5646880000000 1.0
C      1  0.4723230000000  0.5422320000000  0.4437720000000 1.0
C      1  0.4723180000000  0.4301910000000  0.4915400000000 1.0
C      1  0.4723210000000  0.5275810000000  0.5646890000000 1.0
C      1  0.5291560000000  0.5150370000000  0.4868810000000 1.0
C      1  0.5291480000000  0.5038430000000  0.5195910000000 1.0
C      1  0.5291570000000  0.4811110000000  0.4935380000000 1.0
C      1  0.4708440000000  0.4849630000000  0.4868810000000 1.0
C      1  0.4708520000000  0.4961570000000  0.5195910000000 1.0
C      1  0.4708430000000  0.5188890000000  0.4935380000000 1.0
END
