TITL C-3985259-1859-682 3.68263771623276e-08 125000 -309.397832123954 0 0 60 (D6h) n - 1
REM
REM in /home/nfs/bkarasulu/CARBON/AIRSS/Generating-Clusters/TERSOFF/Higher-Symm/Only-C60
REM
REM
REM
REM
REM
REM ./C.cell (28575a23ae977d3b5fae324c64b13b57)
REM
REM compiler GCC version 9.2.1 20190827 (Red Hat 9.2.1-1)
REM options -cpp -mtune=generic -march=x86-64 -g -O0 -fpre-include=/usr/include/finclude/math-vector-fortran.h
REM seed 1952576613 876626954 99252226 -1730513378 1481126040 -1463872351 74007525 -616446647 548778948 -1866615162 2063134182 608663082 -2007884764 925960223 -1641073284 -140031355 -286516119 439617463 -868473453 2146936884 -700243888 1650642462 1541059753 1764106104 1892483166 -2008197831 612519662 1154124539 -642908188 1354676413 118501845 1139416168 1940273327
REM
CELL 1.54180   50.00000   50.00000   50.00000   90.00000   90.00000   90.00000
LATT -1
SFAC C  
C      1  0.4833540000000  0.5749070000000  0.5246020000000 1.0
C      1  0.4833540000000  0.4838530000000  0.4228280000000 1.0
C      1  0.4833540000000  0.4412400000000  0.5525700000000 1.0
C      1  0.5166460000000  0.5749070000000  0.5246020000000 1.0
C      1  0.5166460000000  0.4838530000000  0.4228280000000 1.0
C      1  0.5166460000000  0.4412400000000  0.5525700000000 1.0
C      1  0.4833540000000  0.4250930000000  0.5246020000000 1.0
C      1  0.4833540000000  0.5161470000000  0.4228280000000 1.0
C      1  0.4833540000000  0.5587600000000  0.5525700000000 1.0
C      1  0.5166460000000  0.4250930000000  0.5246020000000 1.0
C      1  0.5166460000000  0.5161470000000  0.4228280000000 1.0
C      1  0.5166460000000  0.5587600000000  0.5525700000000 1.0
C      1  0.5158600000000  0.4850400000000  0.5259120000000 1.0
C      1  0.5158600000000  0.5299210000000  0.5000000000000 1.0
C      1  0.5158600000000  0.4850400000000  0.4740880000000 1.0
C      1  0.4841400000000  0.4850400000000  0.5259120000000 1.0
C      1  0.4841400000000  0.5299210000000  0.5000000000000 1.0
C      1  0.4841400000000  0.4850400000000  0.4740880000000 1.0
C      1  0.5158600000000  0.5149600000000  0.5259120000000 1.0
C      1  0.5158600000000  0.4700790000000  0.5000000000000 1.0
C      1  0.5158600000000  0.5149600000000  0.4740880000000 1.0
C      1  0.4841400000000  0.5149600000000  0.5259120000000 1.0
C      1  0.4841400000000  0.4700790000000  0.5000000000000 1.0
C      1  0.4841400000000  0.5149600000000  0.4740880000000 1.0
C      1  0.5166460000000  0.5161470000000  0.5771720000000 1.0
C      1  0.5166460000000  0.5587600000000  0.4474300000000 1.0
C      1  0.5166460000000  0.4250930000000  0.4753980000000 1.0
C      1  0.4833540000000  0.5161470000000  0.5771720000000 1.0
C      1  0.4833540000000  0.5587600000000  0.4474300000000 1.0
C      1  0.4833540000000  0.4250930000000  0.4753980000000 1.0
C      1  0.5166460000000  0.4838530000000  0.5771720000000 1.0
C      1  0.5166460000000  0.4412400000000  0.4474300000000 1.0
C      1  0.5166460000000  0.5749070000000  0.4753980000000 1.0
C      1  0.4833540000000  0.4838530000000  0.5771720000000 1.0
C      1  0.4833540000000  0.4412400000000  0.4474300000000 1.0
C      1  0.4833540000000  0.5749070000000  0.4753980000000 1.0
C      1  0.5480570000000  0.5181830000000  0.4685060000000 1.0
C      1  0.5480570000000  0.4636340000000  0.5000000000000 1.0
C      1  0.5480570000000  0.5181830000000  0.5314940000000 1.0
C      1  0.4519430000000  0.5181830000000  0.4685060000000 1.0
C      1  0.4519430000000  0.4636340000000  0.5000000000000 1.0
C      1  0.4519430000000  0.5181830000000  0.5314940000000 1.0
C      1  0.5480570000000  0.4818170000000  0.4685060000000 1.0
C      1  0.5480570000000  0.5363660000000  0.5000000000000 1.0
C      1  0.5480570000000  0.4818170000000  0.5314940000000 1.0
C      1  0.4519430000000  0.4818170000000  0.4685060000000 1.0
C      1  0.4519430000000  0.5363660000000  0.5000000000000 1.0
C      1  0.4519430000000  0.4818170000000  0.5314940000000 1.0
C      1  0.5327270000000  0.5681840000000  0.5000000000000 1.0
C      1  0.5327270000000  0.4659080000000  0.4409510000000 1.0
C      1  0.5327270000000  0.4659080000000  0.5590490000000 1.0
C      1  0.4672730000000  0.5681840000000  0.5000000000000 1.0
C      1  0.4672730000000  0.4659080000000  0.4409510000000 1.0
C      1  0.4672730000000  0.4659080000000  0.5590490000000 1.0
C      1  0.5327270000000  0.4318160000000  0.5000000000000 1.0
C      1  0.5327270000000  0.5340920000000  0.4409510000000 1.0
C      1  0.5327270000000  0.5340920000000  0.5590490000000 1.0
C      1  0.4672730000000  0.4318160000000  0.5000000000000 1.0
C      1  0.4672730000000  0.5340920000000  0.4409510000000 1.0
C      1  0.4672730000000  0.5340920000000  0.5590490000000 1.0
END
