TITL C-3985253-1688-446 0.0136000798739895 125000 -321.145923675912 0 0 60 (T23) n - 1
REM
REM in /home/nfs/bkarasulu/CARBON/AIRSS/Generating-Clusters/TERSOFF/Higher-Symm/Only-C60
REM
REM
REM
REM
REM
REM ./C.cell (28575a23ae977d3b5fae324c64b13b57)
REM
REM compiler GCC version 9.2.1 20190827 (Red Hat 9.2.1-1)
REM options -cpp -mtune=generic -march=x86-64 -g -O0 -fpre-include=/usr/include/finclude/math-vector-fortran.h
REM seed -872592810 144886518 1665051708 -466281622 922336086 -1914998280 -919603136 836688621 -250844324 552763588 -688122162 -1992294228 -1303508830 -2079372201 2121449253 1782352406 -1827908637 -2123761641 1433222027 -2080931967 2060321446 -1612893743 -638682670 -1765722690 1552402302 1264322474 1098464048 -1683066287 2110768560 -85481112 -1624910225 -1986283897 1500277305
REM
CELL 1.54180   50.00000   50.00000   50.00000   90.00000   90.00000   90.00000
LATT -1
SFAC C  
C      1  0.5451460000000  0.5631840000000  0.5339690000000 1.0
C      1  0.5631840000000  0.5339690000000  0.5451460000000 1.0
C      1  0.5339690000000  0.5451460000000  0.5631840000000 1.0
C      1  0.4548540000000  0.5631840000000  0.4660310000000 1.0
C      1  0.4548540000000  0.4368160000000  0.5339690000000 1.0
C      1  0.5451460000000  0.4368160000000  0.4660310000000 1.0
C      1  0.4368160000000  0.5339690000000  0.4548540000000 1.0
C      1  0.4368160000000  0.4660310000000  0.5451460000000 1.0
C      1  0.5631840000000  0.4660310000000  0.4548540000000 1.0
C      1  0.4660310000000  0.5451460000000  0.4368160000000 1.0
C      1  0.4660310000000  0.4548540000000  0.5631840000000 1.0
C      1  0.5339690000000  0.4548540000000  0.4368160000000 1.0
C      1  0.5351250000000  0.4373010000000  0.4938240000000 1.0
C      1  0.4373010000000  0.4938240000000  0.5351250000000 1.0
C      1  0.4938240000000  0.5351250000000  0.4373010000000 1.0
C      1  0.4648750000000  0.4373010000000  0.5061760000000 1.0
C      1  0.4648750000000  0.5626990000000  0.4938240000000 1.0
C      1  0.5351250000000  0.5626990000000  0.5061760000000 1.0
C      1  0.5626990000000  0.4938240000000  0.4648750000000 1.0
C      1  0.5626990000000  0.5061760000000  0.5351250000000 1.0
C      1  0.4373010000000  0.5061760000000  0.4648750000000 1.0
C      1  0.5061760000000  0.5351250000000  0.5626990000000 1.0
C      1  0.5061760000000  0.4648750000000  0.4373010000000 1.0
C      1  0.4938240000000  0.4648750000000  0.5626990000000 1.0
C      1  0.5431000000000  0.4878750000000  0.5456730000000 1.0
C      1  0.4878750000000  0.5456730000000  0.5431000000000 1.0
C      1  0.5456730000000  0.5431000000000  0.4878750000000 1.0
C      1  0.4569000000000  0.4878750000000  0.4543270000000 1.0
C      1  0.4569000000000  0.5121250000000  0.5456730000000 1.0
C      1  0.5431000000000  0.5121250000000  0.4543270000000 1.0
C      1  0.5121250000000  0.5456730000000  0.4569000000000 1.0
C      1  0.5121250000000  0.4543270000000  0.5431000000000 1.0
C      1  0.4878750000000  0.4543270000000  0.4569000000000 1.0
C      1  0.4543270000000  0.5431000000000  0.5121250000000 1.0
C      1  0.4543270000000  0.4569000000000  0.4878750000000 1.0
C      1  0.5456730000000  0.4569000000000  0.5121250000000 1.0
C      1  0.4206330000000  0.5061310000000  0.5131410000000 1.0
C      1  0.5061310000000  0.5131410000000  0.4206330000000 1.0
C      1  0.5131410000000  0.4206330000000  0.5061310000000 1.0
C      1  0.5793670000000  0.5061310000000  0.4868590000000 1.0
C      1  0.5793670000000  0.4938690000000  0.5131410000000 1.0
C      1  0.4206330000000  0.4938690000000  0.4868590000000 1.0
C      1  0.4938690000000  0.5131410000000  0.5793670000000 1.0
C      1  0.4938690000000  0.4868590000000  0.4206330000000 1.0
C      1  0.5061310000000  0.4868590000000  0.5793670000000 1.0
C      1  0.4868590000000  0.4206330000000  0.4938690000000 1.0
C      1  0.4868590000000  0.5793670000000  0.5061310000000 1.0
C      1  0.5131410000000  0.5793670000000  0.4938690000000 1.0
C      1  0.4269730000000  0.4656920000000  0.4875340000000 1.0
C      1  0.4656920000000  0.4875340000000  0.4269730000000 1.0
C      1  0.4875340000000  0.4269730000000  0.4656920000000 1.0
C      1  0.5730270000000  0.4656920000000  0.5124660000000 1.0
C      1  0.5730270000000  0.5343080000000  0.4875340000000 1.0
C      1  0.4269730000000  0.5343080000000  0.5124660000000 1.0
C      1  0.5343080000000  0.4875340000000  0.5730270000000 1.0
C      1  0.5343080000000  0.5124660000000  0.4269730000000 1.0
C      1  0.4656920000000  0.5124660000000  0.5730270000000 1.0
C      1  0.5124660000000  0.4269730000000  0.5343080000000 1.0
C      1  0.5124660000000  0.5730270000000  0.4656920000000 1.0
C      1  0.4875340000000  0.5730270000000  0.5343080000000 1.0
END
