TITL C-3985258-5380-58 -0.000799755889199401 125000 -340.126074481451 0 0 60 (C1) n - 1
REM
REM in /home/nfs/bkarasulu/CARBON/AIRSS/Generating-Clusters/TERSOFF/Higher-Symm/Only-C60
REM
REM
REM
REM
REM
REM ./C.cell (28575a23ae977d3b5fae324c64b13b57)
REM
REM compiler GCC version 9.2.1 20190827 (Red Hat 9.2.1-1)
REM options -cpp -mtune=generic -march=x86-64 -g -O0 -fpre-include=/usr/include/finclude/math-vector-fortran.h
REM seed -1008557317 -827085191 -2033551819 66393169 1157014049 601420754 -717084278 -1346141776 -1626025226 1359364881 573903053 -1160843629 -937166319 -879667945 -937988562 1933739141 -1933734294 1598715996 -924691429 -1010762691 -1508849359 -39020946 -2129031048 1581807147 -1320070200 -1590680933 819359279 -36624694 1376430361 -1743591005 -1592816418 -760606693 179351594
REM
CELL 1.54180   50.00000   50.00000   50.00000   90.00000   90.00000   90.00000
LATT -1
SFAC C  
C      1  0.5425760000000  0.4867920000000  0.4537710000000 1.0
C      1  0.5466930000000  0.5468290000000  0.4553920000000 1.0
C      1  0.5468130000000  0.5650740000000  0.5169800000000 1.0
C      1  0.5426280000000  0.5135110000000  0.5466690000000 1.0
C      1  0.5466680000000  0.4533330000000  0.5445130000000 1.0
C      1  0.5469600000000  0.4347870000000  0.4829560000000 1.0
C      1  0.5484110000000  0.4846780000000  0.5566170000000 1.0
C      1  0.5472010000000  0.5484340000000  0.5414660000000 1.0
C      1  0.5459070000000  0.5571450000000  0.4840140000000 1.0
C      1  0.5483540000000  0.5154820000000  0.4434230000000 1.0
C      1  0.5473040000000  0.4515900000000  0.4586810000000 1.0
C      1  0.5458450000000  0.4429660000000  0.5158610000000 1.0
C      1  0.5251040000000  0.4433100000000  0.4366300000000 1.0
C      1  0.5250880000000  0.5283280000000  0.4244930000000 1.0
C      1  0.5253990000000  0.5827990000000  0.4855140000000 1.0
C      1  0.5251800000000  0.5569470000000  0.5636640000000 1.0
C      1  0.5251040000000  0.4718300000000  0.5754210000000 1.0
C      1  0.5253420000000  0.4173590000000  0.5144420000000 1.0
C      1  0.5248310000000  0.4424440000000  0.5650290000000 1.0
C      1  0.5239900000000  0.5271650000000  0.5692250000000 1.0
C      1  0.5248660000000  0.5878700000000  0.5159760000000 1.0
C      1  0.5249510000000  0.5578100000000  0.4347830000000 1.0
C      1  0.5238120000000  0.4731330000000  0.4313830000000 1.0
C      1  0.5249420000000  0.4118400000000  0.4840540000000 1.0
C      1  0.4539380000000  0.5584640000000  0.5160920000000 1.0
C      1  0.4515850000000  0.5158540000000  0.5558940000000 1.0
C      1  0.4530370000000  0.4519010000000  0.5400560000000 1.0
C      1  0.4518210000000  0.4376040000000  0.4827240000000 1.0
C      1  0.4513990000000  0.4844790000000  0.4454790000000 1.0
C      1  0.4528930000000  0.5489600000000  0.4590470000000 1.0
C      1  0.4534950000000  0.5659780000000  0.4832260000000 1.0
C      1  0.4574290000000  0.5138530000000  0.4543450000000 1.0
C      1  0.4534130000000  0.4521750000000  0.4562360000000 1.0
C      1  0.4536940000000  0.4341350000000  0.5159560000000 1.0
C      1  0.4576530000000  0.4872110000000  0.5454280000000 1.0
C      1  0.4533930000000  0.5474200000000  0.5444070000000 1.0
C      1  0.4750950000000  0.5580730000000  0.5651350000000 1.0
C      1  0.4758480000000  0.4732640000000  0.5680850000000 1.0
C      1  0.4758300000000  0.4118150000000  0.5158800000000 1.0
C      1  0.4750820000000  0.4422390000000  0.4354420000000 1.0
C      1  0.4757630000000  0.5272420000000  0.4313620000000 1.0
C      1  0.4757840000000  0.5883990000000  0.4840600000000 1.0
C      1  0.4748470000000  0.5570760000000  0.4366430000000 1.0
C      1  0.4744710000000  0.4718280000000  0.4257070000000 1.0
C      1  0.4747680000000  0.4141320000000  0.4850090000000 1.0
C      1  0.4747640000000  0.4435820000000  0.5626870000000 1.0
C      1  0.4745930000000  0.5285440000000  0.5753330000000 1.0
C      1  0.4750940000000  0.5836050000000  0.5146190000000 1.0
C      1  0.5008630000000  0.4158910000000  0.5302480000000 1.0
C      1  0.5001010000000  0.4297350000000  0.4441930000000 1.0
C      1  0.4996020000000  0.5143890000000  0.4215530000000 1.0
C      1  0.5009220000000  0.5845000000000  0.4695470000000 1.0
C      1  0.5001450000000  0.5703690000000  0.5560430000000 1.0
C      1  0.4996510000000  0.4858490000000  0.5784210000000 1.0
C      1  0.4997050000000  0.4146440000000  0.4692870000000 1.0
C      1  0.4999450000000  0.4301480000000  0.5556180000000 1.0
C      1  0.4999300000000  0.5144710000000  0.5787500000000 1.0
C      1  0.4996460000000  0.5846000000000  0.5305420000000 1.0
C      1  0.5000810000000  0.5703170000000  0.4440400000000 1.0
C      1  0.4997510000000  0.4858000000000  0.4219510000000 1.0
END
