TITL C-3985250-725-477 1.62030102663146e-07 125000 -321.285300865698 0 0 60 (C4v) n - 1
REM
REM in /home/nfs/bkarasulu/CARBON/AIRSS/Generating-Clusters/TERSOFF/Higher-Symm/Only-C60
REM
REM
REM
REM
REM
REM ./C.cell (28575a23ae977d3b5fae324c64b13b57)
REM
REM compiler GCC version 9.2.1 20190827 (Red Hat 9.2.1-1)
REM options -cpp -mtune=generic -march=x86-64 -g -O0 -fpre-include=/usr/include/finclude/math-vector-fortran.h
REM seed 2062640454 165829084 931459463 2108495105 664247880 1299994466 1435713765 662939372 -570017973 -1012629115 -720815402 -389412784 1070540896 634994783 1893660041 2107308136 1260245190 895561687 1663233331 1513895284 1892617668 5546316 682713860 1376400201 -353292914 -243831705 1179484497 64901540 1269583087 -136906223 -1327031944 -1168782594 -1883211057
REM
CELL 1.54180   50.00000   50.00000   50.00000   90.00000   90.00000   90.00000
LATT -1
SFAC C  
C      1  0.4835320000000  0.4962320000000  0.5395540000000 1.0
C      1  0.4604460000000  0.4962320000000  0.4835320000000 1.0
C      1  0.5164680000000  0.4962320000000  0.4604460000000 1.0
C      1  0.5395540000000  0.4962320000000  0.5164680000000 1.0
C      1  0.4835320000000  0.4962320000000  0.4604460000000 1.0
C      1  0.4604460000000  0.4962320000000  0.5164680000000 1.0
C      1  0.5164680000000  0.4962320000000  0.5395540000000 1.0
C      1  0.5395540000000  0.4962320000000  0.4835320000000 1.0
C      1  0.4476040000000  0.5008220000000  0.4270330000000 1.0
C      1  0.5729670000000  0.5008220000000  0.4476040000000 1.0
C      1  0.5523960000000  0.5008220000000  0.5729670000000 1.0
C      1  0.4270330000000  0.5008220000000  0.5523960000000 1.0
C      1  0.4476040000000  0.5008220000000  0.5729670000000 1.0
C      1  0.5729670000000  0.5008220000000  0.5523960000000 1.0
C      1  0.5523960000000  0.5008220000000  0.4270330000000 1.0
C      1  0.4270330000000  0.5008220000000  0.4476040000000 1.0
C      1  0.4845580000000  0.4294470000000  0.4627360000000 1.0
C      1  0.5372640000000  0.4294470000000  0.4845580000000 1.0
C      1  0.5154420000000  0.4294470000000  0.5372640000000 1.0
C      1  0.4627360000000  0.4294470000000  0.5154420000000 1.0
C      1  0.4845580000000  0.4294470000000  0.5372640000000 1.0
C      1  0.5372640000000  0.4294470000000  0.5154420000000 1.0
C      1  0.5154420000000  0.4294470000000  0.4627360000000 1.0
C      1  0.4627360000000  0.4294470000000  0.4845580000000 1.0
C      1  0.5252480000000  0.5109850000000  0.4338370000000 1.0
C      1  0.5661630000000  0.5109850000000  0.5252480000000 1.0
C      1  0.4747520000000  0.5109850000000  0.5661630000000 1.0
C      1  0.4338370000000  0.5109850000000  0.4747520000000 1.0
C      1  0.5252480000000  0.5109850000000  0.5661630000000 1.0
C      1  0.5661630000000  0.5109850000000  0.4747520000000 1.0
C      1  0.4747520000000  0.5109850000000  0.4338370000000 1.0
C      1  0.4338370000000  0.5109850000000  0.5252480000000 1.0
C      1  0.5424460000000  0.4625420000000  0.4824640000000 1.0
C      1  0.5175360000000  0.4625420000000  0.5424460000000 1.0
C      1  0.4575540000000  0.4625420000000  0.5175360000000 1.0
C      1  0.4824640000000  0.4625420000000  0.4575540000000 1.0
C      1  0.5424460000000  0.4625420000000  0.5175360000000 1.0
C      1  0.5175360000000  0.4625420000000  0.4575540000000 1.0
C      1  0.4575540000000  0.4625420000000  0.4824640000000 1.0
C      1  0.4824640000000  0.4625420000000  0.5424460000000 1.0
C      1  0.5149110000000  0.5526550000000  0.4640330000000 1.0
C      1  0.5359670000000  0.5526550000000  0.5149110000000 1.0
C      1  0.4850890000000  0.5526550000000  0.5359670000000 1.0
C      1  0.4640330000000  0.5526550000000  0.4850890000000 1.0
C      1  0.5149110000000  0.5526550000000  0.5359670000000 1.0
C      1  0.5359670000000  0.5526550000000  0.4850890000000 1.0
C      1  0.4850890000000  0.5526550000000  0.4640330000000 1.0
C      1  0.4640330000000  0.5526550000000  0.5149110000000 1.0
C      1  0.4744970000000  0.5403910000000  0.5606030000000 1.0
C      1  0.4393970000000  0.5403910000000  0.4744970000000 1.0
C      1  0.5255030000000  0.5403910000000  0.4393970000000 1.0
C      1  0.5606030000000  0.5403910000000  0.5255030000000 1.0
C      1  0.4744970000000  0.5403910000000  0.4393970000000 1.0
C      1  0.4393970000000  0.5403910000000  0.5255030000000 1.0
C      1  0.5255030000000  0.5403910000000  0.5606030000000 1.0
C      1  0.5606030000000  0.5403910000000  0.4744970000000 1.0
C      1  0.5822340000000  0.5053080000000  0.5000000000000 1.0
C      1  0.5000000000000  0.5053080000000  0.5822340000000 1.0
C      1  0.4177660000000  0.5053080000000  0.5000000000000 1.0
C      1  0.5000000000000  0.5053080000000  0.4177660000000 1.0
END
