TITL C-3985253-1688-384 -0.000789601019822672 125000 -338.743863308424 0 0 60 (C1) n - 1
REM
REM in /home/nfs/bkarasulu/CARBON/AIRSS/Generating-Clusters/TERSOFF/Higher-Symm/Only-C60
REM
REM
REM
REM
REM
REM ./C.cell (28575a23ae977d3b5fae324c64b13b57)
REM
REM compiler GCC version 9.2.1 20190827 (Red Hat 9.2.1-1)
REM options -cpp -mtune=generic -march=x86-64 -g -O0 -fpre-include=/usr/include/finclude/math-vector-fortran.h
REM seed 1391312780 1021293570 -1357842185 -1394478172 699483621 -1014831021 -1360696444 300377067 1955623223 -896610194 783585178 -2079471830 -912444319 -721467824 -1206392452 997005269 1406944085 -413340673 -632938929 -1467051331 76664389 -2087390688 -733442176 -2035884880 -814465918 1361769684 2118665033 -1116591562 1968133280 1813697686 -7037283 282548592 -1393200843
REM
CELL 1.54180   50.00000   50.00000   50.00000   90.00000   90.00000   90.00000
LATT -1
SFAC C  
C      1  0.5178340000000  0.5607810000000  0.4834330000000 1.0
C      1  0.5175660000000  0.5025950000000  0.4371480000000 1.0
C      1  0.5175500000000  0.4411180000000  0.4781930000000 1.0
C      1  0.5176430000000  0.4607760000000  0.5493540000000 1.0
C      1  0.5178530000000  0.5343690000000  0.5524750000000 1.0
C      1  0.5532470000000  0.5005110000000  0.5275100000000 1.0
C      1  0.5528140000000  0.5260000000000  0.5080630000000 1.0
C      1  0.5512550000000  0.5152410000000  0.4784210000000 1.0
C      1  0.5509330000000  0.4840760000000  0.4792040000000 1.0
C      1  0.5517830000000  0.4748230000000  0.5090580000000 1.0
C      1  0.5140460000000  0.5154640000000  0.5261230000000 1.0
C      1  0.5138680000000  0.5296760000000  0.4928140000000 1.0
C      1  0.5094970000000  0.5024940000000  0.4695290000000 1.0
C      1  0.5092460000000  0.4718150000000  0.4883880000000 1.0
C      1  0.5104490000000  0.4797110000000  0.5231910000000 1.0
C      1  0.4416870000000  0.4904370000000  0.5233110000000 1.0
C      1  0.4358190000000  0.5194220000000  0.5164830000000 1.0
C      1  0.4343030000000  0.5234060000000  0.4866480000000 1.0
C      1  0.4415810000000  0.4969080000000  0.4733160000000 1.0
C      1  0.4409630000000  0.4737680000000  0.4957620000000 1.0
C      1  0.4725700000000  0.4740450000000  0.5600740000000 1.0
C      1  0.4719630000000  0.5464650000000  0.5416710000000 1.0
C      1  0.4713590000000  0.5553260000000  0.4696820000000 1.0
C      1  0.4724200000000  0.4865490000000  0.4355530000000 1.0
C      1  0.4728890000000  0.4352710000000  0.4933870000000 1.0
C      1  0.4442700000000  0.5409330000000  0.5342850000000 1.0
C      1  0.4433360000000  0.5481120000000  0.4739740000000 1.0
C      1  0.4453330000000  0.4880130000000  0.4452200000000 1.0
C      1  0.4458360000000  0.4444980000000  0.4956190000000 1.0
C      1  0.4458300000000  0.4803030000000  0.5511680000000 1.0
C      1  0.4827100000000  0.5241840000000  0.4953570000000 1.0
C      1  0.4744830000000  0.5053690000000  0.4730190000000 1.0
C      1  0.4755910000000  0.4767520000000  0.4874680000000 1.0
C      1  0.4748320000000  0.4824370000000  0.5190160000000 1.0
C      1  0.4829510000000  0.5113680000000  0.5214940000000 1.0
C      1  0.5437340000000  0.5015820000000  0.5568200000000 1.0
C      1  0.5433530000000  0.5542710000000  0.5161450000000 1.0
C      1  0.5426000000000  0.5317950000000  0.4540130000000 1.0
C      1  0.5429210000000  0.4659830000000  0.4557900000000 1.0
C      1  0.5432290000000  0.4470950000000  0.5189870000000 1.0
C      1  0.4920450000000  0.4968360000000  0.5681040000000 1.0
C      1  0.4913240000000  0.5627360000000  0.5235410000000 1.0
C      1  0.4903440000000  0.5416340000000  0.4475490000000 1.0
C      1  0.4914870000000  0.4621870000000  0.4429260000000 1.0
C      1  0.4917900000000  0.4343350000000  0.5184330000000 1.0
C      1  0.5189950000000  0.5499640000000  0.4563470000000 1.0
C      1  0.5197260000000  0.4736350000000  0.4388530000000 1.0
C      1  0.5198560000000  0.4338400000000  0.5062860000000 1.0
C      1  0.5201030000000  0.4852080000000  0.5650480000000 1.0
C      1  0.5196270000000  0.5571000000000  0.5341180000000 1.0
C      1  0.5417270000000  0.4436230000000  0.5479730000000 1.0
C      1  0.5418210000000  0.5283490000000  0.5690100000000 1.0
C      1  0.5419170000000  0.5742480000000  0.4943970000000 1.0
C      1  0.5416120000000  0.5174460000000  0.4285710000000 1.0
C      1  0.5417460000000  0.4374310000000  0.4616310000000 1.0
C      1  0.4886710000000  0.5277040000000  0.5619580000000 1.0
C      1  0.4890570000000  0.5676430000000  0.4927710000000 1.0
C      1  0.4887550000000  0.5134440000000  0.4323690000000 1.0
C      1  0.4887570000000  0.4398190000000  0.4659760000000 1.0
C      1  0.4884920000000  0.4490770000000  0.5469700000000 1.0
END
