TITL C-3985245-9316-727 0.000715971529113238 125000 -327.436826776067 0 0 60 (C2) n - 1
REM
REM in /home/nfs/bkarasulu/CARBON/AIRSS/Generating-Clusters/TERSOFF/Higher-Symm/Only-C60
REM
REM
REM
REM
REM
REM ./C.cell (28575a23ae977d3b5fae324c64b13b57)
REM
REM compiler GCC version 9.2.1 20190827 (Red Hat 9.2.1-1)
REM options -cpp -mtune=generic -march=x86-64 -g -O0 -fpre-include=/usr/include/finclude/math-vector-fortran.h
REM seed 82399067 -33745981 -515414997 155832880 -612784727 -883958168 222396358 320539317 2130245848 -861964061 732879901 -1531436728 1956974793 -1758372592 -1645948512 -1355261042 -1796732780 -1663584960 27279509 1687563588 -1353703883 1564390000 -938279321 53862433 -1553798894 -1163568171 2086648123 514828526 -587308155 1906445851 -1342231272 -2000228465 1629072941
REM
CELL 1.54180   50.00000   50.00000   50.00000   90.00000   90.00000   90.00000
LATT -1
SFAC C  
C      1  0.4544530000000  0.4731300000000  0.4464970000000 1.0
C      1  0.4544530000000  0.5268700000000  0.5535040000000 1.0
C      1  0.5093740000000  0.5188990000000  0.5249640000000 1.0
C      1  0.5093740000000  0.4811010000000  0.4750360000000 1.0
C      1  0.5064000000000  0.5437910000000  0.5439700000000 1.0
C      1  0.5064000000000  0.4562090000000  0.4560300000000 1.0
C      1  0.4522880000000  0.5390760000000  0.4724750000000 1.0
C      1  0.4522920000000  0.4609250000000  0.5275240000000 1.0
C      1  0.5344830000000  0.5054700000000  0.5155960000000 1.0
C      1  0.5344820000000  0.4945300000000  0.4844050000000 1.0
C      1  0.4655500000000  0.4476110000000  0.4960340000000 1.0
C      1  0.4655500000000  0.5523900000000  0.5039660000000 1.0
C      1  0.5804090000000  0.5151420000000  0.4672950000000 1.0
C      1  0.5804090000000  0.4848580000000  0.5327050000000 1.0
C      1  0.5054050000000  0.4524240000000  0.5280200000000 1.0
C      1  0.5054050000000  0.5475760000000  0.4719800000000 1.0
C      1  0.5516650000000  0.4925990000000  0.5447560000000 1.0
C      1  0.5516650000000  0.5074010000000  0.4552440000000 1.0
C      1  0.5135170000000  0.5218740000000  0.5666270000000 1.0
C      1  0.5135170000000  0.4781260000000  0.4333720000000 1.0
C      1  0.5343160000000  0.5515770000000  0.4745470000000 1.0
C      1  0.5343160000000  0.4484230000000  0.5254530000000 1.0
C      1  0.5172290000000  0.4403420000000  0.4813830000000 1.0
C      1  0.5172290000000  0.5596580000000  0.5186170000000 1.0
C      1  0.5631060000000  0.4773940000000  0.4589280000000 1.0
C      1  0.5631060000000  0.5226060000000  0.5410720000000 1.0
C      1  0.4943780000000  0.4383340000000  0.5027200000000 1.0
C      1  0.4943770000000  0.5616630000000  0.4972800000000 1.0
C      1  0.4633330000000  0.4795010000000  0.4911100000000 1.0
C      1  0.4633330000000  0.5204990000000  0.5088900000000 1.0
C      1  0.4878890000000  0.4782700000000  0.5139690000000 1.0
C      1  0.4878910000000  0.5217320000000  0.4860320000000 1.0
C      1  0.4275840000000  0.5201590000000  0.5421900000000 1.0
C      1  0.4275840000000  0.4798410000000  0.4578100000000 1.0
C      1  0.5823140000000  0.5140910000000  0.4956070000000 1.0
C      1  0.5823140000000  0.4859090000000  0.5043930000000 1.0
C      1  0.4733310000000  0.5474130000000  0.5392830000000 1.0
C      1  0.4733310000000  0.4525870000000  0.4607170000000 1.0
C      1  0.4647970000000  0.4975750000000  0.4330320000000 1.0
C      1  0.4647980000000  0.5024250000000  0.5669680000000 1.0
C      1  0.5221270000000  0.4939840000000  0.5592870000000 1.0
C      1  0.5221270000000  0.5060160000000  0.4407130000000 1.0
C      1  0.4156020000000  0.4927470000000  0.5529260000000 1.0
C      1  0.4156020000000  0.5072530000000  0.4470740000000 1.0
C      1  0.5439990000000  0.4479940000000  0.4969200000000 1.0
C      1  0.5439990000000  0.5520060000000  0.5030800000000 1.0
C      1  0.5012640000000  0.4712830000000  0.5531180000000 1.0
C      1  0.5012650000000  0.5287180000000  0.4468780000000 1.0
C      1  0.4344520000000  0.5093340000000  0.5128850000000 1.0
C      1  0.4344510000000  0.4906660000000  0.4871150000000 1.0
C      1  0.5659430000000  0.5333840000000  0.5138250000000 1.0
C      1  0.5659430000000  0.4666160000000  0.4861750000000 1.0
C      1  0.4852550000000  0.4952820000000  0.4757390000000 1.0
C      1  0.4852550000000  0.5047170000000  0.5242640000000 1.0
C      1  0.4286380000000  0.4796930000000  0.5271660000000 1.0
C      1  0.4286380000000  0.5203070000000  0.4728340000000 1.0
C      1  0.4723070000000  0.4768980000000  0.5529260000000 1.0
C      1  0.4723080000000  0.5231020000000  0.4470770000000 1.0
C      1  0.5485880000000  0.4611340000000  0.5461960000000 1.0
C      1  0.5485880000000  0.5388650000000  0.4538040000000 1.0
END
