TITL C-3985254-1270-1271 -1.10342167779124e-07 125000 -297.455585898069 0 0 60 (C4) n - 1
REM
REM in /home/nfs/bkarasulu/CARBON/AIRSS/Generating-Clusters/TERSOFF/Higher-Symm/Only-C60
REM
REM
REM
REM
REM
REM ./C.cell (28575a23ae977d3b5fae324c64b13b57)
REM
REM compiler GCC version 9.2.1 20190827 (Red Hat 9.2.1-1)
REM options -cpp -mtune=generic -march=x86-64 -g -O0 -fpre-include=/usr/include/finclude/math-vector-fortran.h
REM seed 1121580826 -827030493 387839626 -137217513 -531341010 321232918 771399235 414268632 1889743452 -1370664103 -1418115633 -267513916 -1430604916 663088037 -527452155 985909830 47245625 742683547 1838768820 -1805291418 1626112336 -815404477 -1545338520 368472458 -1358647027 -1186092230 1524657023 1331124020 1288019108 70689867 1043208354 245448955 1416507970
REM
CELL 1.54180   50.00000   50.00000   50.00000   90.00000   90.00000   90.00000
LATT -1
SFAC C  
C      1  0.4815960000000  0.4576540000000  0.5165180000000 1.0
C      1  0.4815960000000  0.4834820000000  0.4576540000000 1.0
C      1  0.4815960000000  0.5423460000000  0.4834820000000 1.0
C      1  0.4815960000000  0.5165180000000  0.5423460000000 1.0
C      1  0.4815960000000  0.4576540000000  0.4834820000000 1.0
C      1  0.4815960000000  0.4834820000000  0.5423460000000 1.0
C      1  0.4815960000000  0.5423460000000  0.5165180000000 1.0
C      1  0.4815960000000  0.5165180000000  0.4576540000000 1.0
C      1  0.5557660000000  0.5437640000000  0.5181850000000 1.0
C      1  0.5557660000000  0.4818150000000  0.5437640000000 1.0
C      1  0.5557660000000  0.4562360000000  0.4818150000000 1.0
C      1  0.5557660000000  0.5181850000000  0.4562360000000 1.0
C      1  0.5557660000000  0.5437640000000  0.4818150000000 1.0
C      1  0.5557660000000  0.4818150000000  0.4562360000000 1.0
C      1  0.5557660000000  0.4562360000000  0.5181850000000 1.0
C      1  0.5557660000000  0.5181850000000  0.5437640000000 1.0
C      1  0.4504120000000  0.5245300000000  0.5461780000000 1.0
C      1  0.4504120000000  0.4538220000000  0.5245300000000 1.0
C      1  0.4504120000000  0.4754700000000  0.4538220000000 1.0
C      1  0.4504120000000  0.5461780000000  0.4754700000000 1.0
C      1  0.4504120000000  0.5245300000000  0.4538220000000 1.0
C      1  0.4504120000000  0.4538220000000  0.4754700000000 1.0
C      1  0.4504120000000  0.4754700000000  0.5461780000000 1.0
C      1  0.4504120000000  0.5461780000000  0.5245300000000 1.0
C      1  0.5067540000000  0.5651310000000  0.5256240000000 1.0
C      1  0.5067540000000  0.4743760000000  0.5651310000000 1.0
C      1  0.5067540000000  0.4348690000000  0.4743760000000 1.0
C      1  0.5067540000000  0.5256240000000  0.4348690000000 1.0
C      1  0.5067540000000  0.5651310000000  0.4743760000000 1.0
C      1  0.5067540000000  0.4743760000000  0.4348690000000 1.0
C      1  0.5067540000000  0.4348690000000  0.5256240000000 1.0
C      1  0.5067540000000  0.5256240000000  0.5651310000000 1.0
C      1  0.5229810000000  0.5360910000000  0.4847420000000 1.0
C      1  0.5229810000000  0.5152580000000  0.5360910000000 1.0
C      1  0.5229810000000  0.4639090000000  0.5152580000000 1.0
C      1  0.5229810000000  0.4847420000000  0.4639090000000 1.0
C      1  0.5229810000000  0.5360910000000  0.5152580000000 1.0
C      1  0.5229810000000  0.5152580000000  0.4639090000000 1.0
C      1  0.5229810000000  0.4639090000000  0.4847420000000 1.0
C      1  0.5229810000000  0.4847420000000  0.5360910000000 1.0
C      1  0.5380950000000  0.5154230000000  0.4249080000000 1.0
C      1  0.5380950000000  0.5750920000000  0.5154230000000 1.0
C      1  0.5380950000000  0.4845770000000  0.5750920000000 1.0
C      1  0.5380950000000  0.4249080000000  0.4845770000000 1.0
C      1  0.5380950000000  0.5154230000000  0.5750920000000 1.0
C      1  0.5380950000000  0.5750920000000  0.4845770000000 1.0
C      1  0.5380950000000  0.4845770000000  0.4249080000000 1.0
C      1  0.5380950000000  0.4249080000000  0.5154230000000 1.0
C      1  0.5022740000000  0.5533740000000  0.4266560000000 1.0
C      1  0.5022740000000  0.5733440000000  0.5533740000000 1.0
C      1  0.5022740000000  0.4466260000000  0.5733440000000 1.0
C      1  0.5022740000000  0.4266560000000  0.4466260000000 1.0
C      1  0.5022740000000  0.5533740000000  0.5733440000000 1.0
C      1  0.5022740000000  0.5733440000000  0.4466260000000 1.0
C      1  0.5022740000000  0.4466260000000  0.4266560000000 1.0
C      1  0.5022740000000  0.4266560000000  0.5533740000000 1.0
C      1  0.4343370000000  0.5000000000000  0.5465650000000 1.0
C      1  0.4343370000000  0.4534350000000  0.5000000000000 1.0
C      1  0.4343370000000  0.5000000000000  0.4534350000000 1.0
C      1  0.4343370000000  0.5465650000000  0.5000000000000 1.0
END
