TITL C-3985248-2097-159 -0.000662981379798919 125000 -327.04839004981 0 0 60 (C3i) n - 1
REM
REM in /home/nfs/bkarasulu/CARBON/AIRSS/Generating-Clusters/TERSOFF/Higher-Symm/Only-C60
REM
REM
REM
REM
REM
REM ./C.cell (28575a23ae977d3b5fae324c64b13b57)
REM
REM compiler GCC version 9.2.1 20190827 (Red Hat 9.2.1-1)
REM options -cpp -mtune=generic -march=x86-64 -g -O0 -fpre-include=/usr/include/finclude/math-vector-fortran.h
REM seed 402091813 -305355732 -1311926485 1079089310 1785442231 636494199 -2032812338 -545106479 523181109 2096699964 1920639602 1077759251 -1104644530 -1937757899 -266146998 283808183 1121894780 1264034607 1404357894 -1685008230 -2094380951 175786555 1088343974 -1181204960 -1682367796 1710933379 -1828496544 -1882853489 -2011483926 1431833040 4701202 -456601762 1970754450
REM
CELL 1.54180   50.00000   50.00000   50.00000   90.00000   90.00000   90.00000
LATT -1
SFAC C  
C      1  0.5592580000000  0.4846260000000  0.4590120000000 1.0
C      1  0.4407340000000  0.5277500000000  0.4661870000000 1.0
C      1  0.5592560000000  0.5432180000000  0.5071650000000 1.0
C      1  0.4407420000000  0.5153740000000  0.5409880000000 1.0
C      1  0.5592660000000  0.4722500000000  0.5338130000000 1.0
C      1  0.4407440000000  0.4567820000000  0.4928350000000 1.0
C      1  0.4692300000000  0.5585510000000  0.5250720000000 1.0
C      1  0.5307700000000  0.5076250000000  0.5632560000000 1.0
C      1  0.4692410000000  0.4490550000000  0.5381720000000 1.0
C      1  0.5307700000000  0.4414490000000  0.4749280000000 1.0
C      1  0.4692300000000  0.4923750000000  0.4367440000000 1.0
C      1  0.5307590000000  0.5509450000000  0.4618280000000 1.0
C      1  0.4817820000000  0.4633340000000  0.4325410000000 1.0
C      1  0.5182400000000  0.5400430000000  0.4345620000000 1.0
C      1  0.4817730000000  0.5767100000000  0.5020040000000 1.0
C      1  0.5182180000000  0.5366660000000  0.5674590000000 1.0
C      1  0.4817600000000  0.4599570000000  0.5654390000000 1.0
C      1  0.5182270000000  0.4232900000000  0.4979960000000 1.0
C      1  0.4962280000000  0.5155620000000  0.4299870000000 1.0
C      1  0.5037370000000  0.5683970000000  0.4785130000000 1.0
C      1  0.4962590000000  0.5528470000000  0.5485180000000 1.0
C      1  0.5037720000000  0.4844380000000  0.5700130000000 1.0
C      1  0.4962630000000  0.4316030000000  0.5214870000000 1.0
C      1  0.5037410000000  0.4471530000000  0.4514820000000 1.0
C      1  0.4297630000000  0.5355770000000  0.4927250000000 1.0
C      1  0.5702350000000  0.5241880000000  0.5272430000000 1.0
C      1  0.4297620000000  0.4884780000000  0.5345060000000 1.0
C      1  0.5702370000000  0.4644230000000  0.5072750000000 1.0
C      1  0.4297650000000  0.4758120000000  0.4727570000000 1.0
C      1  0.5702380000000  0.5115220000000  0.4654940000000 1.0
C      1  0.5105550000000  0.4917920000000  0.4437530000000 1.0
C      1  0.4894290000000  0.5445830000000  0.4647880000000 1.0
C      1  0.5105490000000  0.5527610000000  0.5210420000000 1.0
C      1  0.4894450000000  0.5082080000000  0.5562470000000 1.0
C      1  0.5105710000000  0.4554170000000  0.5352120000000 1.0
C      1  0.4894510000000  0.4472390000000  0.4789580000000 1.0
C      1  0.5029130000000  0.5065310000000  0.5289440000000 1.0
C      1  0.4970700000000  0.4782130000000  0.5201200000000 1.0
C      1  0.5029220000000  0.4716960000000  0.4911830000000 1.0
C      1  0.4970870000000  0.4934690000000  0.4710560000000 1.0
C      1  0.5029300000000  0.5217870000000  0.4798800000000 1.0
C      1  0.4970780000000  0.5283040000000  0.5088170000000 1.0
C      1  0.4617880000000  0.4391250000000  0.4831810000000 1.0
C      1  0.5382490000000  0.4841640000000  0.4388560000000 1.0
C      1  0.4617590000000  0.5449760000000  0.4557380000000 1.0
C      1  0.5382120000000  0.5608750000000  0.5168190000000 1.0
C      1  0.4617510000000  0.5158360000000  0.5611440000000 1.0
C      1  0.5382410000000  0.4550240000000  0.5442620000000 1.0
C      1  0.5535600000000  0.4645830000000  0.4819580000000 1.0
C      1  0.4464330000000  0.4978350000000  0.4602700000000 1.0
C      1  0.5535600000000  0.5333340000000  0.4783270000000 1.0
C      1  0.4464400000000  0.5354170000000  0.5180420000000 1.0
C      1  0.5535670000000  0.5021650000000  0.5397300000000 1.0
C      1  0.4464400000000  0.4666660000000  0.5216730000000 1.0
C      1  0.5315440000000  0.5161360000000  0.4880980000000 1.0
C      1  0.4684530000000  0.5183850000000  0.5079830000000 1.0
C      1  0.5315420000000  0.5022870000000  0.5199590000000 1.0
C      1  0.4684560000000  0.4838640000000  0.5119020000000 1.0
C      1  0.5315470000000  0.4816150000000  0.4920170000000 1.0
C      1  0.4684580000000  0.4977130000000  0.4800410000000 1.0
END
