TITL C-3985257-5396-215 5.85472637802357e-07 125000 -330.583090642976 0 0 60 (C5) n - 1
REM
REM in /home/nfs/bkarasulu/CARBON/AIRSS/Generating-Clusters/TERSOFF/Higher-Symm/Only-C60
REM
REM
REM
REM
REM
REM ./C.cell (28575a23ae977d3b5fae324c64b13b57)
REM
REM compiler GCC version 9.2.1 20190827 (Red Hat 9.2.1-1)
REM options -cpp -mtune=generic -march=x86-64 -g -O0 -fpre-include=/usr/include/finclude/math-vector-fortran.h
REM seed -674035575 -1498168697 1021999553 716612806 -1644809472 -179025532 -477307295 1889796243 702088463 -1420544397 281218216 -789690097 86180500 -1232639414 1777974538 -1955970045 151518845 1074819652 1745272219 -1630568911 -878555784 -1108842617 1892172911 1061861838 -1264142211 -270141117 -1938991089 -682818702 -1620596382 -1155580236 2033330500 -729601180 -783296960
REM
CELL 1.54180   50.00000   50.00000   50.00000   90.00000   90.00000   90.00000
LATT -1
SFAC C  
C      1  0.4340630000000  0.4841230000000  0.5248640000000 1.0
C      1  0.4645240000000  0.5578040000000  0.5248640000000 1.0
C      1  0.5440120000000  0.5516020000000  0.5248640000000 1.0
C      1  0.5626770000000  0.4740880000000  0.5248640000000 1.0
C      1  0.4947240000000  0.4323840000000  0.5248640000000 1.0
C      1  0.4565400000000  0.5488430000000  0.4719980000000 1.0
C      1  0.5330230000000  0.5564260000000  0.4719980000000 1.0
C      1  0.5638690000000  0.4860300000000  0.4719980000000 1.0
C      1  0.5064510000000  0.4349400000000  0.4719980000000 1.0
C      1  0.4401180000000  0.4737600000000  0.4719980000000 1.0
C      1  0.4382730000000  0.5123370000000  0.5024360000000 1.0
C      1  0.4926580000000  0.5625180000000  0.5024360000000 1.0
C      1  0.5571890000000  0.5263020000000  0.5024360000000 1.0
C      1  0.5426870000000  0.4537370000000  0.5024360000000 1.0
C      1  0.4691920000000  0.4451070000000  0.5024360000000 1.0
C      1  0.5538250000000  0.5355230000000  0.4730930000000 1.0
C      1  0.5504170000000  0.4597860000000  0.4730940000000 1.0
C      1  0.4773340000000  0.4396240000000  0.4730940000000 1.0
C      1  0.4355750000000  0.5028990000000  0.4730940000000 1.0
C      1  0.4828490000000  0.5621680000000  0.4730940000000 1.0
C      1  0.4824340000000  0.4810280000000  0.4778610000000 1.0
C      1  0.4765290000000  0.5108440000000  0.4778610000000 1.0
C      1  0.5030600000000  0.5256740000000  0.4778610000000 1.0
C      1  0.5253630000000  0.5050230000000  0.4778610000000 1.0
C      1  0.5126150000000  0.4774310000000  0.4778610000000 1.0
C      1  0.4658790000000  0.4639640000000  0.4569760000000 1.0
C      1  0.4551840000000  0.5213150000000  0.4569760000000 1.0
C      1  0.5064230000000  0.5492090000000  0.4569760000000 1.0
C      1  0.5487860000000  0.5090980000000  0.4569760000000 1.0
C      1  0.5237280000000  0.4564130000000  0.4569760000000 1.0
C      1  0.4820520000000  0.4810460000000  0.4358640000000 1.0
C      1  0.4764280000000  0.5112130000000  0.4358640000000 1.0
C      1  0.5033800000000  0.5258840000000  0.4358640000000 1.0
C      1  0.5256610000000  0.5047840000000  0.4358640000000 1.0
C      1  0.5124800000000  0.4770730000000  0.4358640000000 1.0
C      1  0.4774990000000  0.4594490000000  0.5410190000000 1.0
C      1  0.4544810000000  0.5088680000000  0.5410190000000 1.0
C      1  0.4943680000000  0.5460320000000  0.5410190000000 1.0
C      1  0.5420390000000  0.5195810000000  0.5410190000000 1.0
C      1  0.5316130000000  0.4660700000000  0.5410190000000 1.0
C      1  0.5250850000000  0.5640030000000  0.5000130000000 1.0
C      1  0.5686220000000  0.4959210000000  0.5000130000000 1.0
C      1  0.5173260000000  0.4334760000000  0.5000130000000 1.0
C      1  0.4420860000000  0.4629650000000  0.5000130000000 1.0
C      1  0.4468810000000  0.5436350000000  0.5000130000000 1.0
C      1  0.5268730000000  0.5116940000000  0.5118920000000 1.0
C      1  0.5194260000000  0.4780560000000  0.5118920000000 1.0
C      1  0.4851330000000  0.4747440000000  0.5118920000000 1.0
C      1  0.4713860000000  0.5063350000000  0.5118920000000 1.0
C      1  0.4971830000000  0.5291710000000  0.5118920000000 1.0
C      1  0.4748450000000  0.5037650000000  0.5624340000000 1.0
C      1  0.4958080000000  0.5250870000000  0.5624340000000 1.0
C      1  0.5225640000000  0.5117400000000  0.5624340000000 1.0
C      1  0.5181380000000  0.4821680000000  0.5624340000000 1.0
C      1  0.4886460000000  0.4772400000000  0.5624340000000 1.0
C      1  0.5206030000000  0.4386690000000  0.5415500000000 1.0
C      1  0.4480370000000  0.4614530000000  0.5415500000000 1.0
C      1  0.4472820000000  0.5375080000000  0.5415500000000 1.0
C      1  0.5193820000000  0.5617280000000  0.5415500000000 1.0
C      1  0.5646960000000  0.5006420000000  0.5415500000000 1.0
END
