TITL C-3985244-725-623 0.000632313725891196 125000 -343.562547504828 0 0 60 (C2) n - 1
REM
REM in /home/nfs/bkarasulu/CARBON/AIRSS/Generating-Clusters/TERSOFF/Higher-Symm/Only-C60
REM
REM
REM
REM
REM
REM ./C.cell (28575a23ae977d3b5fae324c64b13b57)
REM
REM compiler GCC version 9.2.1 20190827 (Red Hat 9.2.1-1)
REM options -cpp -mtune=generic -march=x86-64 -g -O0 -fpre-include=/usr/include/finclude/math-vector-fortran.h
REM seed 1877996644 1362117076 -760549315 -2033151588 1748402433 -1153268619 1459803348 673545236 -826164956 -1162309879 -1848345568 -151174419 -793120616 -1098220481 1088470673 1984453325 -109758658 1928035699 -17994520 2095164189 1995577917 1372269777 102960156 -1797894349 -1900511718 731047050 -1188062506 -1431834638 630803890 -1023999356 -1415564347 2095916985 -1485617836
REM
CELL 1.54180   50.00000   50.00000   50.00000   90.00000   90.00000   90.00000
LATT -1
SFAC C  
C      1  0.5003460000000  0.4339160000000  0.5368350000000 1.0
C      1  0.5003460000000  0.5660840000000  0.4631650000000 1.0
C      1  0.4792160000000  0.4703560000000  0.5658120000000 1.0
C      1  0.4792160000000  0.5296440000000  0.4341880000000 1.0
C      1  0.5085080000000  0.4558560000000  0.4340580000000 1.0
C      1  0.5085080000000  0.5441440000000  0.5659420000000 1.0
C      1  0.5204450000000  0.5579810000000  0.5422580000000 1.0
C      1  0.5204450000000  0.4420190000000  0.4577420000000 1.0
C      1  0.5129420000000  0.5697280000000  0.4925220000000 1.0
C      1  0.5129420000000  0.4302720000000  0.5074780000000 1.0
C      1  0.4587640000000  0.5570060000000  0.5069860000000 1.0
C      1  0.4587640000000  0.4429940000000  0.4930140000000 1.0
C      1  0.4285490000000  0.4965550000000  0.5294950000000 1.0
C      1  0.4285490000000  0.5034450000000  0.4705050000000 1.0
C      1  0.5262000000000  0.5141520000000  0.4284000000000 1.0
C      1  0.5262000000000  0.4858480000000  0.5716000000000 1.0
C      1  0.4269310000000  0.5248730000000  0.5193910000000 1.0
C      1  0.4269310000000  0.4751270000000  0.4806090000000 1.0
C      1  0.4894910000000  0.4786310000000  0.4362990000000 1.0
C      1  0.4894910000000  0.5213690000000  0.5637010000000 1.0
C      1  0.5109690000000  0.5101210000000  0.5225440000000 1.0
C      1  0.5109690000000  0.4898790000000  0.4774560000000 1.0
C      1  0.4899690000000  0.4693650000000  0.4837170000000 1.0
C      1  0.4899690000000  0.5306350000000  0.5162830000000 1.0
C      1  0.5412110000000  0.4830380000000  0.4660070000000 1.0
C      1  0.5412110000000  0.5169620000000  0.5339930000000 1.0
C      1  0.5025780000000  0.5579910000000  0.5181220000000 1.0
C      1  0.5025780000000  0.4420090000000  0.4818780000000 1.0
C      1  0.5576050000000  0.4421110000000  0.4921600000000 1.0
C      1  0.5576050000000  0.5578890000000  0.5078400000000 1.0
C      1  0.4711540000000  0.5308480000000  0.4853740000000 1.0
C      1  0.4711540000000  0.4691520000000  0.5146260000000 1.0
C      1  0.5464910000000  0.4533890000000  0.4675650000000 1.0
C      1  0.5464910000000  0.5466110000000  0.5324350000000 1.0
C      1  0.5441820000000  0.5056220000000  0.5610390000000 1.0
C      1  0.5441820000000  0.4943780000000  0.4389610000000 1.0
C      1  0.4711600000000  0.5226080000000  0.5398920000000 1.0
C      1  0.4711600000000  0.4773920000000  0.4601080000000 1.0
C      1  0.4353320000000  0.4737980000000  0.5091650000000 1.0
C      1  0.4353320000000  0.5262020000000  0.4908350000000 1.0
C      1  0.4589090000000  0.4953590000000  0.5362850000000 1.0
C      1  0.4589090000000  0.5046410000000  0.4637150000000 1.0
C      1  0.5044050000000  0.4815970000000  0.5211410000000 1.0
C      1  0.5044050000000  0.5184030000000  0.4788590000000 1.0
C      1  0.5342500000000  0.5426160000000  0.4287060000000 1.0
C      1  0.5342500000000  0.4573840000000  0.5712940000000 1.0
C      1  0.4481450000000  0.4567300000000  0.4674590000000 1.0
C      1  0.4481450000000  0.5432700000000  0.5325410000000 1.0
C      1  0.5411280000000  0.4427720000000  0.5177720000000 1.0
C      1  0.5411280000000  0.5572280000000  0.4822280000000 1.0
C      1  0.4796290000000  0.5458490000000  0.4589730000000 1.0
C      1  0.4796290000000  0.4541510000000  0.5410270000000 1.0
C      1  0.5328640000000  0.4719720000000  0.5177280000000 1.0
C      1  0.5328640000000  0.5280280000000  0.4822720000000 1.0
C      1  0.4976550000000  0.4928100000000  0.5714260000000 1.0
C      1  0.4976550000000  0.5071900000000  0.4285740000000 1.0
C      1  0.5518340000000  0.5046870000000  0.4861510000000 1.0
C      1  0.5518340000000  0.4953130000000  0.5138490000000 1.0
C      1  0.5291390000000  0.5612850000000  0.4508970000000 1.0
C      1  0.5291390000000  0.4387150000000  0.5491030000000 1.0
END
