TITL C-3985254-1270-1174 5.65512649887077e-07 125000 -313.089746279308 0 0 60 (D3h) n - 1
REM
REM in /home/nfs/bkarasulu/CARBON/AIRSS/Generating-Clusters/TERSOFF/Higher-Symm/Only-C60
REM
REM
REM
REM
REM
REM ./C.cell (28575a23ae977d3b5fae324c64b13b57)
REM
REM compiler GCC version 9.2.1 20190827 (Red Hat 9.2.1-1)
REM options -cpp -mtune=generic -march=x86-64 -g -O0 -fpre-include=/usr/include/finclude/math-vector-fortran.h
REM seed -279980825 -335890207 16240651 -454563517 1338149286 626264894 -499912158 -1298952089 631893759 1990560687 732202164 -1441524032 -851733711 -1852157427 1536437000 -966326122 -1999724392 -2125567110 1417853537 1517400008 1858079590 1668563774 2109636007 -969309600 1628923732 -749225100 -801252395 1872224894 857533542 1919436957 -223470867 -1825769117 1248559787
REM
CELL 1.54180   50.00000   50.00000   50.00000   90.00000   90.00000   90.00000
LATT -1
SFAC C  
C      1  0.5650070000000  0.4728350000000  0.5159950000000 1.0
C      1  0.5650070000000  0.4997300000000  0.4684770000000 1.0
C      1  0.5650070000000  0.5274350000000  0.5155280000000 1.0
C      1  0.4349930000000  0.4728350000000  0.5159950000000 1.0
C      1  0.4349930000000  0.4997300000000  0.4684770000000 1.0
C      1  0.4349930000000  0.5274350000000  0.5155280000000 1.0
C      1  0.5650070000000  0.4728350000000  0.4840050000000 1.0
C      1  0.5650070000000  0.4997300000000  0.5315230000000 1.0
C      1  0.5650070000000  0.5274350000000  0.4844720000000 1.0
C      1  0.4349930000000  0.4728350000000  0.4840050000000 1.0
C      1  0.4349930000000  0.4997300000000  0.5315230000000 1.0
C      1  0.4349930000000  0.5274350000000  0.4844720000000 1.0
C      1  0.5182920000000  0.4454120000000  0.4676040000000 1.0
C      1  0.5182920000000  0.5553490000000  0.4689230000000 1.0
C      1  0.5182920000000  0.4992380000000  0.5634720000000 1.0
C      1  0.4817080000000  0.4454120000000  0.4676040000000 1.0
C      1  0.4817080000000  0.5553490000000  0.4689230000000 1.0
C      1  0.4817080000000  0.4992380000000  0.5634720000000 1.0
C      1  0.5182920000000  0.4454120000000  0.5323960000000 1.0
C      1  0.5182920000000  0.5553490000000  0.5310770000000 1.0
C      1  0.5182920000000  0.4992380000000  0.4365280000000 1.0
C      1  0.4817080000000  0.4454120000000  0.5323960000000 1.0
C      1  0.4817080000000  0.5553490000000  0.5310770000000 1.0
C      1  0.4817080000000  0.4992380000000  0.4365280000000 1.0
C      1  0.5463630000000  0.5418050000000  0.4602310000000 1.0
C      1  0.5463630000000  0.5135380000000  0.5560880000000 1.0
C      1  0.5463630000000  0.4446570000000  0.4836800000000 1.0
C      1  0.4536370000000  0.5418050000000  0.4602310000000 1.0
C      1  0.4536370000000  0.5135380000000  0.5560880000000 1.0
C      1  0.4536370000000  0.4446570000000  0.4836800000000 1.0
C      1  0.5463630000000  0.5418050000000  0.5397690000000 1.0
C      1  0.5463630000000  0.5135380000000  0.4439120000000 1.0
C      1  0.5463630000000  0.4446570000000  0.5163200000000 1.0
C      1  0.4536370000000  0.5418050000000  0.5397690000000 1.0
C      1  0.4536370000000  0.5135380000000  0.4439120000000 1.0
C      1  0.4536370000000  0.4446570000000  0.5163200000000 1.0
C      1  0.5251670000000  0.5792390000000  0.4855960000000 1.0
C      1  0.5251670000000  0.4728550000000  0.5758250000000 1.0
C      1  0.5251670000000  0.4479060000000  0.4385790000000 1.0
C      1  0.4748330000000  0.5792390000000  0.4855960000000 1.0
C      1  0.4748330000000  0.4728550000000  0.5758250000000 1.0
C      1  0.4748330000000  0.4479060000000  0.4385790000000 1.0
C      1  0.5251670000000  0.5792390000000  0.5144040000000 1.0
C      1  0.5251670000000  0.4728550000000  0.4241750000000 1.0
C      1  0.5251670000000  0.4479060000000  0.5614210000000 1.0
C      1  0.4748330000000  0.5792390000000  0.5144040000000 1.0
C      1  0.4748330000000  0.4728550000000  0.4241750000000 1.0
C      1  0.4748330000000  0.4479060000000  0.5614210000000 1.0
C      1  0.4842280000000  0.4733140000000  0.4843620000000 1.0
C      1  0.4842280000000  0.5268850000000  0.4847080000000 1.0
C      1  0.4842280000000  0.4998000000000  0.5309290000000 1.0
C      1  0.5157720000000  0.4733140000000  0.4843620000000 1.0
C      1  0.5157720000000  0.5268850000000  0.4847080000000 1.0
C      1  0.5157720000000  0.4998000000000  0.5309290000000 1.0
C      1  0.4842280000000  0.4733140000000  0.5156380000000 1.0
C      1  0.4842280000000  0.5268850000000  0.5152920000000 1.0
C      1  0.4842280000000  0.4998000000000  0.4690710000000 1.0
C      1  0.5157720000000  0.4733140000000  0.5156380000000 1.0
C      1  0.5157720000000  0.5268850000000  0.5152920000000 1.0
C      1  0.5157720000000  0.4998000000000  0.4690710000000 1.0
END
