TITL C-3985245-9316-48 -2.74658523348226e-06 125000 -328.612536768849 0 0 60 (C2h) n - 1
REM
REM in /home/nfs/bkarasulu/CARBON/AIRSS/Generating-Clusters/TERSOFF/Higher-Symm/Only-C60
REM
REM
REM
REM
REM
REM ./C.cell (28575a23ae977d3b5fae324c64b13b57)
REM
REM compiler GCC version 9.2.1 20190827 (Red Hat 9.2.1-1)
REM options -cpp -mtune=generic -march=x86-64 -g -O0 -fpre-include=/usr/include/finclude/math-vector-fortran.h
REM seed -1511457704 -702447172 -847145666 -1601658723 -1016543089 -1367389732 1630119389 869465681 -1594736000 -969919608 -60097337 179597518 -898841038 1590787555 905019408 -934235641 1766936095 12698170 -1208966945 -704347659 678726273 -1264758633 -2108918815 -1923327896 1137684011 1303144937 -777646032 1367152857 -1350422773 383715274 -1477676032 -337371205 -1215613024
REM
CELL 1.54180   50.00000   50.00000   50.00000   90.00000   90.00000   90.00000
LATT -1
SFAC C  
C      1  0.5076670000000  0.4876600000000  0.4218200000000 1.0
C      1  0.4923330000000  0.5123400000000  0.4218200000000 1.0
C      1  0.5076670000000  0.4876600000000  0.5781800000000 1.0
C      1  0.4923330000000  0.5123400000000  0.5781800000000 1.0
C      1  0.4675410000000  0.4413020000000  0.5151080000000 1.0
C      1  0.5324590000000  0.5586980000000  0.5151080000000 1.0
C      1  0.4675410000000  0.4413020000000  0.4848920000000 1.0
C      1  0.5324590000000  0.5586980000000  0.4848920000000 1.0
C      1  0.5271490000000  0.4966320000000  0.5583910000000 1.0
C      1  0.4728510000000  0.5033680000000  0.5583910000000 1.0
C      1  0.5271490000000  0.4966320000000  0.4416090000000 1.0
C      1  0.4728510000000  0.5033680000000  0.4416090000000 1.0
C      1  0.4935670000000  0.4630530000000  0.5696250000000 1.0
C      1  0.5064330000000  0.5369470000000  0.5696250000000 1.0
C      1  0.4935670000000  0.4630530000000  0.4303750000000 1.0
C      1  0.5064330000000  0.5369470000000  0.4303750000000 1.0
C      1  0.4925680000000  0.4749940000000  0.5148490000000 1.0
C      1  0.5074320000000  0.5250060000000  0.5148490000000 1.0
C      1  0.4925680000000  0.4749940000000  0.4851510000000 1.0
C      1  0.5074320000000  0.5250060000000  0.4851510000000 1.0
C      1  0.5208610000000  0.5022390000000  0.5296480000000 1.0
C      1  0.4791390000000  0.4977610000000  0.5296480000000 1.0
C      1  0.5208610000000  0.5022390000000  0.4703520000000 1.0
C      1  0.4791390000000  0.4977610000000  0.4703520000000 1.0
C      1  0.5618590000000  0.5133520000000  0.4835990000000 1.0
C      1  0.4381410000000  0.4866480000000  0.4835990000000 1.0
C      1  0.5618590000000  0.5133520000000  0.5164010000000 1.0
C      1  0.4381410000000  0.4866480000000  0.5164010000000 1.0
C      1  0.5339090000000  0.4821850000000  0.5138930000000 1.0
C      1  0.4660910000000  0.5178150000000  0.5138930000000 1.0
C      1  0.5339090000000  0.4821850000000  0.4861070000000 1.0
C      1  0.4660910000000  0.5178150000000  0.4861070000000 1.0
C      1  0.4972740000000  0.4454870000000  0.4740180000000 1.0
C      1  0.5027260000000  0.5545130000000  0.4740180000000 1.0
C      1  0.4972740000000  0.4454870000000  0.5259820000000 1.0
C      1  0.5027260000000  0.5545130000000  0.5259820000000 1.0
C      1  0.4556420000000  0.5496870000000  0.5390580000000 1.0
C      1  0.5443580000000  0.4503130000000  0.5390580000000 1.0
C      1  0.4556420000000  0.5496870000000  0.4609420000000 1.0
C      1  0.5443580000000  0.4503130000000  0.4609420000000 1.0
C      1  0.4886570000000  0.5539890000000  0.5533360000000 1.0
C      1  0.5113430000000  0.4460110000000  0.5533360000000 1.0
C      1  0.4886570000000  0.5539890000000  0.4466640000000 1.0
C      1  0.5113430000000  0.4460110000000  0.4466640000000 1.0
C      1  0.4628960000000  0.4626730000000  0.5611600000000 1.0
C      1  0.5371040000000  0.5373270000000  0.5611600000000 1.0
C      1  0.4628960000000  0.4626730000000  0.4388400000000 1.0
C      1  0.5371040000000  0.5373270000000  0.4388400000000 1.0
C      1  0.5251910000000  0.4367640000000  0.4851990000000 1.0
C      1  0.4748090000000  0.5632360000000  0.4851990000000 1.0
C      1  0.5251910000000  0.4367640000000  0.5148010000000 1.0
C      1  0.4748090000000  0.5632360000000  0.5148010000000 1.0
C      1  0.5606550000000  0.4797260000000  0.4702380000000 1.0
C      1  0.4393450000000  0.5202740000000  0.4702380000000 1.0
C      1  0.5606550000000  0.4797260000000  0.5297620000000 1.0
C      1  0.4393450000000  0.5202740000000  0.5297620000000 1.0
C      1  0.4524230000000  0.4621570000000  0.4685100000000 1.0
C      1  0.5475770000000  0.5378430000000  0.4685100000000 1.0
C      1  0.4524230000000  0.4621570000000  0.5314900000000 1.0
C      1  0.5475770000000  0.5378430000000  0.5314900000000 1.0
END
