TITL C-3985255-5397-26 -0.00214045705134395 125000 -283.22355061873 0 0 60 (C4h) n - 1
REM
REM in /home/nfs/bkarasulu/CARBON/AIRSS/Generating-Clusters/TERSOFF/Higher-Symm/Only-C60
REM
REM
REM
REM
REM
REM ./C.cell (28575a23ae977d3b5fae324c64b13b57)
REM
REM compiler GCC version 9.2.1 20190827 (Red Hat 9.2.1-1)
REM options -cpp -mtune=generic -march=x86-64 -g -O0 -fpre-include=/usr/include/finclude/math-vector-fortran.h
REM seed -1721804069 627676642 531037817 1856272205 -1476582514 1483834444 552149934 209874119 286302994 419199362 -1272145862 1497035363 -1407587724 -1565448305 1030897386 -267921321 708810082 529832262 971180603 1575012834 -1475241869 1331072681 1851123540 894254967 -353442558 1371573283 -616779722 -1770595693 -1659797097 -121494556 2014444294 -1712672567 1602600115
REM
CELL 1.54180   50.00000   50.00000   50.00000   90.00000   90.00000   90.00000
LATT -1
SFAC C  
C      1  0.5721460000000  0.4755460000000  0.4529390000000 1.0
C      1  0.4755410000000  0.4278590000000  0.4529280000000 1.0
C      1  0.4278580000000  0.5244580000000  0.4529300000000 1.0
C      1  0.5244900000000  0.5721750000000  0.4529050000000 1.0
C      1  0.5722240000000  0.4755980000000  0.5461330000000 1.0
C      1  0.4755970000000  0.4277750000000  0.5461350000000 1.0
C      1  0.4277760000000  0.5244020000000  0.5461330000000 1.0
C      1  0.5243850000000  0.5722130000000  0.5461150000000 1.0
C      1  0.4553590000000  0.4687060000000  0.4836490000000 1.0
C      1  0.4687060000000  0.5446430000000  0.4836460000000 1.0
C      1  0.5446390000000  0.5312950000000  0.4836470000000 1.0
C      1  0.5312940000000  0.4553600000000  0.4836490000000 1.0
C      1  0.4552920000000  0.4685410000000  0.5152760000000 1.0
C      1  0.4685410000000  0.5447090000000  0.5152780000000 1.0
C      1  0.5447100000000  0.5314580000000  0.5152770000000 1.0
C      1  0.5314580000000  0.4552900000000  0.5152760000000 1.0
C      1  0.5234020000000  0.5406100000000  0.4661860000000 1.0
C      1  0.5406130000000  0.4765990000000  0.4661860000000 1.0
C      1  0.4766000000000  0.4593870000000  0.4661860000000 1.0
C      1  0.4593880000000  0.5233990000000  0.4661870000000 1.0
C      1  0.5234270000000  0.5406950000000  0.5327780000000 1.0
C      1  0.5406950000000  0.4765730000000  0.5327780000000 1.0
C      1  0.4765730000000  0.4593050000000  0.5327780000000 1.0
C      1  0.4593060000000  0.5234290000000  0.5327780000000 1.0
C      1  0.4177150000000  0.5074730000000  0.4831660000000 1.0
C      1  0.5074800000000  0.5822820000000  0.4831540000000 1.0
C      1  0.5822810000000  0.4925220000000  0.4831560000000 1.0
C      1  0.4925280000000  0.4177150000000  0.4831680000000 1.0
C      1  0.4176050000000  0.5073890000000  0.5159950000000 1.0
C      1  0.5073910000000  0.5823940000000  0.5160000000000 1.0
C      1  0.5823950000000  0.4926110000000  0.5159960000000 1.0
C      1  0.4926100000000  0.4176040000000  0.5159950000000 1.0
C      1  0.5102430000000  0.5221010000000  0.4399380000000 1.0
C      1  0.5221010000000  0.4897570000000  0.4399380000000 1.0
C      1  0.4897570000000  0.4778990000000  0.4399380000000 1.0
C      1  0.4778990000000  0.5102430000000  0.4399380000000 1.0
C      1  0.5102470000000  0.5221100000000  0.5590190000000 1.0
C      1  0.5221100000000  0.4897530000000  0.5590190000000 1.0
C      1  0.4897530000000  0.4778900000000  0.5590190000000 1.0
C      1  0.4778900000000  0.5102470000000  0.5590190000000 1.0
C      1  0.4475250000000  0.4975680000000  0.5205890000000 1.0
C      1  0.4975820000000  0.5524860000000  0.5206050000000 1.0
C      1  0.5524740000000  0.5024320000000  0.5205860000000 1.0
C      1  0.5024330000000  0.4475270000000  0.5205870000000 1.0
C      1  0.4476950000000  0.4978350000000  0.4786250000000 1.0
C      1  0.4977930000000  0.5522770000000  0.4786630000000 1.0
C      1  0.5523060000000  0.5021670000000  0.4786310000000 1.0
C      1  0.5021660000000  0.4476950000000  0.4786270000000 1.0
C      1  0.4470410000000  0.5145250000000  0.4271580000000 1.0
C      1  0.5145250000000  0.5529580000000  0.4271580000000 1.0
C      1  0.5529590000000  0.4854750000000  0.4271570000000 1.0
C      1  0.4854760000000  0.4470410000000  0.4271570000000 1.0
C      1  0.4470820000000  0.5145290000000  0.5718420000000 1.0
C      1  0.5145290000000  0.5529180000000  0.5718430000000 1.0
C      1  0.5529190000000  0.4854710000000  0.5718430000000 1.0
C      1  0.4854710000000  0.4470820000000  0.5718420000000 1.0
C      1  0.5016250000000  0.5241350000000  0.4996810000000 1.0
C      1  0.5241360000000  0.4983780000000  0.4996810000000 1.0
C      1  0.4983780000000  0.4758630000000  0.4996810000000 1.0
C      1  0.4758620000000  0.5016210000000  0.4996800000000 1.0
END
