TITL C-3985254-1270-458 -0.00142850642745452 125000 -346.525285684509 0 0 60 (D3h) n - 1
REM
REM in /home/nfs/bkarasulu/CARBON/AIRSS/Generating-Clusters/TERSOFF/Higher-Symm/Only-C60
REM
REM
REM
REM
REM
REM ./C.cell (28575a23ae977d3b5fae324c64b13b57)
REM
REM compiler GCC version 9.2.1 20190827 (Red Hat 9.2.1-1)
REM options -cpp -mtune=generic -march=x86-64 -g -O0 -fpre-include=/usr/include/finclude/math-vector-fortran.h
REM seed -1868666262 1708438288 -393428510 -1729763846 -178763236 -1368919098 -343202783 1425480594 -1070233539 1115728195 995895390 -1189845387 1328226296 -83225602 859187440 1850783569 124919294 689431968 -1000304151 -1430246906 1820940264 -774472435 -801885469 -1244455967 -1569587047 -610358360 1584478653 1987775070 619011721 1126908006 -30980071 -955157816 -1068491763
REM
CELL 1.54180   50.00000   50.00000   50.00000   90.00000   90.00000   90.00000
LATT -1
SFAC C  
C      1  0.5252670000000  0.4790110000000  0.5143990000000 1.0
C      1  0.4748980000000  0.4790070000000  0.5146880000000 1.0
C      1  0.4998410000000  0.4789980000000  0.4709280000000 1.0
C      1  0.5252670000000  0.5209890000000  0.5143990000000 1.0
C      1  0.4748980000000  0.5209930000000  0.5146880000000 1.0
C      1  0.4998410000000  0.5210020000000  0.4709280000000 1.0
C      1  0.5252670000000  0.4790110000000  0.4856010000000 1.0
C      1  0.4748980000000  0.4790070000000  0.4853120000000 1.0
C      1  0.4998410000000  0.4789980000000  0.5290720000000 1.0
C      1  0.5252670000000  0.5209890000000  0.4856010000000 1.0
C      1  0.4748980000000  0.5209930000000  0.4853120000000 1.0
C      1  0.4998410000000  0.5210020000000  0.5290720000000 1.0
C      1  0.5402490000000  0.4387330000000  0.4638850000000 1.0
C      1  0.5111950000000  0.4387210000000  0.5528860000000 1.0
C      1  0.4485870000000  0.4387280000000  0.4832260000000 1.0
C      1  0.5402490000000  0.5612670000000  0.4638850000000 1.0
C      1  0.5111950000000  0.5612790000000  0.5528860000000 1.0
C      1  0.4485870000000  0.5612720000000  0.4832260000000 1.0
C      1  0.5402490000000  0.4387330000000  0.5361150000000 1.0
C      1  0.5111950000000  0.4387210000000  0.4471140000000 1.0
C      1  0.4485870000000  0.4387280000000  0.5167740000000 1.0
C      1  0.5402490000000  0.5612670000000  0.5361150000000 1.0
C      1  0.5111950000000  0.5612790000000  0.4471140000000 1.0
C      1  0.4485870000000  0.5612720000000  0.5167740000000 1.0
C      1  0.4262710000000  0.4839270000000  0.5162100000000 1.0
C      1  0.5228230000000  0.4839230000000  0.4280450000000 1.0
C      1  0.5509010000000  0.4839290000000  0.5557500000000 1.0
C      1  0.4262710000000  0.5160730000000  0.5162100000000 1.0
C      1  0.5228230000000  0.5160770000000  0.4280450000000 1.0
C      1  0.5509010000000  0.5160710000000  0.5557500000000 1.0
C      1  0.4262710000000  0.4839270000000  0.4837900000000 1.0
C      1  0.5228230000000  0.4839230000000  0.5719550000000 1.0
C      1  0.5509010000000  0.4839290000000  0.4442500000000 1.0
C      1  0.4262710000000  0.5160730000000  0.4837900000000 1.0
C      1  0.5228230000000  0.5160770000000  0.5719550000000 1.0
C      1  0.5509010000000  0.5160710000000  0.4442500000000 1.0
C      1  0.4995100000000  0.4184200000000  0.4694410000000 1.0
C      1  0.5266900000000  0.4184470000000  0.5148650000000 1.0
C      1  0.4737640000000  0.4184330000000  0.5156920000000 1.0
C      1  0.4995100000000  0.5815800000000  0.4694410000000 1.0
C      1  0.5266900000000  0.5815530000000  0.5148650000000 1.0
C      1  0.4737640000000  0.5815670000000  0.5156920000000 1.0
C      1  0.4995100000000  0.4184200000000  0.5305590000000 1.0
C      1  0.5266900000000  0.4184470000000  0.4851350000000 1.0
C      1  0.4737640000000  0.4184330000000  0.4843080000000 1.0
C      1  0.4995100000000  0.5815800000000  0.5305590000000 1.0
C      1  0.5266900000000  0.5815530000000  0.4851350000000 1.0
C      1  0.4737640000000  0.5815670000000  0.4843080000000 1.0
C      1  0.5027910000000  0.5324790000000  0.5563120000000 1.0
C      1  0.4498330000000  0.5324650000000  0.4742530000000 1.0
C      1  0.5473810000000  0.5324520000000  0.4694300000000 1.0
C      1  0.5027910000000  0.4675210000000  0.5563120000000 1.0
C      1  0.4498330000000  0.4675350000000  0.4742530000000 1.0
C      1  0.5473810000000  0.4675480000000  0.4694300000000 1.0
C      1  0.5027910000000  0.5324790000000  0.4436880000000 1.0
C      1  0.4498330000000  0.5324650000000  0.5257470000000 1.0
C      1  0.5473810000000  0.5324520000000  0.5305700000000 1.0
C      1  0.5027910000000  0.4675210000000  0.4436880000000 1.0
C      1  0.4498330000000  0.4675350000000  0.5257470000000 1.0
C      1  0.5473810000000  0.4675480000000  0.5305700000000 1.0
END
