TITL C-3985245-9316-892 -0.00578881371469844 125000 -343.427540276881 0 0 60 (C2) n - 1
REM
REM in /home/nfs/bkarasulu/CARBON/AIRSS/Generating-Clusters/TERSOFF/Higher-Symm/Only-C60
REM
REM
REM
REM
REM
REM ./C.cell (28575a23ae977d3b5fae324c64b13b57)
REM
REM compiler GCC version 9.2.1 20190827 (Red Hat 9.2.1-1)
REM options -cpp -mtune=generic -march=x86-64 -g -O0 -fpre-include=/usr/include/finclude/math-vector-fortran.h
REM seed 814173919 962169359 477998840 16962471 975088097 -1903539750 -2041054950 886608300 1467444228 -376558088 569658624 -35890297 749968338 -1790456280 -476329167 1635291647 -27475839 -343445635 -1764377559 2138538424 -203798702 -1906304287 -1717386134 -391926760 1116844478 224701694 -1237172093 -2026313904 -347178725 -979660691 1982828398 1816338195 1971464433
REM
CELL 1.54180   50.00000   50.00000   50.00000   90.00000   90.00000   90.00000
LATT -1
SFAC C  
C      1  0.5681710000000  0.5098330000000  0.5226810000000 1.0
C      1  0.5204340000000  0.4884510000000  0.4345220000000 1.0
C      1  0.4316790000000  0.5098730000000  0.4772130000000 1.0
C      1  0.4793860000000  0.4884250000000  0.5656720000000 1.0
C      1  0.4732980000000  0.4301080000000  0.4894970000000 1.0
C      1  0.5030980000000  0.5652260000000  0.5143420000000 1.0
C      1  0.5266160000000  0.4300370000000  0.5106700000000 1.0
C      1  0.4968640000000  0.5652330000000  0.4856660000000 1.0
C      1  0.4243750000000  0.4776040000000  0.5131660000000 1.0
C      1  0.5119350000000  0.5240690000000  0.5763800000000 1.0
C      1  0.5757250000000  0.4775780000000  0.4868260000000 1.0
C      1  0.4879120000000  0.5241570000000  0.4236350000000 1.0
C      1  0.4923280000000  0.4603000000000  0.5603320000000 1.0
C      1  0.5661260000000  0.5387270000000  0.5111520000000 1.0
C      1  0.5077020000000  0.4602800000000  0.4396560000000 1.0
C      1  0.4339160000000  0.5387810000000  0.4886640000000 1.0
C      1  0.4417580000000  0.4974300000000  0.5004540000000 1.0
C      1  0.5007390000000  0.5046520000000  0.5568840000000 1.0
C      1  0.5583400000000  0.4974030000000  0.4995450000000 1.0
C      1  0.4992090000000  0.5047060000000  0.4430640000000 1.0
C      1  0.5449340000000  0.5494730000000  0.5269220000000 1.0
C      1  0.5202780000000  0.4511540000000  0.4646520000000 1.0
C      1  0.4551800000000  0.5494390000000  0.4730190000000 1.0
C      1  0.4796860000000  0.4510240000000  0.5353980000000 1.0
C      1  0.5233790000000  0.4966810000000  0.4932050000000 1.0
C      1  0.4929890000000  0.5076220000000  0.4765660000000 1.0
C      1  0.4765630000000  0.4966750000000  0.5067760000000 1.0
C      1  0.5069710000000  0.5076090000000  0.5234530000000 1.0
C      1  0.5359840000000  0.4723750000000  0.4742080000000 1.0
C      1  0.4699190000000  0.5286840000000  0.4611950000000 1.0
C      1  0.4640280000000  0.4723310000000  0.5257720000000 1.0
C      1  0.5303500000000  0.5284360000000  0.5389850000000 1.0
C      1  0.4360880000000  0.5417300000000  0.5184460000000 1.0
C      1  0.5216490000000  0.4578340000000  0.5637330000000 1.0
C      1  0.5639330000000  0.5417350000000  0.4816130000000 1.0
C      1  0.4783120000000  0.4578470000000  0.4362930000000 1.0
C      1  0.4698260000000  0.5723310000000  0.4794810000000 1.0
C      1  0.4850140000000  0.4297200000000  0.5164380000000 1.0
C      1  0.5301220000000  0.5723770000000  0.5205010000000 1.0
C      1  0.5151610000000  0.4296390000000  0.4833990000000 1.0
C      1  0.4587000000000  0.5173740000000  0.4335950000000 1.0
C      1  0.4373020000000  0.4793530000000  0.5406270000000 1.0
C      1  0.5413730000000  0.5175080000000  0.5663110000000 1.0
C      1  0.5627260000000  0.4794220000000  0.4595030000000 1.0
C      1  0.5454670000000  0.5033030000000  0.4474790000000 1.0
C      1  0.4446130000000  0.4955990000000  0.4524540000000 1.0
C      1  0.4545430000000  0.5032910000000  0.5524500000000 1.0
C      1  0.5552300000000  0.4957350000000  0.5474890000000 1.0
C      1  0.5715640000000  0.4536460000000  0.5033280000000 1.0
C      1  0.5015900000000  0.5486080000000  0.4343960000000 1.0
C      1  0.4284670000000  0.4536570000000  0.4967060000000 1.0
C      1  0.4984210000000  0.5485980000000  0.5655420000000 1.0
C      1  0.4525820000000  0.4496930000000  0.4802190000000 1.0
C      1  0.4854660000000  0.5495060000000  0.5384480000000 1.0
C      1  0.5474080000000  0.4497890000000  0.5197370000000 1.0
C      1  0.5144950000000  0.5494440000000  0.4615410000000 1.0
C      1  0.4588640000000  0.5314580000000  0.5351310000000 1.0
C      1  0.5420000000000  0.4674960000000  0.5440820000000 1.0
C      1  0.5411630000000  0.5314430000000  0.4649750000000 1.0
C      1  0.4580490000000  0.4674900000000  0.4559130000000 1.0
END
