TITL C-3985258-5380-49 -3.06766125864924e-05 125000 -333.674349047203 0 0 60 (C1) n - 1
REM
REM in /home/nfs/bkarasulu/CARBON/AIRSS/Generating-Clusters/TERSOFF/Higher-Symm/Only-C60
REM
REM
REM
REM
REM
REM ./C.cell (28575a23ae977d3b5fae324c64b13b57)
REM
REM compiler GCC version 9.2.1 20190827 (Red Hat 9.2.1-1)
REM options -cpp -mtune=generic -march=x86-64 -g -O0 -fpre-include=/usr/include/finclude/math-vector-fortran.h
REM seed 267265577 -1666633613 -1771175642 1041696334 1925137556 1572682639 -2086430436 1977578286 -555721002 1730526999 1222855505 -1827173781 1633722010 375551744 -359957705 1220775402 1345279316 683645343 1503332371 -1460864703 -2104291544 -1089267531 -1589706849 1179322680 -1675231847 1254773928 2075445548 -265671761 -877752564 361735959 -1487131663 -1420306088 231651196
REM
CELL 1.54180   50.00000   50.00000   50.00000   90.00000   90.00000   90.00000
LATT -1
SFAC C  
C      1  0.4908360000000  0.4513010000000  0.4915090000000 1.0
C      1  0.5637830000000  0.4545360000000  0.4668760000000 1.0
C      1  0.4460260000000  0.4945410000000  0.5161260000000 1.0
C      1  0.4694950000000  0.4928300000000  0.4740820000000 1.0
C      1  0.4555320000000  0.5574130000000  0.5078420000000 1.0
C      1  0.5293690000000  0.5443140000000  0.5175510000000 1.0
C      1  0.5696840000000  0.5224670000000  0.4953710000000 1.0
C      1  0.5169210000000  0.5066160000000  0.5610020000000 1.0
C      1  0.4294500000000  0.5080370000000  0.5361990000000 1.0
C      1  0.4604180000000  0.5466370000000  0.4604490000000 1.0
C      1  0.4868140000000  0.5258970000000  0.5011360000000 1.0
C      1  0.4586640000000  0.4502420000000  0.5387050000000 1.0
C      1  0.5244070000000  0.5040500000000  0.4809420000000 1.0
C      1  0.5732630000000  0.4682290000000  0.4955390000000 1.0
C      1  0.4473790000000  0.4635260000000  0.5141970000000 1.0
C      1  0.4863240000000  0.4712390000000  0.4371470000000 1.0
C      1  0.4603980000000  0.4520770000000  0.4888570000000 1.0
C      1  0.4805730000000  0.4998050000000  0.5171190000000 1.0
C      1  0.5251030000000  0.4786050000000  0.5725480000000 1.0
C      1  0.5378380000000  0.5547110000000  0.4735850000000 1.0
C      1  0.5415350000000  0.5324320000000  0.4927530000000 1.0
C      1  0.4713770000000  0.4693000000000  0.5583600000000 1.0
C      1  0.4839310000000  0.5676430000000  0.4977320000000 1.0
C      1  0.5010820000000  0.4997130000000  0.4274750000000 1.0
C      1  0.4846790000000  0.5458100000000  0.5450870000000 1.0
C      1  0.5793070000000  0.4977040000000  0.4833650000000 1.0
C      1  0.5201170000000  0.4685910000000  0.4494240000000 1.0
C      1  0.4604570000000  0.5258700000000  0.4380390000000 1.0
C      1  0.5316220000000  0.4441020000000  0.4999950000000 1.0
C      1  0.4870560000000  0.5619780000000  0.4673590000000 1.0
C      1  0.5318990000000  0.4913820000000  0.5099800000000 1.0
C      1  0.5364710000000  0.4939720000000  0.4539350000000 1.0
C      1  0.4496110000000  0.5084170000000  0.4892430000000 1.0
C      1  0.5441770000000  0.5445580000000  0.5420150000000 1.0
C      1  0.4868830000000  0.5201390000000  0.5648160000000 1.0
C      1  0.4887820000000  0.5193070000000  0.4459120000000 1.0
C      1  0.4473380000000  0.5379100000000  0.4857320000000 1.0
C      1  0.5450290000000  0.4624860000000  0.5469850000000 1.0
C      1  0.4730590000000  0.4970490000000  0.5481720000000 1.0
C      1  0.4779390000000  0.4292010000000  0.5308130000000 1.0
C      1  0.4595010000000  0.4942780000000  0.4292130000000 1.0
C      1  0.5487420000000  0.4661450000000  0.5129110000000 1.0
C      1  0.5385690000000  0.5261650000000  0.5627680000000 1.0
C      1  0.5155690000000  0.5564390000000  0.4553300000000 1.0
C      1  0.4953430000000  0.4841390000000  0.4906310000000 1.0
C      1  0.5649630000000  0.4852100000000  0.4580460000000 1.0
C      1  0.5037370000000  0.4388570000000  0.5168580000000 1.0
C      1  0.5033240000000  0.4361010000000  0.4700130000000 1.0
C      1  0.5122640000000  0.4589270000000  0.5379120000000 1.0
C      1  0.4387540000000  0.5308110000000  0.5519790000000 1.0
C      1  0.4566800000000  0.5243060000000  0.5755680000000 1.0
C      1  0.4998930000000  0.5479200000000  0.5182180000000 1.0
C      1  0.5330130000000  0.4426590000000  0.4656060000000 1.0
C      1  0.5211360000000  0.5412880000000  0.4306130000000 1.0
C      1  0.4560400000000  0.5507910000000  0.5373020000000 1.0
C      1  0.4599700000000  0.4668830000000  0.4609710000000 1.0
C      1  0.4996810000000  0.5223480000000  0.4739620000000 1.0
C      1  0.5286970000000  0.5115890000000  0.4297440000000 1.0
C      1  0.5108490000000  0.4911840000000  0.5309760000000 1.0
C      1  0.4986460000000  0.4593180000000  0.5674060000000 1.0
END
