TITL C-3985251-913-165 -8.12586730826082e-07 125000 -317.677686161775 0 0 60 (C1) n - 1
REM
REM in /home/nfs/bkarasulu/CARBON/AIRSS/Generating-Clusters/TERSOFF/Higher-Symm/Only-C60
REM
REM
REM
REM
REM
REM ./C.cell (28575a23ae977d3b5fae324c64b13b57)
REM
REM compiler GCC version 9.2.1 20190827 (Red Hat 9.2.1-1)
REM options -cpp -mtune=generic -march=x86-64 -g -O0 -fpre-include=/usr/include/finclude/math-vector-fortran.h
REM seed -364946095 1081001890 366821226 -198586198 -1452268559 1886560338 1681570102 -690944945 72795623 -997337041 -1748324018 859718756 1196076835 -87507303 -862614553 -446948201 1810093554 -628417120 649522066 -112743788 -2041876248 742097783 -1886063213 -756830752 -617548338 810998470 135496233 1219680888 -2020719679 880218075 -2064415695 -76839401 -1635603710
REM
CELL 1.54180   50.00000   50.00000   50.00000   90.00000   90.00000   90.00000
LATT -1
SFAC C  
C      1  0.4547830000000  0.5004870000000  0.5319550000000 1.0
C      1  0.5154220000000  0.5434800000000  0.5321330000000 1.0
C      1  0.5323400000000  0.4664150000000  0.5279370000000 1.0
C      1  0.5407830000000  0.5453940000000  0.4805650000000 1.0
C      1  0.5184970000000  0.4420750000000  0.4695660000000 1.0
C      1  0.4361870000000  0.5139550000000  0.4789350000000 1.0
C      1  0.5727340000000  0.4939300000000  0.4788160000000 1.0
C      1  0.4546930000000  0.4425260000000  0.4780080000000 1.0
C      1  0.4707310000000  0.5639640000000  0.4780060000000 1.0
C      1  0.4467590000000  0.5407570000000  0.5203290000000 1.0
C      1  0.5541750000000  0.5202810000000  0.5207640000000 1.0
C      1  0.4926570000000  0.4490920000000  0.5077560000000 1.0
C      1  0.4255400000000  0.5006030000000  0.5235970000000 1.0
C      1  0.5368420000000  0.5623190000000  0.5243770000000 1.0
C      1  0.5368810000000  0.4397980000000  0.5142900000000 1.0
C      1  0.4645660000000  0.4408070000000  0.5062980000000 1.0
C      1  0.4616950000000  0.5639210000000  0.5070210000000 1.0
C      1  0.5724730000000  0.4996030000000  0.5091070000000 1.0
C      1  0.5267160000000  0.4557690000000  0.5680270000000 1.0
C      1  0.4695320000000  0.5038520000000  0.5721210000000 1.0
C      1  0.5073020000000  0.5273880000000  0.5706410000000 1.0
C      1  0.5598450000000  0.5409570000000  0.4584550000000 1.0
C      1  0.4978890000000  0.4316380000000  0.4510330000000 1.0
C      1  0.4345760000000  0.5338070000000  0.4575830000000 1.0
C      1  0.4745880000000  0.5049710000000  0.5083590000000 1.0
C      1  0.5057410000000  0.5161450000000  0.5106040000000 1.0
C      1  0.5257190000000  0.4881350000000  0.5073230000000 1.0
C      1  0.4783680000000  0.5767310000000  0.5264740000000 1.0
C      1  0.5800250000000  0.4797100000000  0.5285800000000 1.0
C      1  0.4507910000000  0.4503530000000  0.5299420000000 1.0
C      1  0.4926860000000  0.4727220000000  0.4821030000000 1.0
C      1  0.4817650000000  0.5199640000000  0.4608090000000 1.0
C      1  0.5271980000000  0.5045570000000  0.4623500000000 1.0
C      1  0.4827060000000  0.5426090000000  0.5627450000000 1.0
C      1  0.5173420000000  0.4869240000000  0.5657310000000 1.0
C      1  0.4845260000000  0.4770240000000  0.5625790000000 1.0
C      1  0.5550580000000  0.4704820000000  0.4653580000000 1.0
C      1  0.4509830000000  0.4697460000000  0.4653670000000 1.0
C      1  0.5002080000000  0.5569850000000  0.4687450000000 1.0
C      1  0.4974710000000  0.5178640000000  0.4326420000000 1.0
C      1  0.5143380000000  0.4911420000000  0.4354680000000 1.0
C      1  0.4932040000000  0.4733120000000  0.4490170000000 1.0
C      1  0.5432020000000  0.4754210000000  0.4367290000000 1.0
C      1  0.4654610000000  0.4705010000000  0.4386410000000 1.0
C      1  0.5051210000000  0.5476270000000  0.4395390000000 1.0
C      1  0.4596250000000  0.4744880000000  0.5437920000000 1.0
C      1  0.4942000000000  0.5603440000000  0.5435820000000 1.0
C      1  0.5575980000000  0.4695200000000  0.5431350000000 1.0
C      1  0.5254790000000  0.4764330000000  0.4783630000000 1.0
C      1  0.4652720000000  0.4963730000000  0.4793200000000 1.0
C      1  0.5113830000000  0.5278530000000  0.4800480000000 1.0
C      1  0.5033490000000  0.4565250000000  0.5405280000000 1.0
C      1  0.4583530000000  0.5268490000000  0.5516120000000 1.0
C      1  0.5305770000000  0.5144830000000  0.5477010000000 1.0
C      1  0.4702320000000  0.4257260000000  0.4590130000000 1.0
C      1  0.4620690000000  0.5429420000000  0.4581880000000 1.0
C      1  0.5563740000000  0.5119650000000  0.4591250000000 1.0
C      1  0.4275100000000  0.5229480000000  0.5051380000000 1.0
C      1  0.5523690000000  0.5464760000000  0.5070540000000 1.0
C      1  0.5154920000000  0.4313340000000  0.4969750000000 1.0
END
