TITL C-3985245-9316-416 -0.00684250630541811 125000 -338.255904102823 0 0 60 (Cs) n - 1
REM
REM in /home/nfs/bkarasulu/CARBON/AIRSS/Generating-Clusters/TERSOFF/Higher-Symm/Only-C60
REM
REM
REM
REM
REM
REM ./C.cell (28575a23ae977d3b5fae324c64b13b57)
REM
REM compiler GCC version 9.2.1 20190827 (Red Hat 9.2.1-1)
REM options -cpp -mtune=generic -march=x86-64 -g -O0 -fpre-include=/usr/include/finclude/math-vector-fortran.h
REM seed -1672973958 1851170625 -679783068 -531687546 -1912277472 578322041 -662590635 -1229842939 -515732848 -1200424465 2053576597 2109863865 1808612904 -827586646 -404596053 -920964324 -1866206866 -1034225910 -1983229994 1965386130 -540922534 -1885719619 -1793645739 -197703375 -1314471814 -1115152518 -161782139 -744807118 -72935108 -2015353397 -500045385 1862730622 1937929553
REM
CELL 1.54180   50.00000   50.00000   50.00000   90.00000   90.00000   90.00000
LATT -1
SFAC C  
C      1  0.4922210000000  0.5420290000000  0.4729340000000 1.0
C      1  0.4922090000000  0.5420280000000  0.5270610000000 1.0
C      1  0.5023540000000  0.4441620000000  0.4487350000000 1.0
C      1  0.5023790000000  0.4441350000000  0.5512400000000 1.0
C      1  0.4375850000000  0.4983510000000  0.4675310000000 1.0
C      1  0.4376310000000  0.4984700000000  0.5323840000000 1.0
C      1  0.4690890000000  0.5611960000000  0.4847310000000 1.0
C      1  0.4690890000000  0.5611930000000  0.5152730000000 1.0
C      1  0.4994270000000  0.5327770000000  0.5553790000000 1.0
C      1  0.4994310000000  0.5327830000000  0.4446210000000 1.0
C      1  0.5335120000000  0.4457400000000  0.5469100000000 1.0
C      1  0.5335020000000  0.4457410000000  0.4530680000000 1.0
C      1  0.4393490000000  0.5240430000000  0.4833640000000 1.0
C      1  0.4393270000000  0.5240390000000  0.5166360000000 1.0
C      1  0.4541270000000  0.4961710000000  0.5593330000000 1.0
C      1  0.4541500000000  0.4961430000000  0.4406970000000 1.0
C      1  0.4596280000000  0.4555660000000  0.4686240000000 1.0
C      1  0.4597140000000  0.4556600000000  0.5313420000000 1.0
C      1  0.4814310000000  0.5114470000000  0.5691790000000 1.0
C      1  0.4814310000000  0.5114440000000  0.4308440000000 1.0
C      1  0.5643800000000  0.4918020000000  0.4742140000000 1.0
C      1  0.5641670000000  0.4916480000000  0.5260360000000 1.0
C      1  0.4884710000000  0.4836280000000  0.5171710000000 1.0
C      1  0.4884890000000  0.4836240000000  0.4829180000000 1.0
C      1  0.5345350000000  0.5280170000000  0.4443590000000 1.0
C      1  0.5345290000000  0.5280130000000  0.5556450000000 1.0
C      1  0.5011400000000  0.4892980000000  0.4259110000000 1.0
C      1  0.5011590000000  0.4892960000000  0.5741110000000 1.0
C      1  0.4720920000000  0.5157520000000  0.5157340000000 1.0
C      1  0.4721700000000  0.5157890000000  0.4842920000000 1.0
C      1  0.4417800000000  0.4733420000000  0.5152360000000 1.0
C      1  0.4417080000000  0.4733390000000  0.4847370000000 1.0
C      1  0.4617190000000  0.4663090000000  0.4402590000000 1.0
C      1  0.4618040000000  0.4663810000000  0.5596820000000 1.0
C      1  0.5251110000000  0.4950210000000  0.4427960000000 1.0
C      1  0.5250990000000  0.4950190000000  0.5572050000000 1.0
C      1  0.4890200000000  0.4621690000000  0.5705620000000 1.0
C      1  0.4889840000000  0.4621860000000  0.4294440000000 1.0
C      1  0.4886540000000  0.4477260000000  0.4818080000000 1.0
C      1  0.4886810000000  0.4476670000000  0.5181680000000 1.0
C      1  0.5628670000000  0.5188690000000  0.5356040000000 1.0
C      1  0.5628720000000  0.5188810000000  0.4643970000000 1.0
C      1  0.5648150000000  0.5436160000000  0.5150510000000 1.0
C      1  0.5648120000000  0.5436220000000  0.4849460000000 1.0
C      1  0.5403310000000  0.4799760000000  0.5143350000000 1.0
C      1  0.5403720000000  0.4799900000000  0.4856910000000 1.0
C      1  0.5153330000000  0.5618280000000  0.5151350000000 1.0
C      1  0.5153380000000  0.5618430000000  0.4848640000000 1.0
C      1  0.5167640000000  0.4931490000000  0.4727780000000 1.0
C      1  0.5167270000000  0.4931390000000  0.5272370000000 1.0
C      1  0.5393950000000  0.5532890000000  0.4693780000000 1.0
C      1  0.5393960000000  0.5532850000000  0.5306180000000 1.0
C      1  0.5241520000000  0.4408910000000  0.5155850000000 1.0
C      1  0.5240930000000  0.4408410000000  0.4844000000000 1.0
C      1  0.5437700000000  0.4713100000000  0.4429720000000 1.0
C      1  0.5439070000000  0.4714660000000  0.5567920000000 1.0
C      1  0.5139540000000  0.5199430000000  0.4856870000000 1.0
C      1  0.5138260000000  0.5199200000000  0.5143450000000 1.0
C      1  0.4429980000000  0.5524900000000  0.4735790000000 1.0
C      1  0.4430020000000  0.5525070000000  0.5264300000000 1.0
END
