TITL C-3985259-1859-1205 1.22437247494902e-06 125000 -370.044465122069 0 0 60 (C3) n - 1
REM
REM in /home/nfs/bkarasulu/CARBON/AIRSS/Generating-Clusters/TERSOFF/Higher-Symm/Only-C60
REM
REM
REM
REM
REM
REM ./C.cell (28575a23ae977d3b5fae324c64b13b57)
REM
REM compiler GCC version 9.2.1 20190827 (Red Hat 9.2.1-1)
REM options -cpp -mtune=generic -march=x86-64 -g -O0 -fpre-include=/usr/include/finclude/math-vector-fortran.h
REM seed -1501374846 -1150975570 -1761497211 2104068477 1151403680 229218149 227116917 1495426656 -1218851964 534568349 1664653071 -207575562 -1974237544 -1753886616 1903878994 -1957331501 -174759289 -958287286 2044622566 -1857542777 -283970291 1864777406 1323497702 1230758501 286289606 -1329347318 972738111 1413062166 773909898 1499198656 -1220386960 -701516588 1719268161
REM
CELL 1.54180   50.00000   50.00000   50.00000   90.00000   90.00000   90.00000
LATT -1
SFAC C  
C      1  0.4516950000000  0.5139070000000  0.4962050000000 1.0
C      1  0.5121090000000  0.4512130000000  0.4962050000000 1.0
C      1  0.5361960000000  0.5348800000000  0.4962050000000 1.0
C      1  0.4516950000000  0.4860930000000  0.4962050000000 1.0
C      1  0.5121090000000  0.5487870000000  0.4962050000000 1.0
C      1  0.5361960000000  0.4651200000000  0.4962050000000 1.0
C      1  0.5260260000000  0.5147820000000  0.4521220000000 1.0
C      1  0.4741850000000  0.5151480000000  0.4521220000000 1.0
C      1  0.4997890000000  0.4700690000000  0.4521220000000 1.0
C      1  0.5260260000000  0.4852180000000  0.4521220000000 1.0
C      1  0.4741850000000  0.4848520000000  0.4521220000000 1.0
C      1  0.4997890000000  0.5299310000000  0.4521220000000 1.0
C      1  0.5262530000000  0.5762040000000  0.5246760000000 1.0
C      1  0.4208790000000  0.4846340000000  0.5246760000000 1.0
C      1  0.5528680000000  0.4391620000000  0.5246760000000 1.0
C      1  0.5262530000000  0.4237960000000  0.5246760000000 1.0
C      1  0.4208790000000  0.5153660000000  0.5246760000000 1.0
C      1  0.5528680000000  0.5608380000000  0.5246760000000 1.0
C      1  0.5748220000000  0.4855730000000  0.5201470000000 1.0
C      1  0.4750830000000  0.5720110000000  0.5201470000000 1.0
C      1  0.4500950000000  0.4424160000000  0.5201470000000 1.0
C      1  0.5748220000000  0.5144270000000  0.5201470000000 1.0
C      1  0.4750830000000  0.4279890000000  0.5201470000000 1.0
C      1  0.4500950000000  0.5575840000000  0.5201470000000 1.0
C      1  0.5467390000000  0.4746570000000  0.4710260000000 1.0
C      1  0.4985790000000  0.5531490000000  0.4710260000000 1.0
C      1  0.4546830000000  0.4721950000000  0.4710260000000 1.0
C      1  0.5467390000000  0.5253430000000  0.4710260000000 1.0
C      1  0.4985790000000  0.4468510000000  0.4710260000000 1.0
C      1  0.4546830000000  0.5278050000000  0.4710260000000 1.0
C      1  0.4999400000000  0.4700100000000  0.5396830000000 1.0
C      1  0.5260030000000  0.5149430000000  0.5396830000000 1.0
C      1  0.4740580000000  0.5150470000000  0.5396830000000 1.0
C      1  0.4999400000000  0.5299900000000  0.5396830000000 1.0
C      1  0.5260030000000  0.4850570000000  0.5396830000000 1.0
C      1  0.4740580000000  0.4849530000000  0.5396830000000 1.0
C      1  0.5004160000000  0.4436950000000  0.5242450000000 1.0
C      1  0.5485540000000  0.5285130000000  0.5242450000000 1.0
C      1  0.4510300000000  0.5277930000000  0.5242450000000 1.0
C      1  0.5004160000000  0.5563050000000  0.5242450000000 1.0
C      1  0.5485540000000  0.4714870000000  0.5242450000000 1.0
C      1  0.4510300000000  0.4722070000000  0.5242450000000 1.0
C      1  0.4757990000000  0.4278620000000  0.4721680000000 1.0
C      1  0.5745730000000  0.5151110000000  0.4721680000000 1.0
C      1  0.4496270000000  0.5570270000000  0.4721680000000 1.0
C      1  0.4757990000000  0.5721380000000  0.4721680000000 1.0
C      1  0.5745730000000  0.4848890000000  0.4721680000000 1.0
C      1  0.4496270000000  0.4429730000000  0.4721680000000 1.0
C      1  0.4310680000000  0.5599970000000  0.4965170000000 1.0
C      1  0.4825070000000  0.4103040000000  0.4965170000000 1.0
C      1  0.5864250000000  0.5296990000000  0.4965170000000 1.0
C      1  0.4310680000000  0.4400030000000  0.4965170000000 1.0
C      1  0.4825070000000  0.5896960000000  0.4965170000000 1.0
C      1  0.5864250000000  0.4703010000000  0.4965170000000 1.0
C      1  0.4118320000000  0.4634910000000  0.5032100000000 1.0
C      1  0.5757010000000  0.4418990000000  0.5032100000000 1.0
C      1  0.5124660000000  0.5946100000000  0.5032100000000 1.0
C      1  0.4118320000000  0.5365090000000  0.5032100000000 1.0
C      1  0.5757010000000  0.5581010000000  0.5032100000000 1.0
C      1  0.5124660000000  0.4053900000000  0.5032100000000 1.0
END
