TITL C-3985253-1688-66 0.001897030465936 125000 -320.046543084278 0 0 60 (D2h) n - 1
REM
REM in /home/nfs/bkarasulu/CARBON/AIRSS/Generating-Clusters/TERSOFF/Higher-Symm/Only-C60
REM
REM
REM
REM
REM
REM ./C.cell (28575a23ae977d3b5fae324c64b13b57)
REM
REM compiler GCC version 9.2.1 20190827 (Red Hat 9.2.1-1)
REM options -cpp -mtune=generic -march=x86-64 -g -O0 -fpre-include=/usr/include/finclude/math-vector-fortran.h
REM seed 1070359155 1529551322 -484269048 568334536 1758727651 1396584733 -1705643691 -899815472 796549704 836972817 -1977191057 -1099280465 -1898214883 -605821923 110973639 1463151354 1755620047 1550843194 -315811705 -2084412569 393570804 -708844189 1314053735 1947547582 1181829610 336086885 -1592405338 1865408787 509567606 -1542208567 1008582905 900459381 1620424207
REM
CELL 1.54180   50.00000   50.00000   50.00000   90.00000   90.00000   90.00000
LATT -1
SFAC C  
C      1  0.5315280000000  0.5633920000000  0.5169910000000 1.0
C      1  0.4684720000000  0.5633920000000  0.4830090000000 1.0
C      1  0.5315290000000  0.4366080000000  0.5169910000000 1.0
C      1  0.4684720000000  0.4366080000000  0.4830090000000 1.0
C      1  0.5315290000000  0.5633920000000  0.4830090000000 1.0
C      1  0.4684710000000  0.5633920000000  0.5169910000000 1.0
C      1  0.5315290000000  0.4366080000000  0.4830090000000 1.0
C      1  0.4684710000000  0.4366080000000  0.5169910000000 1.0
C      1  0.5604270000000  0.4507630000000  0.5156110000000 1.0
C      1  0.4395730000000  0.4507630000000  0.4843890000000 1.0
C      1  0.5604270000000  0.5492370000000  0.5156110000000 1.0
C      1  0.4395730000000  0.5492370000000  0.4843890000000 1.0
C      1  0.5604270000000  0.4507630000000  0.4843890000000 1.0
C      1  0.4395730000000  0.4507640000000  0.5156110000000 1.0
C      1  0.5604270000000  0.5492370000000  0.4843890000000 1.0
C      1  0.4395720000000  0.5492360000000  0.5156120000000 1.0
C      1  0.5148300000000  0.5521920000000  0.5391150000000 1.0
C      1  0.4851650000000  0.5521810000000  0.4608940000000 1.0
C      1  0.5148390000000  0.4478280000000  0.5390990000000 1.0
C      1  0.4851660000000  0.4478170000000  0.4608920000000 1.0
C      1  0.5148340000000  0.5521840000000  0.4608900000000 1.0
C      1  0.4851650000000  0.5521810000000  0.5391080000000 1.0
C      1  0.5148360000000  0.4478200000000  0.4608940000000 1.0
C      1  0.4851650000000  0.4478180000000  0.5391090000000 1.0
C      1  0.4721720000000  0.4790090000000  0.4857470000000 1.0
C      1  0.5278240000000  0.4790030000000  0.5142610000000 1.0
C      1  0.4721720000000  0.5209930000000  0.4857460000000 1.0
C      1  0.5278330000000  0.5209770000000  0.5142450000000 1.0
C      1  0.4721680000000  0.4790120000000  0.5142540000000 1.0
C      1  0.5278280000000  0.4790110000000  0.4857440000000 1.0
C      1  0.4721710000000  0.5209880000000  0.5142530000000 1.0
C      1  0.5278300000000  0.5209850000000  0.4857480000000 1.0
C      1  0.4843950000000  0.4837690000000  0.4233730000000 1.0
C      1  0.5156060000000  0.4837690000000  0.5766270000000 1.0
C      1  0.4843950000000  0.5162310000000  0.4233730000000 1.0
C      1  0.5156050000000  0.5162310000000  0.5766270000000 1.0
C      1  0.4843950000000  0.4837690000000  0.5766270000000 1.0
C      1  0.5156050000000  0.4837690000000  0.4233730000000 1.0
C      1  0.4843950000000  0.5162310000000  0.5766270000000 1.0
C      1  0.5156050000000  0.5162310000000  0.4233730000000 1.0
C      1  0.5288720000000  0.4656650000000  0.5581680000000 1.0
C      1  0.4711280000000  0.4656650000000  0.4418320000000 1.0
C      1  0.5288730000000  0.5343350000000  0.5581680000000 1.0
C      1  0.4711280000000  0.5343350000000  0.4418320000000 1.0
C      1  0.5288720000000  0.4656650000000  0.4418320000000 1.0
C      1  0.4711280000000  0.4656650000000  0.5581680000000 1.0
C      1  0.5288720000000  0.5343350000000  0.4418320000000 1.0
C      1  0.4711280000000  0.5343350000000  0.5581690000000 1.0
C      1  0.5660310000000  0.5250650000000  0.5312010000000 1.0
C      1  0.4339690000000  0.5250650000000  0.4687980000000 1.0
C      1  0.5660310000000  0.4749350000000  0.5312020000000 1.0
C      1  0.4339680000000  0.4749350000000  0.4687980000000 1.0
C      1  0.5660310000000  0.5250640000000  0.4687990000000 1.0
C      1  0.4339690000000  0.5250640000000  0.5312010000000 1.0
C      1  0.5660310000000  0.4749350000000  0.4687990000000 1.0
C      1  0.4339710000000  0.4749360000000  0.5312000000000 1.0
C      1  0.4534990000000  0.5000000000000  0.5319910000000 1.0
C      1  0.5465020000000  0.5000000000000  0.4680080000000 1.0
C      1  0.5465020000000  0.5000000000000  0.5319910000000 1.0
C      1  0.4534980000000  0.5000000000000  0.4680080000000 1.0
END
