TITL C-3985247-764-355 0.0154743646222061 125000 -271.654833593504 0 0 60 (S12) n - 1
REM
REM in /home/nfs/bkarasulu/CARBON/AIRSS/Generating-Clusters/TERSOFF/Higher-Symm/Only-C60
REM
REM
REM
REM
REM
REM ./C.cell (28575a23ae977d3b5fae324c64b13b57)
REM
REM compiler GCC version 9.2.1 20190827 (Red Hat 9.2.1-1)
REM options -cpp -mtune=generic -march=x86-64 -g -O0 -fpre-include=/usr/include/finclude/math-vector-fortran.h
REM seed -184577806 -1541504907 1634438337 1007748397 -43444681 -1431851051 1980718900 -1430110084 -1084817552 -1852069071 -2008687576 1317881337 384211638 -1682153219 -182353289 586285224 -495471375 -133926095 1937005778 -1179006161 872494824 -94137929 1957020377 2056950704 851145696 437370231 1256795962 1614494703 1095653591 -1846042505 1227457653 368551411 1752363242
REM
CELL 1.54180   50.00000   50.00000   50.00000   90.00000   90.00000   90.00000
LATT -1
SFAC C  
C      1  0.5193680000000  0.5299370000000  0.5077830000000 1.0
C      1  0.4806440000000  0.5297520000000  0.4918010000000 1.0
C      1  0.5194440000000  0.5216830000000  0.4779720000000 1.0
C      1  0.4806320000000  0.5077830000000  0.4700630000000 1.0
C      1  0.5193560000000  0.4918010000000  0.4702480000000 1.0
C      1  0.4805560000000  0.4779720000000  0.4783170000000 1.0
C      1  0.5193680000000  0.4700630000000  0.4922170000000 1.0
C      1  0.4806440000000  0.4702480000000  0.5081990000000 1.0
C      1  0.5194440000000  0.4783170000000  0.5220280000000 1.0
C      1  0.4806320000000  0.4922170000000  0.5299370000000 1.0
C      1  0.5193560000000  0.5081990000000  0.5297520000000 1.0
C      1  0.4805560000000  0.5220280000000  0.5216830000000 1.0
C      1  0.5619290000000  0.5349680000000  0.4903620000000 1.0
C      1  0.4380510000000  0.5254610000000  0.4741740000000 1.0
C      1  0.5619660000000  0.5091780000000  0.4649190000000 1.0
C      1  0.4380710000000  0.4903620000000  0.4650320000000 1.0
C      1  0.5619490000000  0.4741740000000  0.4745390000000 1.0
C      1  0.4380340000000  0.4649190000000  0.4908220000000 1.0
C      1  0.5619290000000  0.4650320000000  0.5096380000000 1.0
C      1  0.4380510000000  0.4745390000000  0.5258260000000 1.0
C      1  0.5619660000000  0.4908220000000  0.5350810000000 1.0
C      1  0.4380710000000  0.5096380000000  0.5349680000000 1.0
C      1  0.5619490000000  0.5258260000000  0.5254610000000 1.0
C      1  0.4380340000000  0.5350810000000  0.5091780000000 1.0
C      1  0.5187490000000  0.5171390000000  0.5642380000000 1.0
C      1  0.4812240000000  0.5469510000000  0.5470770000000 1.0
C      1  0.5187880000000  0.5641900000000  0.5172550000000 1.0
C      1  0.4812510000000  0.5642380000000  0.4828610000000 1.0
C      1  0.5187760000000  0.5470770000000  0.4530490000000 1.0
C      1  0.4812120000000  0.5172550000000  0.4358100000000 1.0
C      1  0.5187490000000  0.4828610000000  0.4357620000000 1.0
C      1  0.4812240000000  0.4530490000000  0.4529230000000 1.0
C      1  0.5187880000000  0.4358100000000  0.4827450000000 1.0
C      1  0.4812510000000  0.4357620000000  0.5171390000000 1.0
C      1  0.5187760000000  0.4529230000000  0.5469510000000 1.0
C      1  0.4812120000000  0.4827450000000  0.5641900000000 1.0
C      1  0.4983760000000  0.4583620000000  0.5691600000000 1.0
C      1  0.5016850000000  0.4985230000000  0.5807060000000 1.0
C      1  0.4983720000000  0.5390610000000  0.5706470000000 1.0
C      1  0.5016240000000  0.5691600000000  0.5416380000000 1.0
C      1  0.4983150000000  0.5807060000000  0.5014770000000 1.0
C      1  0.5016280000000  0.5706470000000  0.4609390000000 1.0
C      1  0.4983760000000  0.5416380000000  0.4308400000000 1.0
C      1  0.5016850000000  0.5014770000000  0.4192940000000 1.0
C      1  0.4983720000000  0.4609390000000  0.4293530000000 1.0
C      1  0.5016240000000  0.4308400000000  0.4583620000000 1.0
C      1  0.4983150000000  0.4192940000000  0.4985230000000 1.0
C      1  0.5016280000000  0.4293530000000  0.5390610000000 1.0
C      1  0.4504280000000  0.4572470000000  0.4577720000000 1.0
C      1  0.5496090000000  0.4418090000000  0.4848130000000 1.0
C      1  0.4505500000000  0.4421350000000  0.5159140000000 1.0
C      1  0.5495720000000  0.4577720000000  0.5427530000000 1.0
C      1  0.4503910000000  0.4848130000000  0.5581910000000 1.0
C      1  0.5494500000000  0.5159140000000  0.5578650000000 1.0
C      1  0.4504280000000  0.5427530000000  0.5422280000000 1.0
C      1  0.5496090000000  0.5581910000000  0.5151870000000 1.0
C      1  0.4505500000000  0.5578650000000  0.4840860000000 1.0
C      1  0.5495720000000  0.5422280000000  0.4572470000000 1.0
C      1  0.4503910000000  0.5151870000000  0.4418090000000 1.0
C      1  0.5494500000000  0.4840860000000  0.4421350000000 1.0
END
