TITL C-3985247-764-784 5.12329345815861e-05 125000 -309.480262716153 0 0 60 (Ci) n - 1
REM
REM in /home/nfs/bkarasulu/CARBON/AIRSS/Generating-Clusters/TERSOFF/Higher-Symm/Only-C60
REM
REM
REM
REM
REM
REM ./C.cell (28575a23ae977d3b5fae324c64b13b57)
REM
REM compiler GCC version 9.2.1 20190827 (Red Hat 9.2.1-1)
REM options -cpp -mtune=generic -march=x86-64 -g -O0 -fpre-include=/usr/include/finclude/math-vector-fortran.h
REM seed -1570306344 1451976271 1739619097 -1927531071 1005510558 -547283561 -2036133304 -1453137111 -1492132851 1898863222 203338286 1195092794 -635044396 -5593583 -1181410079 -154350630 1754458524 1415269389 -1683186643 -1150094085 825306074 470081900 -1619881016 -1569843337 -2033185235 2083965109 -1212018733 -542433540 1892232865 2090261426 232207702 -1198879361 -2075114325
REM
CELL 1.54180   50.00000   50.00000   50.00000   90.00000   90.00000   90.00000
LATT -1
SFAC C  
C      1  0.5579010000000  0.5285860000000  0.4851960000000 1.0
C      1  0.4420980000000  0.4714140000000  0.5148040000000 1.0
C      1  0.4862420000000  0.4389370000000  0.4565630000000 1.0
C      1  0.5137580000000  0.5610630000000  0.5434370000000 1.0
C      1  0.5463220000000  0.4808120000000  0.5517250000000 1.0
C      1  0.4536780000000  0.5191880000000  0.4482750000000 1.0
C      1  0.4895520000000  0.5464220000000  0.4691840000000 1.0
C      1  0.5104480000000  0.4535780000000  0.5308160000000 1.0
C      1  0.4830300000000  0.4439450000000  0.4888390000000 1.0
C      1  0.5169700000000  0.5560550000000  0.5111610000000 1.0
C      1  0.4760250000000  0.4917010000000  0.4799930000000 1.0
C      1  0.5239750000000  0.5082990000000  0.5200060000000 1.0
C      1  0.4599070000000  0.4515260000000  0.5315920000000 1.0
C      1  0.5400930000000  0.5484740000000  0.4684080000000 1.0
C      1  0.5777440000000  0.5066630000000  0.5036730000000 1.0
C      1  0.4222570000000  0.4933370000000  0.4963270000000 1.0
C      1  0.4566730000000  0.5158320000000  0.5419900000000 1.0
C      1  0.5433270000000  0.4841670000000  0.4580100000000 1.0
C      1  0.5094580000000  0.4631710000000  0.4817740000000 1.0
C      1  0.4905420000000  0.5368280000000  0.5182260000000 1.0
C      1  0.5485800000000  0.5475370000000  0.5096290000000 1.0
C      1  0.4514200000000  0.4524630000000  0.4903710000000 1.0
C      1  0.4674890000000  0.5221580000000  0.4757210000000 1.0
C      1  0.5325110000000  0.4778420000000  0.5242790000000 1.0
C      1  0.4991190000000  0.4731200000000  0.5550440000000 1.0
C      1  0.5008810000000  0.5268800000000  0.4449570000000 1.0
C      1  0.5054490000000  0.4923780000000  0.4737370000000 1.0
C      1  0.4945500000000  0.5076220000000  0.5262630000000 1.0
C      1  0.5148030000000  0.5562950000000  0.4809440000000 1.0
C      1  0.4851970000000  0.4437050000000  0.5190560000000 1.0
C      1  0.4912190000000  0.4861910000000  0.4412390000000 1.0
C      1  0.5087820000000  0.5138100000000  0.5587610000000 1.0
C      1  0.4703920000000  0.4875900000000  0.5541710000000 1.0
C      1  0.5296090000000  0.5124100000000  0.4458290000000 1.0
C      1  0.5776950000000  0.5150180000000  0.5328080000000 1.0
C      1  0.4223050000000  0.4849820000000  0.4671920000000 1.0
C      1  0.4262680000000  0.5265660000000  0.5024340000000 1.0
C      1  0.5737320000000  0.4734340000000  0.4975660000000 1.0
C      1  0.5606490000000  0.5387660000000  0.5359430000000 1.0
C      1  0.4393510000000  0.4612340000000  0.4640570000000 1.0
C      1  0.5283080000000  0.5129210000000  0.4893050000000 1.0
C      1  0.4716920000000  0.4870790000000  0.5106950000000 1.0
C      1  0.5439730000000  0.4850980000000  0.4912790000000 1.0
C      1  0.4560270000000  0.5149010000000  0.5087220000000 1.0
C      1  0.4689170000000  0.4665950000000  0.4549280000000 1.0
C      1  0.5310830000000  0.5334050000000  0.5450720000000 1.0
C      1  0.5525590000000  0.4443140000000  0.4946710000000 1.0
C      1  0.4474410000000  0.5556860000000  0.5053290000000 1.0
C      1  0.5216750000000  0.4880500000000  0.5692030000000 1.0
C      1  0.4783250000000  0.5119500000000  0.4307970000000 1.0
C      1  0.5362810000000  0.4363460000000  0.5190440000000 1.0
C      1  0.4637190000000  0.5636540000000  0.4809560000000 1.0
C      1  0.5143180000000  0.4428040000000  0.4447380000000 1.0
C      1  0.4856820000000  0.5571960000000  0.5552620000000 1.0
C      1  0.5717620000000  0.4943970000000  0.5523610000000 1.0
C      1  0.4282380000000  0.5056040000000  0.4476390000000 1.0
C      1  0.4650880000000  0.5485330000000  0.5321630000000 1.0
C      1  0.5349120000000  0.4514670000000  0.4678370000000 1.0
C      1  0.5096040000000  0.4669170000000  0.4270080000000 1.0
C      1  0.4903960000000  0.5330830000000  0.5729920000000 1.0
END
