TITL C-3985250-725-1038 -0.00257989978769926 125000 -342.015995765553 0 0 60 (D2h) n - 1
REM
REM in /home/nfs/bkarasulu/CARBON/AIRSS/Generating-Clusters/TERSOFF/Higher-Symm/Only-C60
REM
REM
REM
REM
REM
REM ./C.cell (28575a23ae977d3b5fae324c64b13b57)
REM
REM compiler GCC version 9.2.1 20190827 (Red Hat 9.2.1-1)
REM options -cpp -mtune=generic -march=x86-64 -g -O0 -fpre-include=/usr/include/finclude/math-vector-fortran.h
REM seed 676260280 1938492688 -1045487445 -943342269 2044058288 680797046 -988106664 1302155438 -1745938381 -170717884 1272386955 -1836692741 348274791 -1393990618 1176846946 -1707176353 827195976 1523761492 -1650587554 -962799500 1229585568 -653880463 1668100045 -1041642192 -1722242577 -2146111100 1168109841 -932299928 2079810371 -1817778445 -1723252169 -1805956456 -1052073261
REM
CELL 1.54180   50.00000   50.00000   50.00000   90.00000   90.00000   90.00000
LATT -1
SFAC C  
C      1  0.4158640000000  0.4748740000000  0.5155430000000 1.0
C      1  0.4714570000000  0.4744840000000  0.5813770000000 1.0
C      1  0.5495930000000  0.4754470000000  0.5591890000000 1.0
C      1  0.5841350000000  0.4748750000000  0.4844630000000 1.0
C      1  0.5285630000000  0.4744740000000  0.4186250000000 1.0
C      1  0.4504110000000  0.4754300000000  0.4408260000000 1.0
C      1  0.5841370000000  0.4748640000000  0.5155310000000 1.0
C      1  0.5285580000000  0.4744810000000  0.5813750000000 1.0
C      1  0.4503940000000  0.4754460000000  0.5591770000000 1.0
C      1  0.4158680000000  0.4748840000000  0.4844580000000 1.0
C      1  0.4714360000000  0.4744770000000  0.4186290000000 1.0
C      1  0.5496000000000  0.4754410000000  0.4408330000000 1.0
C      1  0.5386730000000  0.5451200000000  0.4624870000000 1.0
C      1  0.4851760000000  0.5471890000000  0.4364610000000 1.0
C      1  0.4384840000000  0.5480270000000  0.4832230000000 1.0
C      1  0.4613300000000  0.5451100000000  0.5375230000000 1.0
C      1  0.5148170000000  0.5471940000000  0.5635430000000 1.0
C      1  0.5615120000000  0.5480330000000  0.5167780000000 1.0
C      1  0.4613300000000  0.5451190000000  0.4624830000000 1.0
C      1  0.5148150000000  0.5471930000000  0.4364620000000 1.0
C      1  0.5615170000000  0.5480270000000  0.4832190000000 1.0
C      1  0.5386770000000  0.5451050000000  0.5375310000000 1.0
C      1  0.4851720000000  0.5471870000000  0.5635500000000 1.0
C      1  0.4384780000000  0.5480350000000  0.5167700000000 1.0
C      1  0.5146960000000  0.4994640000000  0.4112910000000 1.0
C      1  0.4369390000000  0.5000050000000  0.4474560000000 1.0
C      1  0.4188380000000  0.5000630000000  0.5301380000000 1.0
C      1  0.4853190000000  0.4994590000000  0.5887320000000 1.0
C      1  0.5630620000000  0.5000030000000  0.5525430000000 1.0
C      1  0.5811700000000  0.5000700000000  0.4698580000000 1.0
C      1  0.4853090000000  0.4994650000000  0.4112800000000 1.0
C      1  0.5630590000000  0.4999990000000  0.4474510000000 1.0
C      1  0.5811680000000  0.5000610000000  0.5301390000000 1.0
C      1  0.5146920000000  0.4994610000000  0.5887100000000 1.0
C      1  0.4369460000000  0.5000040000000  0.5525390000000 1.0
C      1  0.4188320000000  0.5000710000000  0.4698590000000 1.0
C      1  0.4157660000000  0.5251850000000  0.5155160000000 1.0
C      1  0.4714900000000  0.5246960000000  0.5820000000000 1.0
C      1  0.5500520000000  0.5246570000000  0.5600720000000 1.0
C      1  0.5842380000000  0.5251990000000  0.4844960000000 1.0
C      1  0.5285120000000  0.5247030000000  0.4179880000000 1.0
C      1  0.4499510000000  0.5246440000000  0.4399320000000 1.0
C      1  0.5842350000000  0.5251900000000  0.5155090000000 1.0
C      1  0.5285050000000  0.5247050000000  0.5819910000000 1.0
C      1  0.4499390000000  0.5246500000000  0.5600650000000 1.0
C      1  0.4157620000000  0.5251940000000  0.4844960000000 1.0
C      1  0.4714970000000  0.5246990000000  0.4179880000000 1.0
C      1  0.5500450000000  0.5246380000000  0.4399200000000 1.0
C      1  0.4622820000000  0.4560650000000  0.5362950000000 1.0
C      1  0.5147400000000  0.4523180000000  0.5625490000000 1.0
C      1  0.5609580000000  0.4524190000000  0.5165340000000 1.0
C      1  0.5377310000000  0.4560650000000  0.4636910000000 1.0
C      1  0.4852800000000  0.4523200000000  0.4374440000000 1.0
C      1  0.4390570000000  0.4524150000000  0.4834730000000 1.0
C      1  0.5377180000000  0.4560610000000  0.5362930000000 1.0
C      1  0.4852530000000  0.4523180000000  0.5625550000000 1.0
C      1  0.4390420000000  0.4524170000000  0.5165290000000 1.0
C      1  0.4622720000000  0.4560680000000  0.4636970000000 1.0
C      1  0.5147090000000  0.4523150000000  0.4374500000000 1.0
C      1  0.5609390000000  0.4524190000000  0.4834640000000 1.0
END
