TITL C-3985254-1270-540 -0.00315603790487034 125000 -346.116997382746 0 0 60 (C5) n - 1
REM
REM in /home/nfs/bkarasulu/CARBON/AIRSS/Generating-Clusters/TERSOFF/Higher-Symm/Only-C60
REM
REM
REM
REM
REM
REM ./C.cell (28575a23ae977d3b5fae324c64b13b57)
REM
REM compiler GCC version 9.2.1 20190827 (Red Hat 9.2.1-1)
REM options -cpp -mtune=generic -march=x86-64 -g -O0 -fpre-include=/usr/include/finclude/math-vector-fortran.h
REM seed 97718063 -403984571 294706475 1836172222 -1758671782 -1809319269 1036745076 916193690 1088423566 232603738 -1405782788 1780969293 -1552266298 1322051945 -1966812396 328248188 1325041401 461463414 354191504 -1778949603 1052834436 687638674 -1757100502 1483135585 -74644645 1927308361 604894697 -1153227019 551441569 2113942384 1617960666 -158755443 1418281904
REM
CELL 1.54180   50.00000   50.00000   50.00000   90.00000   90.00000   90.00000
LATT -1
SFAC C  
C      1  0.4840650000000  0.4939850000000  0.4341710000000 1.0
C      1  0.4840600000000  0.5607420000000  0.4739430000000 1.0
C      1  0.4840690000000  0.5435510000000  0.5497130000000 1.0
C      1  0.4840750000000  0.4661810000000  0.5567860000000 1.0
C      1  0.4840690000000  0.4355400000000  0.4853800000000 1.0
C      1  0.4791860000000  0.4910650000000  0.5233560000000 1.0
C      1  0.4791820000000  0.4750150000000  0.4987000000000 1.0
C      1  0.4792220000000  0.4934980000000  0.4758380000000 1.0
C      1  0.4792210000000  0.5209680000000  0.4863510000000 1.0
C      1  0.4792240000000  0.5194610000000  0.5157160000000 1.0
C      1  0.4854520000000  0.4392460000000  0.5444280000000 1.0
C      1  0.4854490000000  0.4389680000000  0.4559480000000 1.0
C      1  0.4854510000000  0.5230330000000  0.4283380000000 1.0
C      1  0.4854530000000  0.5752750000000  0.4997610000000 1.0
C      1  0.4854520000000  0.5234830000000  0.5715150000000 1.0
C      1  0.5211510000000  0.4902480000000  0.5259090000000 1.0
C      1  0.5211670000000  0.4723510000000  0.4987280000000 1.0
C      1  0.5210920000000  0.4926740000000  0.4733210000000 1.0
C      1  0.5210950000000  0.5231120000000  0.4847860000000 1.0
C      1  0.5210970000000  0.5216180000000  0.5172930000000 1.0
C      1  0.5497200000000  0.5311200000000  0.5249870000000 1.0
C      1  0.5497250000000  0.4858450000000  0.5373150000000 1.0
C      1  0.5497260000000  0.4601340000000  0.4980720000000 1.0
C      1  0.5497230000000  0.4895250000000  0.4614930000000 1.0
C      1  0.5497240000000  0.5333750000000  0.4781370000000 1.0
C      1  0.5074970000000  0.4441660000000  0.5016300000000 1.0
C      1  0.5075180000000  0.4811820000000  0.4473790000000 1.0
C      1  0.5075090000000  0.5442230000000  0.4658350000000 1.0
C      1  0.5075120000000  0.5461540000000  0.5315090000000 1.0
C      1  0.5075000000000  0.4842820000000  0.5536110000000 1.0
C      1  0.5579540000000  0.4601120000000  0.4682000000000 1.0
C      1  0.5579400000000  0.5179100000000  0.4522390000000 1.0
C      1  0.5579460000000  0.5509570000000  0.5022700000000 1.0
C      1  0.5579510000000  0.5135840000000  0.5491730000000 1.0
C      1  0.5579490000000  0.4574290000000  0.5281130000000 1.0
C      1  0.4464580000000  0.4916750000000  0.4703850000000 1.0
C      1  0.4464660000000  0.5255940000000  0.4829360000000 1.0
C      1  0.4464420000000  0.5241410000000  0.5190720000000 1.0
C      1  0.4464260000000  0.4893230000000  0.5288490000000 1.0
C      1  0.4464260000000  0.4692610000000  0.4987660000000 1.0
C      1  0.4578200000000  0.4389700000000  0.5009680000000 1.0
C      1  0.4578270000000  0.4802310000000  0.4422740000000 1.0
C      1  0.4578330000000  0.5487970000000  0.4633640000000 1.0
C      1  0.4578360000000  0.5499220000000  0.5350810000000 1.0
C      1  0.4578210000000  0.4820650000000  0.5583420000000 1.0
C      1  0.5108160000000  0.5705500000000  0.5153010000000 1.0
C      1  0.5108200000000  0.5072530000000  0.5718240000000 1.0
C      1  0.5108220000000  0.4339350000000  0.5290870000000 1.0
C      1  0.5108170000000  0.4519200000000  0.4461600000000 1.0
C      1  0.5108150000000  0.5363500000000  0.4376390000000 1.0
C      1  0.5383310000000  0.4424830000000  0.4528590000000 1.0
C      1  0.5383330000000  0.5270620000000  0.4307370000000 1.0
C      1  0.5383340000000  0.5742430000000  0.5043420000000 1.0
C      1  0.5383310000000  0.5188230000000  0.5719510000000 1.0
C      1  0.5383310000000  0.4373910000000  0.5401340000000 1.0
C      1  0.4615540000000  0.4507650000000  0.4431220000000 1.0
C      1  0.4615490000000  0.5388790000000  0.4355850000000 1.0
C      1  0.4615550000000  0.5732640000000  0.5170770000000 1.0
C      1  0.4615560000000  0.5064000000000  0.5749580000000 1.0
C      1  0.4615550000000  0.4306900000000  0.5292460000000 1.0
END
