TITL C-3985247-764-238 -0.0022475610937464 125000 -311.12182626245 0 0 60 (C1) n - 1
REM
REM in /home/nfs/bkarasulu/CARBON/AIRSS/Generating-Clusters/TERSOFF/Higher-Symm/Only-C60
REM
REM
REM
REM
REM
REM ./C.cell (28575a23ae977d3b5fae324c64b13b57)
REM
REM compiler GCC version 9.2.1 20190827 (Red Hat 9.2.1-1)
REM options -cpp -mtune=generic -march=x86-64 -g -O0 -fpre-include=/usr/include/finclude/math-vector-fortran.h
REM seed -1898058426 667899417 -1519924682 1179664740 -905225325 514533769 1958715935 -1380749785 1837175502 -1365460434 352501296 -1620343799 -576891145 -1008963483 2126932620 1961292745 -20087212 2033173095 -1414969622 1285963593 2075164946 -1775601555 734899596 -2102557852 1748456762 -961160125 1765645790 253696321 -1433915966 1558403650 1593746213 555247147 720218985
REM
CELL 1.54180   50.00000   50.00000   50.00000   90.00000   90.00000   90.00000
LATT -1
SFAC C  
C      1  0.5021660000000  0.5277470000000  0.5562060000000 1.0
C      1  0.4904980000000  0.5165150000000  0.4517900000000 1.0
C      1  0.4939040000000  0.4762440000000  0.4266640000000 1.0
C      1  0.5384450000000  0.5006840000000  0.5665690000000 1.0
C      1  0.4744120000000  0.4552680000000  0.4942260000000 1.0
C      1  0.5122310000000  0.4747670000000  0.5056980000000 1.0
C      1  0.4556380000000  0.5068260000000  0.5624750000000 1.0
C      1  0.5352380000000  0.5107340000000  0.4429290000000 1.0
C      1  0.4638600000000  0.5559520000000  0.4503390000000 1.0
C      1  0.5435630000000  0.5346900000000  0.5548660000000 1.0
C      1  0.5403700000000  0.5108710000000  0.5165410000000 1.0
C      1  0.4900020000000  0.4996330000000  0.5179870000000 1.0
C      1  0.4815520000000  0.4600730000000  0.5482090000000 1.0
C      1  0.5141290000000  0.5241680000000  0.5269250000000 1.0
C      1  0.4445790000000  0.4906230000000  0.4933820000000 1.0
C      1  0.4804040000000  0.4868820000000  0.5674050000000 1.0
C      1  0.5421330000000  0.5535020000000  0.4695690000000 1.0
C      1  0.4805990000000  0.5269950000000  0.5014400000000 1.0
C      1  0.4752320000000  0.4434870000000  0.4669140000000 1.0
C      1  0.5297720000000  0.4700250000000  0.5710220000000 1.0
C      1  0.4427330000000  0.5356810000000  0.4477210000000 1.0
C      1  0.4701110000000  0.5703860000000  0.5033180000000 1.0
C      1  0.5223610000000  0.4799340000000  0.4405410000000 1.0
C      1  0.4683640000000  0.4619960000000  0.4434740000000 1.0
C      1  0.5724910000000  0.4973420000000  0.4882580000000 1.0
C      1  0.4394070000000  0.5098870000000  0.4674830000000 1.0
C      1  0.5320040000000  0.5512080000000  0.5245750000000 1.0
C      1  0.5248870000000  0.4278730000000  0.4822040000000 1.0
C      1  0.5054570000000  0.5633510000000  0.5081200000000 1.0
C      1  0.5565620000000  0.4658870000000  0.5275350000000 1.0
C      1  0.5508120000000  0.4649000000000  0.4551730000000 1.0
C      1  0.4765950000000  0.5025790000000  0.4294510000000 1.0
C      1  0.5746430000000  0.4718910000000  0.5042360000000 1.0
C      1  0.4489700000000  0.4624840000000  0.5361980000000 1.0
C      1  0.4530090000000  0.5313640000000  0.4882030000000 1.0
C      1  0.5046900000000  0.4404600000000  0.4643380000000 1.0
C      1  0.5121200000000  0.4701120000000  0.4705820000000 1.0
C      1  0.5065340000000  0.5048100000000  0.5741380000000 1.0
C      1  0.5172680000000  0.4304510000000  0.5107410000000 1.0
C      1  0.4808350000000  0.5597290000000  0.4742770000000 1.0
C      1  0.5053170000000  0.5391830000000  0.4837830000000 1.0
C      1  0.4374300000000  0.5552060000000  0.4990880000000 1.0
C      1  0.5513930000000  0.4954360000000  0.4665960000000 1.0
C      1  0.4952900000000  0.4978500000000  0.4750320000000 1.0
C      1  0.4757480000000  0.5211130000000  0.5435270000000 1.0
C      1  0.4728970000000  0.4843430000000  0.4942510000000 1.0
C      1  0.4506370000000  0.4907490000000  0.4438220000000 1.0
C      1  0.4662330000000  0.5461710000000  0.5280700000000 1.0
C      1  0.5139930000000  0.4568510000000  0.5503730000000 1.0
C      1  0.4343090000000  0.5404890000000  0.5289530000000 1.0
C      1  0.5501860000000  0.4406790000000  0.4723910000000 1.0
C      1  0.5186970000000  0.5353700000000  0.4512530000000 1.0
C      1  0.5508910000000  0.5472790000000  0.4982910000000 1.0
C      1  0.4344930000000  0.5109960000000  0.5399770000000 1.0
C      1  0.4363410000000  0.4871360000000  0.5223410000000 1.0
C      1  0.5261090000000  0.5094210000000  0.4866930000000 1.0
C      1  0.4878110000000  0.4425210000000  0.5173310000000 1.0
C      1  0.5676100000000  0.5226290000000  0.5045380000000 1.0
C      1  0.5485000000000  0.4927920000000  0.5377050000000 1.0
C      1  0.5275340000000  0.4557770000000  0.5242620000000 1.0
END
