TITL C-3985252-168-10 4.00599542255409e-08 125000 -340.598415968558 0 0 60 (D3h) n - 1
REM
REM in /home/nfs/bkarasulu/CARBON/AIRSS/Generating-Clusters/TERSOFF/Higher-Symm/Only-C60
REM
REM
REM
REM
REM
REM ./C.cell (28575a23ae977d3b5fae324c64b13b57)
REM
REM compiler GCC version 9.2.1 20190827 (Red Hat 9.2.1-1)
REM options -cpp -mtune=generic -march=x86-64 -g -O0 -fpre-include=/usr/include/finclude/math-vector-fortran.h
REM seed 622818601 236065268 50907141 -1967330959 -914213455 1892512907 -957960671 -1713034119 -1707437753 -2089868085 1434829210 -1113442807 -898420719 -76715465 -1201909673 -330334870 326383414 -691575975 21489510 -1271782872 -1764152164 998714634 -1741262622 -1070943903 -1757629203 1701803507 -1915754569 966160387 -1592497814 192412707 -1411343205 -387202325 -2035045613
REM
CELL 1.54180   50.00000   50.00000   50.00000   90.00000   90.00000   90.00000
LATT -1
SFAC C  
C      1  0.4835110000000  0.4999010000000  0.5315100000000 1.0
C      1  0.4835110000000  0.4727610000000  0.4841590000000 1.0
C      1  0.4835110000000  0.5273380000000  0.4843310000000 1.0
C      1  0.5164890000000  0.4999010000000  0.5315100000000 1.0
C      1  0.5164890000000  0.4727610000000  0.4841590000000 1.0
C      1  0.5164890000000  0.5273380000000  0.4843310000000 1.0
C      1  0.4835110000000  0.4999010000000  0.4684900000000 1.0
C      1  0.4835110000000  0.4727610000000  0.5158410000000 1.0
C      1  0.4835110000000  0.5273380000000  0.5156690000000 1.0
C      1  0.5164890000000  0.4999010000000  0.4684900000000 1.0
C      1  0.5164890000000  0.4727610000000  0.5158410000000 1.0
C      1  0.5164890000000  0.5273380000000  0.5156690000000 1.0
C      1  0.4210590000000  0.5000030000000  0.5295910000000 1.0
C      1  0.4210590000000  0.4743730000000  0.4852070000000 1.0
C      1  0.4210590000000  0.5256250000000  0.4852030000000 1.0
C      1  0.5789410000000  0.5000030000000  0.5295910000000 1.0
C      1  0.5789410000000  0.4743730000000  0.4852070000000 1.0
C      1  0.5789410000000  0.5256250000000  0.4852030000000 1.0
C      1  0.4210590000000  0.5000030000000  0.4704090000000 1.0
C      1  0.4210590000000  0.4743730000000  0.5147930000000 1.0
C      1  0.4210590000000  0.5256250000000  0.5147970000000 1.0
C      1  0.5789410000000  0.5000030000000  0.4704090000000 1.0
C      1  0.5789410000000  0.4743730000000  0.5147930000000 1.0
C      1  0.5789410000000  0.5256250000000  0.5147970000000 1.0
C      1  0.4561210000000  0.4361080000000  0.4849650000000 1.0
C      1  0.4561210000000  0.5449660000000  0.4521850000000 1.0
C      1  0.4561210000000  0.5189260000000  0.5628490000000 1.0
C      1  0.5438790000000  0.4361080000000  0.4849650000000 1.0
C      1  0.5438790000000  0.5449660000000  0.4521850000000 1.0
C      1  0.5438790000000  0.5189260000000  0.5628490000000 1.0
C      1  0.4561210000000  0.4361080000000  0.5150350000000 1.0
C      1  0.4561210000000  0.5449660000000  0.5478150000000 1.0
C      1  0.4561210000000  0.5189260000000  0.4371510000000 1.0
C      1  0.5438790000000  0.4361080000000  0.5150350000000 1.0
C      1  0.5438790000000  0.5449660000000  0.5478150000000 1.0
C      1  0.5438790000000  0.5189260000000  0.4371510000000 1.0
C      1  0.5171530000000  0.5529580000000  0.5348360000000 1.0
C      1  0.5171530000000  0.4433520000000  0.5284450000000 1.0
C      1  0.5171530000000  0.5036900000000  0.4367190000000 1.0
C      1  0.4828470000000  0.5529580000000  0.5348360000000 1.0
C      1  0.4828470000000  0.4433520000000  0.5284450000000 1.0
C      1  0.4828470000000  0.5036900000000  0.4367190000000 1.0
C      1  0.5171530000000  0.5529580000000  0.4651640000000 1.0
C      1  0.5171530000000  0.4433520000000  0.4715550000000 1.0
C      1  0.5171530000000  0.5036900000000  0.5632810000000 1.0
C      1  0.4828470000000  0.5529580000000  0.4651640000000 1.0
C      1  0.4828470000000  0.4433520000000  0.4715550000000 1.0
C      1  0.4828470000000  0.5036900000000  0.5632810000000 1.0
C      1  0.5673680000000  0.4500080000000  0.4732940000000 1.0
C      1  0.5673680000000  0.5481240000000  0.4700580000000 1.0
C      1  0.5673680000000  0.5018680000000  0.5566470000000 1.0
C      1  0.4326320000000  0.4500080000000  0.4732940000000 1.0
C      1  0.4326320000000  0.5481240000000  0.4700580000000 1.0
C      1  0.4326320000000  0.5018680000000  0.5566470000000 1.0
C      1  0.5673680000000  0.4500080000000  0.5267060000000 1.0
C      1  0.5673680000000  0.5481240000000  0.5299420000000 1.0
C      1  0.5673680000000  0.5018680000000  0.4433530000000 1.0
C      1  0.4326320000000  0.4500080000000  0.5267060000000 1.0
C      1  0.4326320000000  0.5481240000000  0.5299420000000 1.0
C      1  0.4326320000000  0.5018680000000  0.4433530000000 1.0
END
