TITL C-3985252-168-316 0.0108817546607884 125000 -312.348198091482 0 0 60 (C2) n - 1
REM
REM in /home/nfs/bkarasulu/CARBON/AIRSS/Generating-Clusters/TERSOFF/Higher-Symm/Only-C60
REM
REM
REM
REM
REM
REM ./C.cell (28575a23ae977d3b5fae324c64b13b57)
REM
REM compiler GCC version 9.2.1 20190827 (Red Hat 9.2.1-1)
REM options -cpp -mtune=generic -march=x86-64 -g -O0 -fpre-include=/usr/include/finclude/math-vector-fortran.h
REM seed -276801674 -2035156174 -625047031 -1211789787 1576384802 607708402 1057574424 1936160505 -1106064660 -1321256841 1172102514 -693242662 -1145914266 1115836279 2090952593 1978581435 813159077 2008223850 285041634 1125399030 37504106 -1219050422 353681960 1727288187 969823185 695376669 -1987905970 694558121 -533613354 -519023276 1433092352 1066500753 -1180713694
REM
CELL 1.54180   50.00000   50.00000   50.00000   90.00000   90.00000   90.00000
LATT -1
SFAC C  
C      1  0.5024330000000  0.4330680000000  0.4858580000000 1.0
C      1  0.5024400000000  0.5669320000000  0.5141390000000 1.0
C      1  0.5483940000000  0.5552190000000  0.4952270000000 1.0
C      1  0.5484050000000  0.4447840000000  0.5047760000000 1.0
C      1  0.4849210000000  0.5476480000000  0.5342030000000 1.0
C      1  0.4849220000000  0.4523530000000  0.4657970000000 1.0
C      1  0.5022290000000  0.4748900000000  0.4834480000000 1.0
C      1  0.5022280000000  0.5251090000000  0.5165510000000 1.0
C      1  0.5199690000000  0.5326090000000  0.5722170000000 1.0
C      1  0.5199740000000  0.4673780000000  0.4277770000000 1.0
C      1  0.4502260000000  0.5355130000000  0.4651530000000 1.0
C      1  0.4502220000000  0.4644840000000  0.5348460000000 1.0
C      1  0.5270300000000  0.5098820000000  0.5284780000000 1.0
C      1  0.5270230000000  0.4900120000000  0.4715720000000 1.0
C      1  0.4892960000000  0.5137700000000  0.4933480000000 1.0
C      1  0.4893010000000  0.4862240000000  0.5066580000000 1.0
C      1  0.4828790000000  0.4971330000000  0.5560500000000 1.0
C      1  0.4828790000000  0.5028650000000  0.4439490000000 1.0
C      1  0.5014880000000  0.5915040000000  0.4708140000000 1.0
C      1  0.5014890000000  0.4084890000000  0.5291870000000 1.0
C      1  0.5306370000000  0.5573480000000  0.5194130000000 1.0
C      1  0.5306330000000  0.4426580000000  0.4805920000000 1.0
C      1  0.4397190000000  0.4814790000000  0.4720940000000 1.0
C      1  0.4397210000000  0.5185220000000  0.5279030000000 1.0
C      1  0.5511880000000  0.5030540000000  0.4850440000000 1.0
C      1  0.5511900000000  0.4969610000000  0.5149480000000 1.0
C      1  0.4976830000000  0.5519230000000  0.5617850000000 1.0
C      1  0.4976820000000  0.4480760000000  0.4382150000000 1.0
C      1  0.5422650000000  0.5167380000000  0.4271740000000 1.0
C      1  0.5422220000000  0.4833370000000  0.5727530000000 1.0
C      1  0.4651430000000  0.4730110000000  0.5585670000000 1.0
C      1  0.4651550000000  0.5269900000000  0.4414290000000 1.0
C      1  0.4992830000000  0.4909350000000  0.4223450000000 1.0
C      1  0.4992820000000  0.5090650000000  0.5776540000000 1.0
C      1  0.5493890000000  0.4682010000000  0.5235970000000 1.0
C      1  0.5494000000000  0.5317840000000  0.4764160000000 1.0
C      1  0.4687520000000  0.5199240000000  0.5428880000000 1.0
C      1  0.4687500000000  0.4800770000000  0.4571100000000 1.0
C      1  0.5826610000000  0.4961780000000  0.4842650000000 1.0
C      1  0.5826620000000  0.5038260000000  0.5157330000000 1.0
C      1  0.4553360000000  0.4513650000000  0.4845340000000 1.0
C      1  0.4553440000000  0.5486320000000  0.5154580000000 1.0
C      1  0.4325490000000  0.5145320000000  0.4749170000000 1.0
C      1  0.4325430000000  0.4854700000000  0.5250790000000 1.0
C      1  0.4915150000000  0.5668220000000  0.4847470000000 1.0
C      1  0.4915040000000  0.4331750000000  0.5152550000000 1.0
C      1  0.5023880000000  0.4843400000000  0.5357670000000 1.0
C      1  0.5023840000000  0.5156690000000  0.4642400000000 1.0
C      1  0.4957680000000  0.5468350000000  0.4619530000000 1.0
C      1  0.4957520000000  0.4531400000000  0.5380310000000 1.0
C      1  0.5420640000000  0.4883600000000  0.4191380000000 1.0
C      1  0.5421150000000  0.5116520000000  0.5809400000000 1.0
C      1  0.4616710000000  0.4457180000000  0.5133930000000 1.0
C      1  0.4616940000000  0.5542680000000  0.4866000000000 1.0
C      1  0.5316760000000  0.4728210000000  0.5474000000000 1.0
C      1  0.5316100000000  0.5272430000000  0.4525740000000 1.0
C      1  0.4178530000000  0.4830420000000  0.4984370000000 1.0
C      1  0.4178550000000  0.5169650000000  0.5015600000000 1.0
C      1  0.5336050000000  0.4641990000000  0.4574760000000 1.0
C      1  0.5336060000000  0.5358030000000  0.5425260000000 1.0
END
