TITL C-3985245-9316-413 -0.00126814158110798 125000 -326.874479560773 0 0 60 (D2) n - 1
REM
REM in /home/nfs/bkarasulu/CARBON/AIRSS/Generating-Clusters/TERSOFF/Higher-Symm/Only-C60
REM
REM
REM
REM
REM
REM ./C.cell (28575a23ae977d3b5fae324c64b13b57)
REM
REM compiler GCC version 9.2.1 20190827 (Red Hat 9.2.1-1)
REM options -cpp -mtune=generic -march=x86-64 -g -O0 -fpre-include=/usr/include/finclude/math-vector-fortran.h
REM seed 731030157 -1052248195 -947943540 1149852057 -2093533670 -975966357 1150263889 1430018268 728683409 -1889729983 -413238870 -1273676526 -1188845169 -540564296 288871342 1356732386 -1190224849 -1625864531 353677947 1529817531 -1796126843 715720260 -1099225820 -1036583400 1639170392 217811937 -1476597168 -1905497376 1782237295 1966176303 1888820441 -933074091 913368836
REM
CELL 1.54180   50.00000   50.00000   50.00000   90.00000   90.00000   90.00000
LATT -1
SFAC C  
C      1  0.4642310000000  0.5226900000000  0.4844210000000 1.0
C      1  0.5357660000000  0.5226960000000  0.5155830000000 1.0
C      1  0.5357700000000  0.4773030000000  0.4844180000000 1.0
C      1  0.4642300000000  0.4773040000000  0.5155850000000 1.0
C      1  0.4823930000000  0.5550450000000  0.4538120000000 1.0
C      1  0.5176060000000  0.5550300000000  0.5461870000000 1.0
C      1  0.5176080000000  0.4449480000000  0.4538070000000 1.0
C      1  0.4823930000000  0.4449740000000  0.5461850000000 1.0
C      1  0.4439850000000  0.5219120000000  0.5309160000000 1.0
C      1  0.5560130000000  0.5219140000000  0.4690860000000 1.0
C      1  0.5560130000000  0.4780830000000  0.5309180000000 1.0
C      1  0.4439880000000  0.4780760000000  0.4690800000000 1.0
C      1  0.4739490000000  0.4708030000000  0.4683370000000 1.0
C      1  0.5260470000000  0.4708040000000  0.5316610000000 1.0
C      1  0.5260490000000  0.5291980000000  0.4683380000000 1.0
C      1  0.4739520000000  0.5291960000000  0.5316630000000 1.0
C      1  0.4928780000000  0.5126070000000  0.4163710000000 1.0
C      1  0.5071300000000  0.5126110000000  0.5836310000000 1.0
C      1  0.5071240000000  0.4874040000000  0.4163700000000 1.0
C      1  0.4928690000000  0.4873860000000  0.5836290000000 1.0
C      1  0.5680300000000  0.5048650000000  0.4477250000000 1.0
C      1  0.4319710000000  0.5048630000000  0.5522720000000 1.0
C      1  0.4319700000000  0.4951560000000  0.4477210000000 1.0
C      1  0.5680290000000  0.4951400000000  0.5522760000000 1.0
C      1  0.5135940000000  0.5487670000000  0.4503230000000 1.0
C      1  0.4864060000000  0.5487650000000  0.5496800000000 1.0
C      1  0.4864140000000  0.4512420000000  0.4503210000000 1.0
C      1  0.5135950000000  0.4512320000000  0.5496770000000 1.0
C      1  0.5135730000000  0.5654540000000  0.5117960000000 1.0
C      1  0.4864260000000  0.5654570000000  0.4882150000000 1.0
C      1  0.4864250000000  0.4345460000000  0.5117950000000 1.0
C      1  0.5135740000000  0.4345430000000  0.4882150000000 1.0
C      1  0.4922030000000  0.4697910000000  0.6067120000000 1.0
C      1  0.5077980000000  0.4697830000000  0.3932860000000 1.0
C      1  0.5077950000000  0.5302060000000  0.6067130000000 1.0
C      1  0.4922070000000  0.5302150000000  0.3932870000000 1.0
C      1  0.5167220000000  0.4792110000000  0.4425060000000 1.0
C      1  0.4832780000000  0.4791920000000  0.5574930000000 1.0
C      1  0.4832730000000  0.5207900000000  0.4425100000000 1.0
C      1  0.5167210000000  0.5208030000000  0.5574930000000 1.0
C      1  0.5641610000000  0.5246060000000  0.5547350000000 1.0
C      1  0.4358410000000  0.5245930000000  0.4452750000000 1.0
C      1  0.4358350000000  0.4753850000000  0.5547380000000 1.0
C      1  0.5641620000000  0.4753890000000  0.4452660000000 1.0
C      1  0.4407400000000  0.4858550000000  0.4978230000000 1.0
C      1  0.5592590000000  0.4858550000000  0.5021760000000 1.0
C      1  0.5592590000000  0.5141480000000  0.4978240000000 1.0
C      1  0.4407430000000  0.5141480000000  0.5021780000000 1.0
C      1  0.4838270000000  0.4994250000000  0.5327600000000 1.0
C      1  0.5161730000000  0.4994260000000  0.4672380000000 1.0
C      1  0.5161720000000  0.5005740000000  0.5327610000000 1.0
C      1  0.4838300000000  0.5005780000000  0.4672370000000 1.0
C      1  0.4831580000000  0.5360620000000  0.5027230000000 1.0
C      1  0.5168410000000  0.5360620000000  0.4972790000000 1.0
C      1  0.5168410000000  0.4639380000000  0.5027210000000 1.0
C      1  0.4831610000000  0.4639360000000  0.4972750000000 1.0
C      1  0.4529270000000  0.4591270000000  0.5367280000000 1.0
C      1  0.5470690000000  0.4591310000000  0.4632610000000 1.0
C      1  0.5470720000000  0.5408740000000  0.5367390000000 1.0
C      1  0.4529300000000  0.5408810000000  0.4632490000000 1.0
END
