TITL C-3985247-764-125 -0.000683383302339318 125000 -331.046122391335 0 0 60 (C1) n - 1
REM
REM in /home/nfs/bkarasulu/CARBON/AIRSS/Generating-Clusters/TERSOFF/Higher-Symm/Only-C60
REM
REM
REM
REM
REM
REM ./C.cell (28575a23ae977d3b5fae324c64b13b57)
REM
REM compiler GCC version 9.2.1 20190827 (Red Hat 9.2.1-1)
REM options -cpp -mtune=generic -march=x86-64 -g -O0 -fpre-include=/usr/include/finclude/math-vector-fortran.h
REM seed -1792066317 -690462771 854635083 1658041904 312702266 -1874448926 887906656 146112886 -746722783 -254776552 1206851517 -383872048 2072170478 -204549040 -916699991 1658246388 1717251404 636933417 1907204521 250911806 1235324967 888410298 1872685673 -2100690788 -2135915691 9463290 1838199250 1938068226 -470530637 -594983154 -335673100 288991791 -1401419305
REM
CELL 1.54180   50.00000   50.00000   50.00000   90.00000   90.00000   90.00000
LATT -1
SFAC C  
C      1  0.4962420000000  0.4402380000000  0.5206520000000 1.0
C      1  0.4570110000000  0.5293240000000  0.5239520000000 1.0
C      1  0.5453010000000  0.5250230000000  0.5243060000000 1.0
C      1  0.5494340000000  0.5095170000000  0.4779320000000 1.0
C      1  0.4796410000000  0.4467080000000  0.4750780000000 1.0
C      1  0.4660480000000  0.5394010000000  0.4812050000000 1.0
C      1  0.5045770000000  0.5351900000000  0.3990500000000 1.0
C      1  0.5239290000000  0.4854380000000  0.3947540000000 1.0
C      1  0.4711740000000  0.4938480000000  0.3950100000000 1.0
C      1  0.4734020000000  0.4369880000000  0.5020720000000 1.0
C      1  0.4627400000000  0.5524420000000  0.5068460000000 1.0
C      1  0.5604570000000  0.5090770000000  0.5048150000000 1.0
C      1  0.4877260000000  0.4737550000000  0.4378580000000 1.0
C      1  0.4825680000000  0.5244620000000  0.4429270000000 1.0
C      1  0.5288160000000  0.5043930000000  0.4408440000000 1.0
C      1  0.5021950000000  0.5440760000000  0.4266600000000 1.0
C      1  0.5346710000000  0.4794470000000  0.4212430000000 1.0
C      1  0.4621350000000  0.4845970000000  0.4212240000000 1.0
C      1  0.4378560000000  0.4675580000000  0.4835580000000 1.0
C      1  0.5020200000000  0.5714820000000  0.4862840000000 1.0
C      1  0.5584490000000  0.4640040000000  0.4818420000000 1.0
C      1  0.4562870000000  0.5064610000000  0.4429500000000 1.0
C      1  0.5254460000000  0.5368030000000  0.4466590000000 1.0
C      1  0.5175890000000  0.4607050000000  0.4396510000000 1.0
C      1  0.4862910000000  0.5699070000000  0.5118730000000 1.0
C      1  0.5569590000000  0.4797570000000  0.5066320000000 1.0
C      1  0.4526740000000  0.4570220000000  0.5067710000000 1.0
C      1  0.4684630000000  0.4758950000000  0.5482230000000 1.0
C      1  0.4963480000000  0.5428420000000  0.5548810000000 1.0
C      1  0.5328870000000  0.4816850000000  0.5477080000000 1.0
C      1  0.4905750000000  0.4547250000000  0.5492850000000 1.0
C      1  0.4706360000000  0.5271610000000  0.5506690000000 1.0
C      1  0.5371440000000  0.5112500000000  0.5499090000000 1.0
C      1  0.4669890000000  0.4800840000000  0.5194130000000 1.0
C      1  0.5060270000000  0.5577870000000  0.5308820000000 1.0
C      1  0.5307100000000  0.4735660000000  0.5193880000000 1.0
C      1  0.4526940000000  0.5037840000000  0.5078040000000 1.0
C      1  0.5272100000000  0.5453860000000  0.5128490000000 1.0
C      1  0.5214040000000  0.4482480000000  0.5052150000000 1.0
C      1  0.5112990000000  0.4719980000000  0.5645030000000 1.0
C      1  0.4730670000000  0.5001840000000  0.5643180000000 1.0
C      1  0.5152010000000  0.5223460000000  0.5676330000000 1.0
C      1  0.5175450000000  0.5453500000000  0.4781870000000 1.0
C      1  0.5299530000000  0.4565470000000  0.4709780000000 1.0
C      1  0.4495360000000  0.4947260000000  0.4729830000000 1.0
C      1  0.4915890000000  0.5257200000000  0.4726140000000 1.0
C      1  0.5269790000000  0.4908980000000  0.4686420000000 1.0
C      1  0.4788290000000  0.4759730000000  0.4668560000000 1.0
C      1  0.4992880000000  0.4969980000000  0.5804530000000 1.0
C      1  0.5012360000000  0.5145340000000  0.6290430000000 1.0
C      1  0.4995420000000  0.4889780000000  0.5099810000000 1.0
C      1  0.5029900000000  0.5135770000000  0.5255800000000 1.0
C      1  0.4998300000000  0.5021620000000  0.4269180000000 1.0
C      1  0.4999840000000  0.5053280000000  0.3906030000000 1.0
C      1  0.4919020000000  0.4897030000000  0.3404210000000 1.0
C      1  0.4971240000000  0.4936050000000  0.6095380000000 1.0
C      1  0.5011250000000  0.5091140000000  0.3598000000000 1.0
C      1  0.4990360000000  0.4956930000000  0.4804540000000 1.0
C      1  0.5062910000000  0.5100810000000  0.6572540000000 1.0
C      1  0.4880790000000  0.5171660000000  0.6786270000000 1.0
END
