TITL C-3985245-9316-513 0.00244045405130287 125000 -313.918194974789 0 0 60 (C1) n - 1
REM
REM in /home/nfs/bkarasulu/CARBON/AIRSS/Generating-Clusters/TERSOFF/Higher-Symm/Only-C60
REM
REM
REM
REM
REM
REM ./C.cell (28575a23ae977d3b5fae324c64b13b57)
REM
REM compiler GCC version 9.2.1 20190827 (Red Hat 9.2.1-1)
REM options -cpp -mtune=generic -march=x86-64 -g -O0 -fpre-include=/usr/include/finclude/math-vector-fortran.h
REM seed -1614054777 1004340907 -194479223 1122519051 1095661203 -2013456277 -1442993622 915270896 -1467868641 -1108082823 -1471636188 -574226625 650674098 300282496 -1249225232 -224167467 -1023947442 -893711659 424643242 -1973604841 1817743874 -1594771827 1394181499 -1556074629 -78593284 -985099514 -208877329 731098335 131252136 301917595 314811005 -1495294114 -608769276
REM
CELL 1.54180   50.00000   50.00000   50.00000   90.00000   90.00000   90.00000
LATT -1
SFAC C  
C      1  0.5187930000000  0.5196800000000  0.5313680000000 1.0
C      1  0.5194330000000  0.5169470000000  0.4670670000000 1.0
C      1  0.5190510000000  0.4630490000000  0.5012170000000 1.0
C      1  0.4815270000000  0.5254350000000  0.5020470000000 1.0
C      1  0.4803870000000  0.4893000000000  0.4771740000000 1.0
C      1  0.4802180000000  0.4854480000000  0.5207630000000 1.0
C      1  0.4946460000000  0.5120610000000  0.4335750000000 1.0
C      1  0.4947190000000  0.4366410000000  0.5229530000000 1.0
C      1  0.4944980000000  0.5517830000000  0.5432510000000 1.0
C      1  0.4667340000000  0.4941330000000  0.5691100000000 1.0
C      1  0.4676090000000  0.5661100000000  0.4697470000000 1.0
C      1  0.4668820000000  0.4433190000000  0.4599990000000 1.0
C      1  0.4770190000000  0.5300110000000  0.5318000000000 1.0
C      1  0.4772550000000  0.5128630000000  0.4580060000000 1.0
C      1  0.4770820000000  0.4568320000000  0.5097560000000 1.0
C      1  0.4952580000000  0.5022620000000  0.5728410000000 1.0
C      1  0.4959940000000  0.5616070000000  0.4621360000000 1.0
C      1  0.4953750000000  0.4359260000000  0.4650820000000 1.0
C      1  0.5014450000000  0.4681080000000  0.4775460000000 1.0
C      1  0.5012320000000  0.4965420000000  0.5388420000000 1.0
C      1  0.5023140000000  0.5352470000000  0.4831000000000 1.0
C      1  0.5414190000000  0.5124490000000  0.5659490000000 1.0
C      1  0.5416190000000  0.5509270000000  0.4563220000000 1.0
C      1  0.5415250000000  0.4366820000000  0.4775580000000 1.0
C      1  0.5584960000000  0.5318400000000  0.4716220000000 1.0
C      1  0.5582750000000  0.4594460000000  0.4866420000000 1.0
C      1  0.5580860000000  0.5087720000000  0.5416970000000 1.0
C      1  0.4516700000000  0.4512510000000  0.4895350000000 1.0
C      1  0.4510870000000  0.5141650000000  0.5437710000000 1.0
C      1  0.4529370000000  0.5336390000000  0.4642930000000 1.0
C      1  0.4693410000000  0.5677740000000  0.5020370000000 1.0
C      1  0.4681170000000  0.4694330000000  0.4422990000000 1.0
C      1  0.4689320000000  0.4654240000000  0.5560100000000 1.0
C      1  0.5216540000000  0.5298880000000  0.4349080000000 1.0
C      1  0.5213730000000  0.4287880000000  0.5063850000000 1.0
C      1  0.5212490000000  0.5413850000000  0.5584500000000 1.0
C      1  0.4355990000000  0.4679110000000  0.5115820000000 1.0
C      1  0.4338620000000  0.5184120000000  0.5126960000000 1.0
C      1  0.4353530000000  0.5056800000000  0.4789880000000 1.0
C      1  0.5446140000000  0.5158470000000  0.5141270000000 1.0
C      1  0.5452860000000  0.5040740000000  0.4790350000000 1.0
C      1  0.5449070000000  0.4799150000000  0.5066370000000 1.0
C      1  0.5235640000000  0.5701090000000  0.4732710000000 1.0
C      1  0.5232080000000  0.4420690000000  0.4528440000000 1.0
C      1  0.5231590000000  0.4883840000000  0.5737810000000 1.0
C      1  0.4512770000000  0.4823200000000  0.5319950000000 1.0
C      1  0.4538640000000  0.5382090000000  0.4977490000000 1.0
C      1  0.4510970000000  0.4800260000000  0.4727110000000 1.0
C      1  0.5233370000000  0.4694190000000  0.4417570000000 1.0
C      1  0.5233930000000  0.4651110000000  0.5556000000000 1.0
C      1  0.5236160000000  0.5657840000000  0.5024800000000 1.0
C      1  0.4967570000000  0.5677710000000  0.5175820000000 1.0
C      1  0.4960780000000  0.4819430000000  0.4333900000000 1.0
C      1  0.4964610000000  0.4516050000000  0.5491830000000 1.0
C      1  0.5017420000000  0.5534680000000  0.4345760000000 1.0
C      1  0.5012870000000  0.4165760000000  0.4863370000000 1.0
C      1  0.5012490000000  0.5302460000000  0.5791020000000 1.0
C      1  0.5456820000000  0.5482860000000  0.5126600000000 1.0
C      1  0.5457540000000  0.4867910000000  0.4515340000000 1.0
C      1  0.5456000000000  0.4648750000000  0.5355290000000 1.0
END
