TITL C-3985244-725-392 -0.000135925427862229 125000 -349.886317306097 0 0 60 (C1) n - 1
REM
REM in /home/nfs/bkarasulu/CARBON/AIRSS/Generating-Clusters/TERSOFF/Higher-Symm/Only-C60
REM
REM
REM
REM
REM
REM ./C.cell (28575a23ae977d3b5fae324c64b13b57)
REM
REM compiler GCC version 9.2.1 20190827 (Red Hat 9.2.1-1)
REM options -cpp -mtune=generic -march=x86-64 -g -O0 -fpre-include=/usr/include/finclude/math-vector-fortran.h
REM seed 480391533 -298673816 863019173 -1865539739 -684825008 1739471034 401557707 -1086866682 1039967365 1038457620 156445294 1926908703 -765355564 571891250 -431104972 107374173 1981071346 -686084969 1571818455 -1851752341 -1153346291 -323392566 1125220830 -1090113447 -1013639475 -866581172 1756555699 -324465939 466757902 190882734 -581857473 1668034678 450768906
REM
CELL 1.54180   50.00000   50.00000   50.00000   90.00000   90.00000   90.00000
LATT -1
SFAC C  
C      1  0.5430090000000  0.4707710000000  0.4497420000000 1.0
C      1  0.4866770000000  0.4508880000000  0.4496040000000 1.0
C      1  0.4491510000000  0.4985490000000  0.4464930000000 1.0
C      1  0.4830690000000  0.5486530000000  0.4491700000000 1.0
C      1  0.5406610000000  0.5319430000000  0.4510820000000 1.0
C      1  0.5570300000000  0.5062290000000  0.5669260000000 1.0
C      1  0.5335330000000  0.4482480000000  0.5505840000000 1.0
C      1  0.4576160000000  0.4633860000000  0.5673350000000 1.0
C      1  0.4516540000000  0.5286210000000  0.5670500000000 1.0
C      1  0.5041090000000  0.5609080000000  0.5510820000000 1.0
C      1  0.5224360000000  0.4852100000000  0.4328200000000 1.0
C      1  0.4938140000000  0.4747830000000  0.4320180000000 1.0
C      1  0.4750740000000  0.4994810000000  0.4309840000000 1.0
C      1  0.4924150000000  0.5251510000000  0.4320660000000 1.0
C      1  0.5217240000000  0.5164790000000  0.4330160000000 1.0
C      1  0.5328570000000  0.4356590000000  0.5212060000000 1.0
C      1  0.4413960000000  0.4575400000000  0.5439400000000 1.0
C      1  0.4388810000000  0.5387370000000  0.5431010000000 1.0
C      1  0.5100050000000  0.5707320000000  0.5216050000000 1.0
C      1  0.5737650000000  0.5010390000000  0.5439290000000 1.0
C      1  0.4309300000000  0.4898950000000  0.5059840000000 1.0
C      1  0.4625560000000  0.5614650000000  0.5051310000000 1.0
C      1  0.5523580000000  0.5443240000000  0.5085980000000 1.0
C      1  0.5672170000000  0.4689720000000  0.5053220000000 1.0
C      1  0.4830660000000  0.4328700000000  0.5073880000000 1.0
C      1  0.4424060000000  0.4719550000000  0.4556850000000 1.0
C      1  0.4552470000000  0.5461040000000  0.4571230000000 1.0
C      1  0.5293630000000  0.5564300000000  0.4626310000000 1.0
C      1  0.5638140000000  0.4888690000000  0.4583480000000 1.0
C      1  0.5096840000000  0.4371140000000  0.4614450000000 1.0
C      1  0.5057330000000  0.5297560000000  0.5603930000000 1.0
C      1  0.5280430000000  0.5032790000000  0.5615890000000 1.0
C      1  0.5140640000000  0.4732600000000  0.5606930000000 1.0
C      1  0.4807660000000  0.4820980000000  0.5629030000000 1.0
C      1  0.4775400000000  0.5146250000000  0.5622140000000 1.0
C      1  0.5599690000000  0.4953920000000  0.5175560000000 1.0
C      1  0.5059400000000  0.4467780000000  0.5177470000000 1.0
C      1  0.4500300000000  0.4695520000000  0.5173710000000 1.0
C      1  0.4535740000000  0.5350350000000  0.5168150000000 1.0
C      1  0.5249450000000  0.5457530000000  0.5169420000000 1.0
C      1  0.5477640000000  0.4481670000000  0.4979480000000 1.0
C      1  0.4603530000000  0.4481360000000  0.4975720000000 1.0
C      1  0.4386550000000  0.5170100000000  0.4970350000000 1.0
C      1  0.4904900000000  0.5682410000000  0.4982990000000 1.0
C      1  0.5630240000000  0.5193650000000  0.4985600000000 1.0
C      1  0.5304420000000  0.4548040000000  0.4730890000000 1.0
C      1  0.4643660000000  0.4583230000000  0.4692950000000 1.0
C      1  0.4493350000000  0.5197480000000  0.4684240000000 1.0
C      1  0.5017180000000  0.5540630000000  0.4731000000000 1.0
C      1  0.5531220000000  0.5127960000000  0.4711560000000 1.0
C      1  0.5245680000000  0.5061080000000  0.4825260000000 1.0
C      1  0.5136010000000  0.4784020000000  0.4827630000000 1.0
C      1  0.4833260000000  0.4803850000000  0.4806030000000 1.0
C      1  0.4762650000000  0.5089390000000  0.4801750000000 1.0
C      1  0.5008950000000  0.5250290000000  0.4821820000000 1.0
C      1  0.5035110000000  0.4731840000000  0.5287450000000 1.0
C      1  0.4749620000000  0.4852220000000  0.5290670000000 1.0
C      1  0.4777440000000  0.5170210000000  0.5278320000000 1.0
C      1  0.5115410000000  0.5224630000000  0.5280570000000 1.0
C      1  0.5282020000000  0.4960610000000  0.5279390000000 1.0
END
