TITL C-3985257-5396-33 0.00432430994573922 125000 -336.885841799457 0 0 60 (S12) n - 1
REM
REM in /home/nfs/bkarasulu/CARBON/AIRSS/Generating-Clusters/TERSOFF/Higher-Symm/Only-C60
REM
REM
REM
REM
REM
REM ./C.cell (28575a23ae977d3b5fae324c64b13b57)
REM
REM compiler GCC version 9.2.1 20190827 (Red Hat 9.2.1-1)
REM options -cpp -mtune=generic -march=x86-64 -g -O0 -fpre-include=/usr/include/finclude/math-vector-fortran.h
REM seed -1941695029 -1133581518 -481222716 -29300447 1311611580 -1393462518 563108323 894375437 1132679735 -1623478629 1095246653 -247898455 951834144 -1669593001 1484930148 1193430271 1744409124 981778270 -1441820274 321159098 -2109141320 1931658863 484429593 1192663544 -1792057022 -749896036 1281678129 239835738 1158941546 -2129943149 -2142003966 -609253842 1443256784
REM
CELL 1.54180   50.00000   50.00000   50.00000   90.00000   90.00000   90.00000
LATT -1
SFAC C  
C      1  0.5063500000000  0.5728000000000  0.5254050000000 1.0
C      1  0.4936470000000  0.5503370000000  0.5583980000000 1.0
C      1  0.5063540000000  0.5143960000000  0.5757420000000 1.0
C      1  0.4936500000000  0.4745960000000  0.5728000000000 1.0
C      1  0.5063530000000  0.4416020000000  0.5503380000000 1.0
C      1  0.4936460000000  0.4242580000000  0.5143960000000 1.0
C      1  0.5063510000000  0.4272000000000  0.4745950000000 1.0
C      1  0.4936470000000  0.4496620000000  0.4416020000000 1.0
C      1  0.5063540000000  0.4856040000000  0.4242580000000 1.0
C      1  0.4936490000000  0.5254040000000  0.4272000000000 1.0
C      1  0.5063530000000  0.5583980000000  0.4496620000000 1.0
C      1  0.4936460000000  0.5757420000000  0.4856040000000 1.0
C      1  0.5194760000000  0.4849220000000  0.4737340000000 1.0
C      1  0.4805450000000  0.5001120000000  0.4697350000000 1.0
C      1  0.5194730000000  0.5152590000000  0.4737790000000 1.0
C      1  0.4805270000000  0.5262740000000  0.4849170000000 1.0
C      1  0.5194610000000  0.5302640000000  0.5001010000000 1.0
C      1  0.4805230000000  0.5262100000000  0.5152480000000 1.0
C      1  0.5194780000000  0.5150840000000  0.5262630000000 1.0
C      1  0.4805430000000  0.4998950000000  0.5302470000000 1.0
C      1  0.5194900000000  0.4847310000000  0.5262000000000 1.0
C      1  0.4805350000000  0.4737310000000  0.5150690000000 1.0
C      1  0.5194580000000  0.4697320000000  0.4998870000000 1.0
C      1  0.4805220000000  0.4737830000000  0.4847440000000 1.0
C      1  0.4491660000000  0.4479000000000  0.4742670000000 1.0
C      1  0.5508130000000  0.4677560000000  0.4516760000000 1.0
C      1  0.4492180000000  0.4962480000000  0.4420480000000 1.0
C      1  0.5508300000000  0.5257310000000  0.4479030000000 1.0
C      1  0.4491960000000  0.5483170000000  0.4677600000000 1.0
C      1  0.5507780000000  0.5579490000000  0.4962480000000 1.0
C      1  0.4491680000000  0.5520980000000  0.5257320000000 1.0
C      1  0.5508130000000  0.5322450000000  0.5483240000000 1.0
C      1  0.4491710000000  0.5037590000000  0.5579940000000 1.0
C      1  0.5508470000000  0.4742630000000  0.5521110000000 1.0
C      1  0.4491960000000  0.4516820000000  0.5322400000000 1.0
C      1  0.5507800000000  0.4420490000000  0.5037520000000 1.0
C      1  0.5619700000000  0.4698570000000  0.5020410000000 1.0
C      1  0.4380370000000  0.4728710000000  0.4866950000000 1.0
C      1  0.5619720000000  0.4831640000000  0.4749150000000 1.0
C      1  0.4380300000000  0.4979600000000  0.4698570000000 1.0
C      1  0.5619640000000  0.5133050000000  0.4728710000000 1.0
C      1  0.4380270000000  0.5250860000000  0.4831640000000 1.0
C      1  0.5619690000000  0.5301430000000  0.4979600000000 1.0
C      1  0.4380370000000  0.5271290000000  0.5133060000000 1.0
C      1  0.5619760000000  0.5168380000000  0.5250880000000 1.0
C      1  0.4380220000000  0.5020420000000  0.5301500000000 1.0
C      1  0.5619660000000  0.4866950000000  0.5271320000000 1.0
C      1  0.4380270000000  0.4749130000000  0.5168380000000 1.0
C      1  0.4799810000000  0.5002700000000  0.4363410000000 1.0
C      1  0.5200020000000  0.5320700000000  0.4450180000000 1.0
C      1  0.4799910000000  0.5552770000000  0.4684290000000 1.0
C      1  0.5200180000000  0.5636590000000  0.5002700000000 1.0
C      1  0.4799990000000  0.5549800000000  0.5320710000000 1.0
C      1  0.5200140000000  0.5315710000000  0.5552770000000 1.0
C      1  0.4799710000000  0.4997310000000  0.5636590000000 1.0
C      1  0.5200050000000  0.4679290000000  0.5549810000000 1.0
C      1  0.4799900000000  0.4447250000000  0.5315730000000 1.0
C      1  0.5200190000000  0.4363410000000  0.4997300000000 1.0
C      1  0.4799990000000  0.4450190000000  0.4679300000000 1.0
C      1  0.5200080000000  0.4684290000000  0.4447230000000 1.0
END
