TITL C-3985245-9316-971 0.00886784272297702 125000 -287.473749744235 0 0 60 (C5) n - 1
REM
REM in /home/nfs/bkarasulu/CARBON/AIRSS/Generating-Clusters/TERSOFF/Higher-Symm/Only-C60
REM
REM
REM
REM
REM
REM ./C.cell (28575a23ae977d3b5fae324c64b13b57)
REM
REM compiler GCC version 9.2.1 20190827 (Red Hat 9.2.1-1)
REM options -cpp -mtune=generic -march=x86-64 -g -O0 -fpre-include=/usr/include/finclude/math-vector-fortran.h
REM seed -1988630167 136860732 -1987425460 -753467712 128799026 1462809196 -1398214679 679503875 2090963903 1601883737 425670482 -567225046 -90180213 -1501777254 -240248072 -1339346500 843840234 -995249305 1326650686 1804306922 -2145860113 1553159460 -724482244 1156208617 452146398 1762295823 2116467658 898257759 -1763868554 -1081863753 -1013976602 -1240398516 1584434911
REM
CELL 1.54180   50.00000   50.00000   50.00000   90.00000   90.00000   90.00000
LATT -1
SFAC C  
C      1  0.5102510000000  0.5424020000000  0.4711740000000 1.0
C      1  0.5305650000000  0.5424010000000  0.5008180000000 1.0
C      1  0.5086530000000  0.5424140000000  0.5293360000000 1.0
C      1  0.4747710000000  0.5424180000000  0.5172990000000 1.0
C      1  0.4757540000000  0.5424140000000  0.4813540000000 1.0
C      1  0.4380510000000  0.4962100000000  0.4936330000000 1.0
C      1  0.4869230000000  0.4962130000000  0.4391300000000 1.0
C      1  0.5539080000000  0.4962240000000  0.4686820000000 1.0
C      1  0.5463810000000  0.4961870000000  0.5415820000000 1.0
C      1  0.4747970000000  0.4962090000000  0.5569590000000 1.0
C      1  0.4555860000000  0.5193090000000  0.5585710000000 1.0
C      1  0.4305710000000  0.5193040000000  0.4758600000000 1.0
C      1  0.5015050000000  0.5193060000000  0.4265110000000 1.0
C      1  0.5703700000000  0.5193290000000  0.4787160000000 1.0
C      1  0.5419760000000  0.5193000000000  0.5603360000000 1.0
C      1  0.4428300000000  0.5428020000000  0.4891920000000 1.0
C      1  0.4926190000000  0.5428070000000  0.4422890000000 1.0
C      1  0.5525960000000  0.5428090000000  0.4751330000000 1.0
C      1  0.5398930000000  0.5427930000000  0.5423420000000 1.0
C      1  0.4720520000000  0.5428060000000  0.5510290000000 1.0
C      1  0.5078000000000  0.4731200000000  0.4440530000000 1.0
C      1  0.5556410000000  0.4731560000000  0.4900910000000 1.0
C      1  0.5266010000000  0.4730910000000  0.5499020000000 1.0
C      1  0.4607680000000  0.4731040000000  0.5407300000000 1.0
C      1  0.4491660000000  0.4731110000000  0.4752870000000 1.0
C      1  0.5683810000000  0.4790860000000  0.5194660000000 1.0
C      1  0.5025890000000  0.4790900000000  0.5710720000000 1.0
C      1  0.4332170000000  0.4790850000000  0.5244270000000 1.0
C      1  0.4561370000000  0.4790900000000  0.4440390000000 1.0
C      1  0.5396580000000  0.4790820000000  0.4409610000000 1.0
C      1  0.5742130000000  0.5134800000000  0.5095170000000 1.0
C      1  0.5138710000000  0.5134770000000  0.5735460000000 1.0
C      1  0.4343520000000  0.5134770000000  0.5359150000000 1.0
C      1  0.4455680000000  0.5134810000000  0.4486750000000 1.0
C      1  0.5320060000000  0.5134800000000  0.4323290000000 1.0
C      1  0.5027140000000  0.5095710000000  0.5410740000000 1.0
C      1  0.4617770000000  0.5095640000000  0.5152600000000 1.0
C      1  0.4737320000000  0.5095440000000  0.4683740000000 1.0
C      1  0.5219720000000  0.5095480000000  0.4652290000000 1.0
C      1  0.5398640000000  0.5095140000000  0.5101300000000 1.0
C      1  0.5061460000000  0.4837710000000  0.4745700000000 1.0
C      1  0.5260800000000  0.4837330000000  0.4979820000000 1.0
C      1  0.5099360000000  0.4837010000000  0.5242500000000 1.0
C      1  0.4800180000000  0.4837010000000  0.5169670000000 1.0
C      1  0.4777230000000  0.4837080000000  0.4862570000000 1.0
C      1  0.5423180000000  0.4552390000000  0.4680010000000 1.0
C      1  0.5435010000000  0.4552260000000  0.5303600000000 1.0
C      1  0.4845630000000  0.4552210000000  0.5507580000000 1.0
C      1  0.4469570000000  0.4552160000000  0.5010030000000 1.0
C      1  0.4826570000000  0.4552150000000  0.4498650000000 1.0
C      1  0.5613710000000  0.5440950000000  0.5198940000000 1.0
C      1  0.5000300000000  0.5441240000000  0.5645420000000 1.0
C      1  0.4386320000000  0.5441090000000  0.5199760000000 1.0
C      1  0.4620480000000  0.5440990000000  0.4478210000000 1.0
C      1  0.5379280000000  0.5440910000000  0.4477440000000 1.0
C      1  0.5218160000000  0.4409940000000  0.5143680000000 1.0
C      1  0.4930740000000  0.4409890000000  0.5251870000000 1.0
C      1  0.4739050000000  0.4409830000000  0.5011940000000 1.0
C      1  0.4908040000000  0.4409850000000  0.4755510000000 1.0
C      1  0.5204140000000  0.4409940000000  0.4836920000000 1.0
END
