TITL C-3985253-1688-129 1.91605719633635e-07 125000 -346.797134875609 0 0 60 (C3) n - 1
REM
REM in /home/nfs/bkarasulu/CARBON/AIRSS/Generating-Clusters/TERSOFF/Higher-Symm/Only-C60
REM
REM
REM
REM
REM
REM ./C.cell (28575a23ae977d3b5fae324c64b13b57)
REM
REM compiler GCC version 9.2.1 20190827 (Red Hat 9.2.1-1)
REM options -cpp -mtune=generic -march=x86-64 -g -O0 -fpre-include=/usr/include/finclude/math-vector-fortran.h
REM seed -145951233 599071909 1072666645 279994526 -1444707271 -49756002 -450817006 -444216671 -1662148838 -596351165 -1850817915 1262861186 -500154784 -484600473 -675225151 1572360398 -604873764 1640350704 1143593419 -1146417863 22126251 1240267702 -2094224846 1040343996 -1173335713 262219459 -324095265 -1904300578 809966496 429195854 -950167780 878131301 769542400
REM
CELL 1.54180   50.00000   50.00000   50.00000   90.00000   90.00000   90.00000
LATT -1
SFAC C  
C      1  0.5744610000000  0.4757780000000  0.5139610000000 1.0
C      1  0.5744650000000  0.4986010000000  0.4708890000000 1.0
C      1  0.5744660000000  0.5244910000000  0.5121900000000 1.0
C      1  0.5208130000000  0.5239640000000  0.4304260000000 1.0
C      1  0.5208110000000  0.5468570000000  0.5543800000000 1.0
C      1  0.5208010000000  0.4280630000000  0.5122290000000 1.0
C      1  0.5097480000000  0.5478460000000  0.4685990000000 1.0
C      1  0.5097410000000  0.5018580000000  0.5559740000000 1.0
C      1  0.5097390000000  0.4491830000000  0.4724600000000 1.0
C      1  0.4770830000000  0.4199110000000  0.4915600000000 1.0
C      1  0.4770970000000  0.5459440000000  0.4336950000000 1.0
C      1  0.4770910000000  0.5330400000000  0.5717750000000 1.0
C      1  0.5057380000000  0.5277210000000  0.5698420000000 1.0
C      1  0.5057310000000  0.4242420000000  0.4879240000000 1.0
C      1  0.5057440000000  0.5469250000000  0.4392670000000 1.0
C      1  0.5189690000000  0.5427980000000  0.5259120000000 1.0
C      1  0.5189610000000  0.4547460000000  0.5229470000000 1.0
C      1  0.5189670000000  0.5013400000000  0.4481750000000 1.0
C      1  0.5419180000000  0.4662770000000  0.4453930000000 1.0
C      1  0.5419250000000  0.5627360000000  0.4969410000000 1.0
C      1  0.5419150000000  0.4698650000000  0.5547020000000 1.0
C      1  0.5172580000000  0.4492840000000  0.4444120000000 1.0
C      1  0.5172680000000  0.5720850000000  0.4827110000000 1.0
C      1  0.5172560000000  0.4775160000000  0.5699110000000 1.0
C      1  0.4431780000000  0.4987760000000  0.5604570000000 1.0
C      1  0.4431760000000  0.4468490000000  0.4675410000000 1.0
C      1  0.4431860000000  0.5532800000000  0.4690290000000 1.0
C      1  0.4739480000000  0.4689400000000  0.4998800000000 1.0
C      1  0.4739530000000  0.5142250000000  0.4719940000000 1.0
C      1  0.4739510000000  0.5157320000000  0.5251550000000 1.0
C      1  0.4729460000000  0.4594990000000  0.5482870000000 1.0
C      1  0.4729510000000  0.4770230000000  0.4396150000000 1.0
C      1  0.4729570000000  0.5623740000000  0.5091270000000 1.0
C      1  0.4905130000000  0.4927130000000  0.4577720000000 1.0
C      1  0.4905160000000  0.5388030000000  0.5136390000000 1.0
C      1  0.4905090000000  0.4673760000000  0.5256210000000 1.0
C      1  0.4598020000000  0.5206110000000  0.5518020000000 1.0
C      1  0.4597970000000  0.4434260000000  0.4907800000000 1.0
C      1  0.4598060000000  0.5348640000000  0.4544470000000 1.0
C      1  0.4975810000000  0.4750800000000  0.4819410000000 1.0
C      1  0.4975850000000  0.5266880000000  0.4862850000000 1.0
C      1  0.4975810000000  0.4971220000000  0.5288070000000 1.0
C      1  0.4449180000000  0.5536910000000  0.4978790000000 1.0
C      1  0.4449090000000  0.4735860000000  0.5463880000000 1.0
C      1  0.4449110000000  0.4716290000000  0.4527600000000 1.0
C      1  0.4296770000000  0.5296580000000  0.5094570000000 1.0
C      1  0.4296720000000  0.4755780000000  0.5197840000000 1.0
C      1  0.4296750000000  0.4936740000000  0.4677850000000 1.0
C      1  0.5451190000000  0.4744630000000  0.5230780000000 1.0
C      1  0.5451220000000  0.4913650000000  0.4651870000000 1.0
C      1  0.5451250000000  0.5330490000000  0.5087710000000 1.0
C      1  0.4922970000000  0.4563690000000  0.4286110000000 1.0
C      1  0.4923070000000  0.5822290000000  0.4967450000000 1.0
C      1  0.4922930000000  0.4602930000000  0.5716760000000 1.0
C      1  0.4621190000000  0.4996330000000  0.4990100000000 1.0
C      1  0.4325120000000  0.4996360000000  0.4990090000000 1.0
C      1  0.6157660000000  0.4996200000000  0.4990140000000 1.0
C      1  0.5383580000000  0.4996260000000  0.4990120000000 1.0
C      1  0.5096130000000  0.4996290000000  0.4990110000000 1.0
C      1  0.5861320000000  0.4996220000000  0.4990130000000 1.0
END
