TITL C-3985253-1688-142 0.00704352700889885 125000 -327.244983576302 0 0 60 (C1) n - 1
REM
REM in /home/nfs/bkarasulu/CARBON/AIRSS/Generating-Clusters/TERSOFF/Higher-Symm/Only-C60
REM
REM
REM
REM
REM
REM ./C.cell (28575a23ae977d3b5fae324c64b13b57)
REM
REM compiler GCC version 9.2.1 20190827 (Red Hat 9.2.1-1)
REM options -cpp -mtune=generic -march=x86-64 -g -O0 -fpre-include=/usr/include/finclude/math-vector-fortran.h
REM seed 1490806356 810335728 1802511259 -1765238245 -973189928 -593279459 1986506112 -840545840 -878862960 -1871345006 -1579746710 259399804 -665587810 1878094608 -1973287589 1151177679 -608413193 724393989 -307931817 2093117006 948760140 -25605389 647731411 -1106882052 479433909 -689904535 -1198809538 1369318989 722681828 -1567219489 1374841573 1533827440 -888141291
REM
CELL 1.54180   50.00000   50.00000   50.00000   90.00000   90.00000   90.00000
LATT -1
SFAC C  
C      1  0.5139980000000  0.5544200000000  0.5379720000000 1.0
C      1  0.5084970000000  0.5379670000000  0.4465310000000 1.0
C      1  0.4977970000000  0.5601710000000  0.4632420000000 1.0
C      1  0.4994340000000  0.5702100000000  0.5152340000000 1.0
C      1  0.4609070000000  0.5146510000000  0.4404480000000 1.0
C      1  0.5077100000000  0.4333180000000  0.4890360000000 1.0
C      1  0.4649690000000  0.4539470000000  0.4623370000000 1.0
C      1  0.4355670000000  0.5274890000000  0.4857530000000 1.0
C      1  0.4902080000000  0.5093780000000  0.5225480000000 1.0
C      1  0.4975830000000  0.4916270000000  0.4566370000000 1.0
C      1  0.4900300000000  0.5153270000000  0.4401900000000 1.0
C      1  0.5407800000000  0.5159990000000  0.5201760000000 1.0
C      1  0.4677630000000  0.5616240000000  0.4644370000000 1.0
C      1  0.4757640000000  0.4892680000000  0.4821750000000 1.0
C      1  0.4842260000000  0.5312710000000  0.5054210000000 1.0
C      1  0.5201710000000  0.5089940000000  0.5661030000000 1.0
C      1  0.5395440000000  0.5450470000000  0.5220770000000 1.0
C      1  0.5248370000000  0.4318690000000  0.5273430000000 1.0
C      1  0.5629620000000  0.5004360000000  0.5327990000000 1.0
C      1  0.4656990000000  0.5448980000000  0.5424210000000 1.0
C      1  0.5700190000000  0.4836350000000  0.4727450000000 1.0
C      1  0.4490750000000  0.5366660000000  0.4558730000000 1.0
C      1  0.5140200000000  0.5685440000000  0.4879720000000 1.0
C      1  0.4937420000000  0.5336970000000  0.5597560000000 1.0
C      1  0.5066220000000  0.5273030000000  0.4878380000000 1.0
C      1  0.5265090000000  0.5049030000000  0.4938550000000 1.0
C      1  0.4798090000000  0.4845550000000  0.5121360000000 1.0
C      1  0.5067650000000  0.4751860000000  0.4309810000000 1.0
C      1  0.4530770000000  0.4791920000000  0.5255120000000 1.0
C      1  0.5269160000000  0.4940040000000  0.4656570000000 1.0
C      1  0.5522350000000  0.5345440000000  0.4739650000000 1.0
C      1  0.4501010000000  0.4487930000000  0.4886060000000 1.0
C      1  0.4537630000000  0.5574110000000  0.4919930000000 1.0
C      1  0.5335800000000  0.5229800000000  0.4549020000000 1.0
C      1  0.4512040000000  0.4843550000000  0.4485630000000 1.0
C      1  0.5433290000000  0.4652880000000  0.4696920000000 1.0
C      1  0.4956710000000  0.4430370000000  0.4639520000000 1.0
C      1  0.4255570000000  0.5282690000000  0.5160120000000 1.0
C      1  0.4793330000000  0.5003780000000  0.5619700000000 1.0
C      1  0.4642490000000  0.4320640000000  0.5084250000000 1.0
C      1  0.5329390000000  0.4440200000000  0.5544800000000 1.0
C      1  0.5007230000000  0.4670230000000  0.5224040000000 1.0
C      1  0.5109350000000  0.4565200000000  0.5700380000000 1.0
C      1  0.5502010000000  0.4948000000000  0.5631460000000 1.0
C      1  0.5408800000000  0.5547840000000  0.4935990000000 1.0
C      1  0.4934290000000  0.4366930000000  0.5159210000000 1.0
C      1  0.5270480000000  0.4772130000000  0.5093940000000 1.0
C      1  0.5182190000000  0.4549470000000  0.4486500000000 1.0
C      1  0.4518820000000  0.4991440000000  0.5480580000000 1.0
C      1  0.4432680000000  0.5257960000000  0.5397780000000 1.0
C      1  0.5166410000000  0.5084010000000  0.5355020000000 1.0
C      1  0.4725340000000  0.5573830000000  0.5155170000000 1.0
C      1  0.4442790000000  0.4966050000000  0.4790600000000 1.0
C      1  0.5539760000000  0.4637350000000  0.5512190000000 1.0
C      1  0.4373530000000  0.4739080000000  0.4997530000000 1.0
C      1  0.4967870000000  0.4752660000000  0.5527900000000 1.0
C      1  0.5549030000000  0.4719970000000  0.5216150000000 1.0
C      1  0.5384100000000  0.4397420000000  0.4945790000000 1.0
C      1  0.5709260000000  0.5124900000000  0.4829010000000 1.0
C      1  0.5206490000000  0.4868180000000  0.4083140000000 1.0
END
