TITL C-3985250-725-1304 8.82850117197007e-06 125000 -338.466683164825 0 0 60 (D2h) n - 1
REM
REM in /home/nfs/bkarasulu/CARBON/AIRSS/Generating-Clusters/TERSOFF/Higher-Symm/Only-C60
REM
REM
REM
REM
REM
REM ./C.cell (28575a23ae977d3b5fae324c64b13b57)
REM
REM compiler GCC version 9.2.1 20190827 (Red Hat 9.2.1-1)
REM options -cpp -mtune=generic -march=x86-64 -g -O0 -fpre-include=/usr/include/finclude/math-vector-fortran.h
REM seed -127426168 -1610071886 738819126 -1623853963 -10714962 1146549542 -564094310 1525915466 -565503716 73608943 -1886398961 1114382710 -545275785 173720963 -113259253 -837399474 1970163861 -1467077133 -1678425225 -212621240 222190706 -224190946 1023923763 1701055621 -260029768 -1135187003 -1783620473 -1754633074 -1443739549 97921745 615870456 -1267766046 -2103779833
REM
CELL 1.54180   50.00000   50.00000   50.00000   90.00000   90.00000   90.00000
LATT -1
SFAC C  
C      1  0.5471930000000  0.5457170000000  0.5469520000000 1.0
C      1  0.4844380000000  0.5569760000000  0.5475940000000 1.0
C      1  0.4412180000000  0.5177080000000  0.5468080000000 1.0
C      1  0.4528100000000  0.4542770000000  0.5469470000000 1.0
C      1  0.5155620000000  0.4430270000000  0.5475930000000 1.0
C      1  0.5587820000000  0.4822910000000  0.5468090000000 1.0
C      1  0.5471900000000  0.4542790000000  0.5469520000000 1.0
C      1  0.4844500000000  0.4430570000000  0.5475850000000 1.0
C      1  0.4412040000000  0.4822890000000  0.5468120000000 1.0
C      1  0.4528120000000  0.5457270000000  0.5469500000000 1.0
C      1  0.5155500000000  0.5569410000000  0.5475830000000 1.0
C      1  0.5587970000000  0.5177100000000  0.5468120000000 1.0
C      1  0.4412210000000  0.4822870000000  0.4531940000000 1.0
C      1  0.4844480000000  0.4430240000000  0.4524280000000 1.0
C      1  0.5471800000000  0.4542650000000  0.4530420000000 1.0
C      1  0.5587760000000  0.5177130000000  0.4531940000000 1.0
C      1  0.5155530000000  0.5569840000000  0.4524220000000 1.0
C      1  0.4528220000000  0.5457380000000  0.4530420000000 1.0
C      1  0.4412290000000  0.5177120000000  0.4531930000000 1.0
C      1  0.4844470000000  0.5569850000000  0.4524200000000 1.0
C      1  0.5471800000000  0.5457290000000  0.4530380000000 1.0
C      1  0.5587690000000  0.4822860000000  0.4531930000000 1.0
C      1  0.5155540000000  0.4430070000000  0.4524140000000 1.0
C      1  0.4528220000000  0.4542690000000  0.4530410000000 1.0
C      1  0.4183500000000  0.5302850000000  0.4999990000000 1.0
C      1  0.4302880000000  0.4431340000000  0.4999950000000 1.0
C      1  0.5144660000000  0.4182910000000  0.5000040000000 1.0
C      1  0.5816510000000  0.4697150000000  0.4999990000000 1.0
C      1  0.5697120000000  0.5568670000000  0.4999960000000 1.0
C      1  0.4855310000000  0.5817110000000  0.5000030000000 1.0
C      1  0.4183440000000  0.4697130000000  0.4999960000000 1.0
C      1  0.4302910000000  0.5568640000000  0.4999970000000 1.0
C      1  0.5144670000000  0.5817080000000  0.5000040000000 1.0
C      1  0.5816550000000  0.5302870000000  0.4999970000000 1.0
C      1  0.5697110000000  0.4431360000000  0.4999980000000 1.0
C      1  0.4855350000000  0.4182950000000  0.5000030000000 1.0
C      1  0.4422680000000  0.5662610000000  0.4750830000000 1.0
C      1  0.4179600000000  0.4848270000000  0.4750310000000 1.0
C      1  0.4716260000000  0.4237700000000  0.4749280000000 1.0
C      1  0.5577310000000  0.4337380000000  0.4750850000000 1.0
C      1  0.5820390000000  0.5151730000000  0.4750310000000 1.0
C      1  0.5283740000000  0.5762370000000  0.4749290000000 1.0
C      1  0.4422690000000  0.4337390000000  0.4750820000000 1.0
C      1  0.4179630000000  0.5151740000000  0.4750320000000 1.0
C      1  0.4716190000000  0.5762320000000  0.4749240000000 1.0
C      1  0.5577330000000  0.5662610000000  0.4750820000000 1.0
C      1  0.5820350000000  0.4848270000000  0.4750310000000 1.0
C      1  0.5283790000000  0.4237600000000  0.4749270000000 1.0
C      1  0.5283780000000  0.4237600000000  0.5250730000000 1.0
C      1  0.5820440000000  0.4848270000000  0.5249690000000 1.0
C      1  0.5577320000000  0.5662550000000  0.5249110000000 1.0
C      1  0.4716190000000  0.5762350000000  0.5250770000000 1.0
C      1  0.4179540000000  0.5151740000000  0.5249690000000 1.0
C      1  0.4422700000000  0.4337440000000  0.5249100000000 1.0
C      1  0.5283700000000  0.5762220000000  0.5250750000000 1.0
C      1  0.5820540000000  0.5151760000000  0.5249680000000 1.0
C      1  0.5577330000000  0.4337440000000  0.5249110000000 1.0
C      1  0.4716270000000  0.4237800000000  0.5250780000000 1.0
C      1  0.4179460000000  0.4848240000000  0.5249690000000 1.0
C      1  0.4422660000000  0.5662570000000  0.5249110000000 1.0
END
