TITL C-3985253-1688-148 -0.0011181288914337 125000 -284.510377849343 0 0 60 (C1) n - 1
REM
REM in /home/nfs/bkarasulu/CARBON/AIRSS/Generating-Clusters/TERSOFF/Higher-Symm/Only-C60
REM
REM
REM
REM
REM
REM ./C.cell (28575a23ae977d3b5fae324c64b13b57)
REM
REM compiler GCC version 9.2.1 20190827 (Red Hat 9.2.1-1)
REM options -cpp -mtune=generic -march=x86-64 -g -O0 -fpre-include=/usr/include/finclude/math-vector-fortran.h
REM seed -2030226711 880899828 -1714550587 1477367548 -1570129191 -268173024 -1996693307 1480382637 962447928 -291170084 -528888670 -1089412404 273048754 -42626340 -65110993 -1494428002 268758081 1118631458 1252645860 -334516606 -1754559336 -118489061 65198485 -1184985673 2080489170 -2106783557 1455964756 232303103 224070600 1415011705 1343437343 1380726995 1564924652
REM
CELL 1.54180   50.00000   50.00000   50.00000   90.00000   90.00000   90.00000
LATT -1
SFAC C  
C      1  0.4675540000000  0.5317670000000  0.5402630000000 1.0
C      1  0.4467370000000  0.5287330000000  0.4838590000000 1.0
C      1  0.4993230000000  0.5242820000000  0.4550270000000 1.0
C      1  0.5522820000000  0.5263050000000  0.4840590000000 1.0
C      1  0.5311130000000  0.5310480000000  0.5398000000000 1.0
C      1  0.4672320000000  0.5318240000000  0.4597720000000 1.0
C      1  0.4474600000000  0.5284310000000  0.5157640000000 1.0
C      1  0.4995400000000  0.5244400000000  0.5452490000000 1.0
C      1  0.5522620000000  0.5262560000000  0.5160060000000 1.0
C      1  0.5309340000000  0.5310690000000  0.4604390000000 1.0
C      1  0.4253520000000  0.5010880000000  0.4817950000000 1.0
C      1  0.4947560000000  0.5003410000000  0.4302560000000 1.0
C      1  0.5716680000000  0.5011770000000  0.4712500000000 1.0
C      1  0.5494900000000  0.5078150000000  0.5565120000000 1.0
C      1  0.4607850000000  0.5082440000000  0.5633740000000 1.0
C      1  0.4257010000000  0.5010610000000  0.5178710000000 1.0
C      1  0.4948730000000  0.5004200000000  0.5699020000000 1.0
C      1  0.5717020000000  0.5011270000000  0.5287860000000 1.0
C      1  0.5493360000000  0.5079010000000  0.4436260000000 1.0
C      1  0.4607040000000  0.5082110000000  0.4365600000000 1.0
C      1  0.5015300000000  0.4700700000000  0.4294620000000 1.0
C      1  0.5741240000000  0.4702590000000  0.4774270000000 1.0
C      1  0.5409780000000  0.4781730000000  0.5584600000000 1.0
C      1  0.4569300000000  0.4776720000000  0.5584510000000 1.0
C      1  0.4274290000000  0.4706470000000  0.4734990000000 1.0
C      1  0.5015840000000  0.4701200000000  0.5706300000000 1.0
C      1  0.5741390000000  0.4702230000000  0.5225880000000 1.0
C      1  0.5408950000000  0.4782360000000  0.4416080000000 1.0
C      1  0.4569450000000  0.4775780000000  0.4414170000000 1.0
C      1  0.4276020000000  0.4707030000000  0.5263060000000 1.0
C      1  0.4997460000000  0.4557090000000  0.4577710000000 1.0
C      1  0.5474710000000  0.4571380000000  0.4846930000000 1.0
C      1  0.5279070000000  0.4663150000000  0.5349530000000 1.0
C      1  0.4724410000000  0.4657870000000  0.5357740000000 1.0
C      1  0.4521390000000  0.4569180000000  0.4852430000000 1.0
C      1  0.4997480000000  0.4558210000000  0.5423140000000 1.0
C      1  0.5474670000000  0.4571230000000  0.5153320000000 1.0
C      1  0.5278860000000  0.4662870000000  0.4650930000000 1.0
C      1  0.4724100000000  0.4657470000000  0.4641650000000 1.0
C      1  0.4522490000000  0.4568240000000  0.5146060000000 1.0
C      1  0.5001700000000  0.5480740000000  0.4340380000000 1.0
C      1  0.5686530000000  0.5517860000000  0.4789930000000 1.0
C      1  0.5371690000000  0.5590170000000  0.5490880000000 1.0
C      1  0.4624830000000  0.5593470000000  0.5511320000000 1.0
C      1  0.4286270000000  0.5528790000000  0.4790470000000 1.0
C      1  0.5002130000000  0.5484050000000  0.5659860000000 1.0
C      1  0.5686360000000  0.5517550000000  0.5210300000000 1.0
C      1  0.5368810000000  0.5590940000000  0.4512260000000 1.0
C      1  0.4625010000000  0.5594170000000  0.4487560000000 1.0
C      1  0.4297610000000  0.5529110000000  0.5210380000000 1.0
C      1  0.4311280000000  0.5095760000000  0.5495260000000 1.0
C      1  0.4309580000000  0.5094050000000  0.4501080000000 1.0
C      1  0.5240300000000  0.5120910000000  0.4233490000000 1.0
C      1  0.5242300000000  0.5120170000000  0.5768420000000 1.0
C      1  0.5862890000000  0.5075700000000  0.5000180000000 1.0
C      1  0.5930610000000  0.4646460000000  0.4999970000000 1.0
C      1  0.4284390000000  0.4682300000000  0.5563760000000 1.0
C      1  0.4284600000000  0.4680170000000  0.4434270000000 1.0
C      1  0.5289720000000  0.4672170000000  0.5839230000000 1.0
C      1  0.5289180000000  0.4672870000000  0.4161370000000 1.0
END
