TITL C-3985252-168-83 3.47762033830968e-07 125000 -321.009999468701 0 0 60 (Th) n - 1
REM
REM in /home/nfs/bkarasulu/CARBON/AIRSS/Generating-Clusters/TERSOFF/Higher-Symm/Only-C60
REM
REM
REM
REM
REM
REM ./C.cell (28575a23ae977d3b5fae324c64b13b57)
REM
REM compiler GCC version 9.2.1 20190827 (Red Hat 9.2.1-1)
REM options -cpp -mtune=generic -march=x86-64 -g -O0 -fpre-include=/usr/include/finclude/math-vector-fortran.h
REM seed -38788160 -337044165 1000082680 944335188 1409382560 717937718 -1886822781 -332264270 -1914162274 1966863771 -1324533245 1468439246 2129003790 482146810 -1405110975 -1379183527 31932933 -408475725 1242474186 -67979532 1032377018 26196835 -449441279 1300916331 1315011021 -1268502899 100159690 -812793192 379450821 1054103954 -125530784 -1221234115 -1788643910
REM
CELL 1.54180   50.00000   50.00000   50.00000   90.00000   90.00000   90.00000
LATT -1
SFAC C  
C      1  0.5149950000000  0.4745310000000  0.5716440000000 1.0
C      1  0.5716440000000  0.5149950000000  0.4745310000000 1.0
C      1  0.4745310000000  0.5716440000000  0.5149950000000 1.0
C      1  0.4850050000000  0.4745310000000  0.4283560000000 1.0
C      1  0.5149950000000  0.5254690000000  0.4283560000000 1.0
C      1  0.4850050000000  0.5254690000000  0.5716440000000 1.0
C      1  0.4283560000000  0.5149950000000  0.5254690000000 1.0
C      1  0.5716440000000  0.4850050000000  0.5254690000000 1.0
C      1  0.4283560000000  0.4850050000000  0.4745310000000 1.0
C      1  0.5254690000000  0.5716440000000  0.4850050000000 1.0
C      1  0.4745310000000  0.4283560000000  0.4850050000000 1.0
C      1  0.5254690000000  0.4283560000000  0.5149950000000 1.0
C      1  0.5149950000000  0.5254690000000  0.5716440000000 1.0
C      1  0.5716440000000  0.4850050000000  0.4745310000000 1.0
C      1  0.4745310000000  0.4283560000000  0.5149950000000 1.0
C      1  0.4850050000000  0.5254690000000  0.4283560000000 1.0
C      1  0.5149950000000  0.4745310000000  0.4283560000000 1.0
C      1  0.4850050000000  0.4745310000000  0.5716440000000 1.0
C      1  0.4283560000000  0.4850050000000  0.5254690000000 1.0
C      1  0.5716440000000  0.5149950000000  0.5254690000000 1.0
C      1  0.4283560000000  0.5149950000000  0.4745310000000 1.0
C      1  0.5254690000000  0.4283560000000  0.4850050000000 1.0
C      1  0.4745310000000  0.5716440000000  0.4850050000000 1.0
C      1  0.5254690000000  0.5716440000000  0.5149950000000 1.0
C      1  0.5623640000000  0.4668320000000  0.5471200000000 1.0
C      1  0.5471200000000  0.5623640000000  0.4668320000000 1.0
C      1  0.4668320000000  0.5471200000000  0.5623640000000 1.0
C      1  0.4376360000000  0.4668320000000  0.4528800000000 1.0
C      1  0.5623640000000  0.5331680000000  0.4528800000000 1.0
C      1  0.4376360000000  0.5331680000000  0.5471200000000 1.0
C      1  0.4528800000000  0.5623640000000  0.5331680000000 1.0
C      1  0.5471200000000  0.4376360000000  0.5331680000000 1.0
C      1  0.4528800000000  0.4376360000000  0.4668320000000 1.0
C      1  0.5331680000000  0.5471200000000  0.4376360000000 1.0
C      1  0.4668320000000  0.4528800000000  0.4376360000000 1.0
C      1  0.5331680000000  0.4528800000000  0.5623640000000 1.0
C      1  0.5623640000000  0.5331680000000  0.5471200000000 1.0
C      1  0.5471200000000  0.4376360000000  0.4668320000000 1.0
C      1  0.4668320000000  0.4528800000000  0.5623640000000 1.0
C      1  0.4376360000000  0.5331680000000  0.4528800000000 1.0
C      1  0.5623640000000  0.4668320000000  0.4528800000000 1.0
C      1  0.4376360000000  0.4668320000000  0.5471200000000 1.0
C      1  0.4528800000000  0.4376360000000  0.5331680000000 1.0
C      1  0.5471200000000  0.5623640000000  0.5331680000000 1.0
C      1  0.4528800000000  0.5623640000000  0.4668320000000 1.0
C      1  0.5331680000000  0.4528800000000  0.4376360000000 1.0
C      1  0.4668320000000  0.5471200000000  0.4376360000000 1.0
C      1  0.5331680000000  0.5471200000000  0.5623640000000 1.0
C      1  0.4219730000000  0.4729450000000  0.5000000000000 1.0
C      1  0.5780270000000  0.4729450000000  0.5000000000000 1.0
C      1  0.4219730000000  0.5270550000000  0.5000000000000 1.0
C      1  0.5780270000000  0.5270550000000  0.5000000000000 1.0
C      1  0.5000000000000  0.4219730000000  0.5270550000000 1.0
C      1  0.5000000000000  0.5780270000000  0.5270550000000 1.0
C      1  0.5000000000000  0.5780270000000  0.4729450000000 1.0
C      1  0.5270550000000  0.5000000000000  0.5780270000000 1.0
C      1  0.4729450000000  0.5000000000000  0.5780270000000 1.0
C      1  0.5270550000000  0.5000000000000  0.4219730000000 1.0
C      1  0.4729450000000  0.5000000000000  0.4219730000000 1.0
C      1  0.5000000000000  0.4219730000000  0.4729450000000 1.0
END
