TITL C-3985251-913-518 0.0156412934684492 125000 -274.881025189346 0 0 60 (C4) n - 1
REM
REM in /home/nfs/bkarasulu/CARBON/AIRSS/Generating-Clusters/TERSOFF/Higher-Symm/Only-C60
REM
REM
REM
REM
REM
REM ./C.cell (28575a23ae977d3b5fae324c64b13b57)
REM
REM compiler GCC version 9.2.1 20190827 (Red Hat 9.2.1-1)
REM options -cpp -mtune=generic -march=x86-64 -g -O0 -fpre-include=/usr/include/finclude/math-vector-fortran.h
REM seed -1202498111 1195146806 67480875 -628555975 -1727032218 1655024946 -2092340158 -777381956 -1489852583 -1630890712 2118716592 -832442683 -1014477625 -261068328 33269902 1959652465 682611012 -1779823160 27117183 -2143487832 1103182581 835709941 -1526250754 317631372 -111288111 -936465594 -904328244 -585320362 -1283636608 290820405 386710536 433225568 324052006
REM
CELL 1.54180   50.00000   50.00000   50.00000   90.00000   90.00000   90.00000
LATT -1
SFAC C  
C      1  0.5240080000000  0.5083000000000  0.5140400000000 1.0
C      1  0.4917000000000  0.5240080000000  0.5140400000000 1.0
C      1  0.4759920000000  0.4917000000000  0.5140400000000 1.0
C      1  0.5083000000000  0.4759920000000  0.5140400000000 1.0
C      1  0.5703450000000  0.5186170000000  0.5314430000000 1.0
C      1  0.4813830000000  0.5703450000000  0.5314430000000 1.0
C      1  0.4296550000000  0.4813830000000  0.5314430000000 1.0
C      1  0.5186170000000  0.4296550000000  0.5314430000000 1.0
C      1  0.4925410000000  0.4779200000000  0.4312290000000 1.0
C      1  0.5220800000000  0.4925410000000  0.4312290000000 1.0
C      1  0.5074590000000  0.5220800000000  0.4312290000000 1.0
C      1  0.4779200000000  0.5074590000000  0.4312290000000 1.0
C      1  0.4478990000000  0.5058120000000  0.5261490000000 1.0
C      1  0.4941880000000  0.4478990000000  0.5261490000000 1.0
C      1  0.5521010000000  0.4941880000000  0.5261490000000 1.0
C      1  0.5058120000000  0.5521010000000  0.5261490000000 1.0
C      1  0.5239070000000  0.5057770000000  0.4810610000000 1.0
C      1  0.4942230000000  0.5239070000000  0.4810610000000 1.0
C      1  0.4760930000000  0.4942230000000  0.4810610000000 1.0
C      1  0.5057770000000  0.4760930000000  0.4810610000000 1.0
C      1  0.4801970000000  0.5112950000000  0.5666190000000 1.0
C      1  0.4887050000000  0.4801970000000  0.5666190000000 1.0
C      1  0.5198030000000  0.4887050000000  0.5666190000000 1.0
C      1  0.5112950000000  0.5198030000000  0.5666190000000 1.0
C      1  0.4551120000000  0.5559720000000  0.4838070000000 1.0
C      1  0.4440280000000  0.4551120000000  0.4838070000000 1.0
C      1  0.5448880000000  0.4440280000000  0.4838070000000 1.0
C      1  0.5559720000000  0.5448880000000  0.4838070000000 1.0
C      1  0.4548280000000  0.5169060000000  0.4490740000000 1.0
C      1  0.4830940000000  0.4548280000000  0.4490740000000 1.0
C      1  0.5451720000000  0.4830940000000  0.4490740000000 1.0
C      1  0.5169060000000  0.5451720000000  0.4490740000000 1.0
C      1  0.4122250000000  0.5082890000000  0.5042750000000 1.0
C      1  0.4917110000000  0.4122250000000  0.5042750000000 1.0
C      1  0.5877750000000  0.4917110000000  0.5042750000000 1.0
C      1  0.5082890000000  0.5877750000000  0.5042750000000 1.0
C      1  0.4697980000000  0.5371320000000  0.4656340000000 1.0
C      1  0.4628680000000  0.4697980000000  0.4656340000000 1.0
C      1  0.5302020000000  0.4628680000000  0.4656340000000 1.0
C      1  0.5371320000000  0.5302020000000  0.4656340000000 1.0
C      1  0.4558260000000  0.4646120000000  0.5259770000000 1.0
C      1  0.5353880000000  0.4558260000000  0.5259770000000 1.0
C      1  0.5441740000000  0.5353880000000  0.5259770000000 1.0
C      1  0.4646120000000  0.5441740000000  0.5259770000000 1.0
C      1  0.4943060000000  0.4456610000000  0.4791740000000 1.0
C      1  0.5543390000000  0.4943060000000  0.4791740000000 1.0
C      1  0.5056940000000  0.5543390000000  0.4791740000000 1.0
C      1  0.4456610000000  0.5056940000000  0.4791740000000 1.0
C      1  0.4594640000000  0.5227030000000  0.5495450000000 1.0
C      1  0.4772970000000  0.4594640000000  0.5495450000000 1.0
C      1  0.5405360000000  0.4772970000000  0.5495450000000 1.0
C      1  0.5227030000000  0.5405360000000  0.5495450000000 1.0
C      1  0.4391910000000  0.5320170000000  0.5032260000000 1.0
C      1  0.4679830000000  0.4391910000000  0.5032260000000 1.0
C      1  0.5608090000000  0.4679830000000  0.5032260000000 1.0
C      1  0.5320170000000  0.5608090000000  0.5032260000000 1.0
C      1  0.5753150000000  0.5185700000000  0.4887490000000 1.0
C      1  0.4814300000000  0.5753150000000  0.4887490000000 1.0
C      1  0.4246850000000  0.4814300000000  0.4887490000000 1.0
C      1  0.5185700000000  0.4246850000000  0.4887490000000 1.0
END
