TITL C-3985250-725-987 -0.00039054806467094 125000 -323.652112515802 0 0 60 (Cs) n - 1
REM
REM in /home/nfs/bkarasulu/CARBON/AIRSS/Generating-Clusters/TERSOFF/Higher-Symm/Only-C60
REM
REM
REM
REM
REM
REM ./C.cell (28575a23ae977d3b5fae324c64b13b57)
REM
REM compiler GCC version 9.2.1 20190827 (Red Hat 9.2.1-1)
REM options -cpp -mtune=generic -march=x86-64 -g -O0 -fpre-include=/usr/include/finclude/math-vector-fortran.h
REM seed 652488197 1357964354 -2068403400 -1320001206 1610851749 -585013064 1555362369 -1208650695 -2019719954 395770659 -1058613186 1570501526 -80453755 -1687440680 154501941 919768611 -886748978 595136337 1105250605 -568433742 690535108 1851670596 240111457 324566303 -130360473 -411475933 -1368532817 1251450766 1261275122 -1095185107 -167771074 -1900543077 2111348972
REM
CELL 1.54180   50.00000   50.00000   50.00000   90.00000   90.00000   90.00000
LATT -1
SFAC C  
C      1  0.5374650000000  0.4372840000000  0.5378680000000 1.0
C      1  0.5691190000000  0.5154040000000  0.5382740000000 1.0
C      1  0.5069880000000  0.5688150000000  0.5386020000000 1.0
C      1  0.4352770000000  0.5289690000000  0.5389990000000 1.0
C      1  0.4514330000000  0.4442290000000  0.5378520000000 1.0
C      1  0.5374650000000  0.5627160000000  0.5378690000000 1.0
C      1  0.5691180000000  0.4845950000000  0.5382740000000 1.0
C      1  0.5069880000000  0.4311850000000  0.5386010000000 1.0
C      1  0.4352860000000  0.4710310000000  0.5390020000000 1.0
C      1  0.4514320000000  0.5557670000000  0.5378530000000 1.0
C      1  0.4979340000000  0.4519100000000  0.5622810000000 1.0
C      1  0.5470330000000  0.4831250000000  0.5613700000000 1.0
C      1  0.5306040000000  0.5418100000000  0.5604150000000 1.0
C      1  0.4683770000000  0.5426590000000  0.5609570000000 1.0
C      1  0.4509000000000  0.4849190000000  0.5635480000000 1.0
C      1  0.4979370000000  0.5480910000000  0.5622810000000 1.0
C      1  0.5470320000000  0.5168760000000  0.5613690000000 1.0
C      1  0.5306030000000  0.4581890000000  0.5604150000000 1.0
C      1  0.4683710000000  0.4573450000000  0.5609500000000 1.0
C      1  0.4509000000000  0.5150820000000  0.5635450000000 1.0
C      1  0.4676410000000  0.4548430000000  0.4621700000000 1.0
C      1  0.5331810000000  0.4549260000000  0.4620660000000 1.0
C      1  0.5530330000000  0.5170340000000  0.4623950000000 1.0
C      1  0.5006080000000  0.5552950000000  0.4626540000000 1.0
C      1  0.4475340000000  0.5173280000000  0.4628250000000 1.0
C      1  0.4676410000000  0.5451570000000  0.4621700000000 1.0
C      1  0.5331810000000  0.5450730000000  0.4620660000000 1.0
C      1  0.5530330000000  0.4829660000000  0.4623950000000 1.0
C      1  0.5006080000000  0.4447050000000  0.4626550000000 1.0
C      1  0.4475340000000  0.4826720000000  0.4628250000000 1.0
C      1  0.5664560000000  0.5302180000000  0.5131180000000 1.0
C      1  0.4920740000000  0.5715160000000  0.5134220000000 1.0
C      1  0.4296070000000  0.5146160000000  0.5140360000000 1.0
C      1  0.4638030000000  0.4357760000000  0.5128820000000 1.0
C      1  0.5500320000000  0.4455630000000  0.5128360000000 1.0
C      1  0.5664560000000  0.4697830000000  0.5131170000000 1.0
C      1  0.4920760000000  0.4284840000000  0.5134260000000 1.0
C      1  0.4296080000000  0.4853820000000  0.5140380000000 1.0
C      1  0.4638050000000  0.5642260000000  0.5128860000000 1.0
C      1  0.5500320000000  0.5544370000000  0.5128340000000 1.0
C      1  0.4515200000000  0.5543210000000  0.4882520000000 1.0
C      1  0.4335580000000  0.4706530000000  0.4890460000000 1.0
C      1  0.5075810000000  0.4276680000000  0.4886990000000 1.0
C      1  0.5714750000000  0.4845760000000  0.4884420000000 1.0
C      1  0.5370350000000  0.5632530000000  0.4881840000000 1.0
C      1  0.4515210000000  0.4456780000000  0.4882530000000 1.0
C      1  0.4335580000000  0.5293470000000  0.4890460000000 1.0
C      1  0.5075830000000  0.5723330000000  0.4887000000000 1.0
C      1  0.5714750000000  0.5154240000000  0.4884420000000 1.0
C      1  0.5370360000000  0.4367480000000  0.4881830000000 1.0
C      1  0.5657090000000  0.4709770000000  0.4357640000000 1.0
C      1  0.5480890000000  0.5541150000000  0.4351790000000 1.0
C      1  0.4633720000000  0.5623020000000  0.4353540000000 1.0
C      1  0.4298650000000  0.4847090000000  0.4362540000000 1.0
C      1  0.4926890000000  0.4288770000000  0.4362560000000 1.0
C      1  0.5657090000000  0.5290230000000  0.4357640000000 1.0
C      1  0.5480890000000  0.4458850000000  0.4351790000000 1.0
C      1  0.4633710000000  0.4376980000000  0.4353540000000 1.0
C      1  0.4298650000000  0.5152910000000  0.4362540000000 1.0
C      1  0.4926890000000  0.5711230000000  0.4362560000000 1.0
END
