TITL C-3985254-1270-481 8.77507107173264e-07 125000 -354.314302028038 0 0 60 (C5) n - 1
REM
REM in /home/nfs/bkarasulu/CARBON/AIRSS/Generating-Clusters/TERSOFF/Higher-Symm/Only-C60
REM
REM
REM
REM
REM
REM ./C.cell (28575a23ae977d3b5fae324c64b13b57)
REM
REM compiler GCC version 9.2.1 20190827 (Red Hat 9.2.1-1)
REM options -cpp -mtune=generic -march=x86-64 -g -O0 -fpre-include=/usr/include/finclude/math-vector-fortran.h
REM seed 1346643021 146713652 -926955210 1028515056 -427190582 -954343809 534806000 -1656276851 1202457504 1146218889 1777870997 -897792578 385766941 1537462435 -1240314389 737829493 497869276 27486602 695328504 10960667 1329573854 -920247529 -814950344 1130731525 -340685934 -1516690329 -485840841 1424990567 1300624841 2114995614 1359683666 1929035027 -2030729636
REM
CELL 1.54180   50.00000   50.00000   50.00000   90.00000   90.00000   90.00000
LATT -1
SFAC C  
C      1  0.5136150000000  0.5611980000000  0.5568250000000 1.0
C      1  0.5136140000000  0.5729550000000  0.4593570000000 1.0
C      1  0.5136140000000  0.4838910000000  0.4180560000000 1.0
C      1  0.5136150000000  0.4170890000000  0.4899990000000 1.0
C      1  0.5136150000000  0.4648670000000  0.5757620000000 1.0
C      1  0.4537700000000  0.4535140000000  0.4791800000000 1.0
C      1  0.4537710000000  0.4658340000000  0.5377770000000 1.0
C      1  0.4537710000000  0.5253700000000  0.5441680000000 1.0
C      1  0.4537700000000  0.5498460000000  0.4895200000000 1.0
C      1  0.4537700000000  0.5054360000000  0.4493560000000 1.0
C      1  0.5085620000000  0.4900930000000  0.5269860000000 1.0
C      1  0.5085620000000  0.5226040000000  0.5177610000000 1.0
C      1  0.5085620000000  0.5238770000000  0.4839910000000 1.0
C      1  0.5085620000000  0.4921530000000  0.4723440000000 1.0
C      1  0.5085620000000  0.4712730000000  0.4989170000000 1.0
C      1  0.4967930000000  0.4343120000000  0.5394220000000 1.0
C      1  0.4967930000000  0.5171940000000  0.5746550000000 1.0
C      1  0.4967920000000  0.5763140000000  0.5067180000000 1.0
C      1  0.4967920000000  0.5299710000000  0.4294970000000 1.0
C      1  0.4967920000000  0.4422090000000  0.4497090000000 1.0
C      1  0.5360850000000  0.4806240000000  0.4587350000000 1.0
C      1  0.5360860000000  0.4547670000000  0.5056760000000 1.0
C      1  0.5360860000000  0.4914210000000  0.5447730000000 1.0
C      1  0.5360860000000  0.5399310000000  0.5219950000000 1.0
C      1  0.5360850000000  0.5332580000000  0.4688200000000 1.0
C      1  0.5258620000000  0.5159590000000  0.5619070000000 1.0
C      1  0.5258610000000  0.5638090000000  0.5039520000000 1.0
C      1  0.5258610000000  0.5234770000000  0.4405350000000 1.0
C      1  0.5258610000000  0.4507010000000  0.4592960000000 1.0
C      1  0.5258610000000  0.4460540000000  0.5343080000000 1.0
C      1  0.4692490000000  0.5302060000000  0.4444070000000 1.0
C      1  0.4692490000000  0.4564620000000  0.4540930000000 1.0
C      1  0.4692490000000  0.4428860000000  0.5272210000000 1.0
C      1  0.4692500000000  0.5082400000000  0.5627310000000 1.0
C      1  0.4692490000000  0.5622070000000  0.5115490000000 1.0
C      1  0.5362730000000  0.4963440000000  0.4324900000000 1.0
C      1  0.5362730000000  0.4346650000000  0.4826150000000 1.0
C      1  0.5362740000000  0.4632770000000  0.5567650000000 1.0
C      1  0.5362740000000  0.5426390000000  0.5524670000000 1.0
C      1  0.5362730000000  0.5630760000000  0.4756610000000 1.0
C      1  0.5582340000000  0.4957660000000  0.5250950000000 1.0
C      1  0.5582340000000  0.5225590000000  0.5117810000000 1.0
C      1  0.5582340000000  0.5181760000000  0.4821860000000 1.0
C      1  0.5582340000000  0.4886750000000  0.4772080000000 1.0
C      1  0.5582340000000  0.4748250000000  0.5037280000000 1.0
C      1  0.4384470000000  0.4826300000000  0.5190030000000 1.0
C      1  0.4384470000000  0.5127040000000  0.5223930000000 1.0
C      1  0.4384470000000  0.5252220000000  0.4948370000000 1.0
C      1  0.4384460000000  0.5028840000000  0.4744170000000 1.0
C      1  0.4384460000000  0.4765600000000  0.4893520000000 1.0
C      1  0.4957020000000  0.5511000000000  0.4694600000000 1.0
C      1  0.4957020000000  0.4867460000000  0.4419640000000 1.0
C      1  0.4957030000000  0.4407090000000  0.4946720000000 1.0
C      1  0.4957030000000  0.4766100000000  0.5547430000000 1.0
C      1  0.4957030000000  0.5448360000000  0.5391620000000 1.0
C      1  0.4674090000000  0.4791940000000  0.5594380000000 1.0
C      1  0.4674080000000  0.5500990000000  0.5381560000000 1.0
C      1  0.4674080000000  0.5517690000000  0.4641440000000 1.0
C      1  0.4674080000000  0.4818960000000  0.4396850000000 1.0
C      1  0.4674080000000  0.4370420000000  0.4985790000000 1.0
END
