TITL C-3985254-1270-1019 0.00424967575206243 125000 -303.944023463176 0 0 60 (C2v) n - 1
REM
REM in /home/nfs/bkarasulu/CARBON/AIRSS/Generating-Clusters/TERSOFF/Higher-Symm/Only-C60
REM
REM
REM
REM
REM
REM ./C.cell (28575a23ae977d3b5fae324c64b13b57)
REM
REM compiler GCC version 9.2.1 20190827 (Red Hat 9.2.1-1)
REM options -cpp -mtune=generic -march=x86-64 -g -O0 -fpre-include=/usr/include/finclude/math-vector-fortran.h
REM seed -1518063458 1969572055 110334879 -481577697 1337400587 -1542449859 -990371233 -1366767001 -99301320 -791717384 -1440760978 -1967282058 -312715706 642993099 -1475990339 166292472 1163698539 -1671551536 578392833 1614421628 -1948934565 735042562 -1237539615 -1207650054 1224908882 -1502925250 -351952466 -1019138722 2046313164 -1352028919 1500898570 -1062167689 -154201832
REM
CELL 1.54180   50.00000   50.00000   50.00000   90.00000   90.00000   90.00000
LATT -1
SFAC C  
C      1  0.5171660000000  0.4274290000000  0.5260840000000 1.0
C      1  0.4840310000000  0.5716490000000  0.5257000000000 1.0
C      1  0.5171760000000  0.5721170000000  0.5262070000000 1.0
C      1  0.4839680000000  0.4277390000000  0.5257380000000 1.0
C      1  0.5479650000000  0.4757650000000  0.4508030000000 1.0
C      1  0.4529080000000  0.5236680000000  0.4508130000000 1.0
C      1  0.5479580000000  0.5236510000000  0.4507750000000 1.0
C      1  0.4529280000000  0.4757810000000  0.4507820000000 1.0
C      1  0.5827870000000  0.4845150000000  0.5060770000000 1.0
C      1  0.4180680000000  0.5148350000000  0.5060580000000 1.0
C      1  0.5828410000000  0.5148640000000  0.5060110000000 1.0
C      1  0.4180620000000  0.4845310000000  0.5060490000000 1.0
C      1  0.4761420000000  0.4495320000000  0.5451010000000 1.0
C      1  0.5247590000000  0.5498510000000  0.5451250000000 1.0
C      1  0.4761160000000  0.5498680000000  0.5450990000000 1.0
C      1  0.5247510000000  0.4495200000000  0.5451570000000 1.0
C      1  0.4393460000000  0.4672870000000  0.4915450000000 1.0
C      1  0.5615340000000  0.5321390000000  0.4915340000000 1.0
C      1  0.4393570000000  0.5321370000000  0.4915660000000 1.0
C      1  0.5615080000000  0.4672580000000  0.4915830000000 1.0
C      1  0.5301770000000  0.4690860000000  0.5028370000000 1.0
C      1  0.4705850000000  0.5302210000000  0.5027910000000 1.0
C      1  0.5302260000000  0.5303560000000  0.5028400000000 1.0
C      1  0.4705560000000  0.4691520000000  0.5028400000000 1.0
C      1  0.4609110000000  0.5134740000000  0.5595740000000 1.0
C      1  0.5399130000000  0.4859480000000  0.5595770000000 1.0
C      1  0.4606300000000  0.4857760000000  0.5596180000000 1.0
C      1  0.5403340000000  0.5136510000000  0.5596410000000 1.0
C      1  0.5456720000000  0.5305910000000  0.5354820000000 1.0
C      1  0.4551790000000  0.4688540000000  0.5355010000000 1.0
C      1  0.5455280000000  0.4689660000000  0.5355160000000 1.0
C      1  0.4553190000000  0.5304690000000  0.5355050000000 1.0
C      1  0.4348080000000  0.5418750000000  0.4643460000000 1.0
C      1  0.5660610000000  0.4575580000000  0.4643380000000 1.0
C      1  0.4348060000000  0.4575600000000  0.4643150000000 1.0
C      1  0.5660640000000  0.5418580000000  0.4642940000000 1.0
C      1  0.4755040000000  0.4840650000000  0.4708640000000 1.0
C      1  0.5253730000000  0.5153620000000  0.4708660000000 1.0
C      1  0.4755100000000  0.5153610000000  0.4708710000000 1.0
C      1  0.5253670000000  0.4840560000000  0.4708750000000 1.0
C      1  0.4257080000000  0.4700920000000  0.5311640000000 1.0
C      1  0.5751960000000  0.5293480000000  0.5311400000000 1.0
C      1  0.4258040000000  0.5292390000000  0.5312030000000 1.0
C      1  0.5750120000000  0.4701990000000  0.5312330000000 1.0
C      1  0.5003090000000  0.4488750000000  0.5003350000000 1.0
C      1  0.5003120000000  0.5505150000000  0.5003040000000 1.0
C      1  0.5004440000000  0.5277730000000  0.4581800000000 1.0
C      1  0.5004380000000  0.4716470000000  0.4581820000000 1.0
C      1  0.5004420000000  0.5229010000000  0.4284940000000 1.0
C      1  0.5004370000000  0.4765220000000  0.4284950000000 1.0
C      1  0.5004320000000  0.5553460000000  0.4702510000000 1.0
C      1  0.5004080000000  0.4440770000000  0.4702520000000 1.0
C      1  0.4421380000000  0.4997330000000  0.4381680000000 1.0
C      1  0.5587360000000  0.4997020000000  0.4381670000000 1.0
C      1  0.5214060000000  0.4997100000000  0.4190710000000 1.0
C      1  0.4794660000000  0.4997140000000  0.4190800000000 1.0
C      1  0.5004570000000  0.5345310000000  0.5552040000000 1.0
C      1  0.5004150000000  0.4648830000000  0.5552120000000 1.0
C      1  0.5004270000000  0.4996960000000  0.5944350000000 1.0
C      1  0.5004360000000  0.4997080000000  0.5646790000000 1.0
END
