TITL C-3985259-1859-284 2.44257148893193e-07 125000 -309.435250344513 0 0 60 (Td) n - 1
REM
REM in /home/nfs/bkarasulu/CARBON/AIRSS/Generating-Clusters/TERSOFF/Higher-Symm/Only-C60
REM
REM
REM
REM
REM
REM ./C.cell (28575a23ae977d3b5fae324c64b13b57)
REM
REM compiler GCC version 9.2.1 20190827 (Red Hat 9.2.1-1)
REM options -cpp -mtune=generic -march=x86-64 -g -O0 -fpre-include=/usr/include/finclude/math-vector-fortran.h
REM seed 1357966036 -2116787745 -1874124655 -951881387 518156666 616494789 -909352278 134516158 -1160847106 1733996002 -1942148351 -1299976771 -349521546 356206754 1192926353 1372700996 781508958 290488903 -1316216857 1257557702 936367540 713334233 1322101720 1053835938 655373428 -1018401974 89959644 2109095216 1880009918 1097892461 -295163253 758620217 712002393
REM
CELL 1.54180   50.00000   50.00000   50.00000   90.00000   90.00000   90.00000
LATT -1
SFAC C  
C      1  0.4452150000000  0.5083190000000  0.5321400000000 1.0
C      1  0.5083190000000  0.5321400000000  0.4452150000000 1.0
C      1  0.5321400000000  0.4452150000000  0.5083190000000 1.0
C      1  0.5547850000000  0.4916810000000  0.5321400000000 1.0
C      1  0.4452150000000  0.4916810000000  0.4678600000000 1.0
C      1  0.5547850000000  0.5083190000000  0.4678600000000 1.0
C      1  0.4916810000000  0.4678600000000  0.4452150000000 1.0
C      1  0.5083190000000  0.4678600000000  0.5547850000000 1.0
C      1  0.4916810000000  0.5321400000000  0.5547850000000 1.0
C      1  0.4678600000000  0.5547850000000  0.5083190000000 1.0
C      1  0.5321400000000  0.5547850000000  0.4916810000000 1.0
C      1  0.4678600000000  0.4452150000000  0.4916810000000 1.0
C      1  0.5083190000000  0.4452150000000  0.5321400000000 1.0
C      1  0.5321400000000  0.5083190000000  0.4452150000000 1.0
C      1  0.4452150000000  0.5321400000000  0.5083190000000 1.0
C      1  0.4916810000000  0.5547850000000  0.5321400000000 1.0
C      1  0.4916810000000  0.4452150000000  0.4678600000000 1.0
C      1  0.5083190000000  0.5547850000000  0.4678600000000 1.0
C      1  0.4678600000000  0.4916810000000  0.4452150000000 1.0
C      1  0.4678600000000  0.5083190000000  0.5547850000000 1.0
C      1  0.5321400000000  0.4916810000000  0.5547850000000 1.0
C      1  0.5547850000000  0.4678600000000  0.5083190000000 1.0
C      1  0.5547850000000  0.5321400000000  0.4916810000000 1.0
C      1  0.4452150000000  0.4678600000000  0.4916810000000 1.0
C      1  0.5316790000000  0.4889630000000  0.4218090000000 1.0
C      1  0.4889630000000  0.4218090000000  0.5316790000000 1.0
C      1  0.4218090000000  0.5316790000000  0.4889630000000 1.0
C      1  0.4683210000000  0.5110370000000  0.4218090000000 1.0
C      1  0.5316790000000  0.5110370000000  0.5781910000000 1.0
C      1  0.4683210000000  0.4889630000000  0.5781910000000 1.0
C      1  0.5110370000000  0.5781910000000  0.5316790000000 1.0
C      1  0.4889630000000  0.5781910000000  0.4683210000000 1.0
C      1  0.5110370000000  0.4218090000000  0.4683210000000 1.0
C      1  0.5781910000000  0.4683210000000  0.4889630000000 1.0
C      1  0.4218090000000  0.4683210000000  0.5110370000000 1.0
C      1  0.5781910000000  0.5316790000000  0.5110370000000 1.0
C      1  0.4889630000000  0.5316790000000  0.4218090000000 1.0
C      1  0.4218090000000  0.4889630000000  0.5316790000000 1.0
C      1  0.5316790000000  0.4218090000000  0.4889630000000 1.0
C      1  0.5110370000000  0.4683210000000  0.4218090000000 1.0
C      1  0.5110370000000  0.5316790000000  0.5781910000000 1.0
C      1  0.4889630000000  0.4683210000000  0.5781910000000 1.0
C      1  0.5781910000000  0.5110370000000  0.5316790000000 1.0
C      1  0.5781910000000  0.4889630000000  0.4683210000000 1.0
C      1  0.4218090000000  0.5110370000000  0.4683210000000 1.0
C      1  0.4683210000000  0.5781910000000  0.4889630000000 1.0
C      1  0.4683210000000  0.4218090000000  0.5110370000000 1.0
C      1  0.5316790000000  0.5781910000000  0.5110370000000 1.0
C      1  0.5109990000000  0.5109990000000  0.5360670000000 1.0
C      1  0.5109990000000  0.5360670000000  0.5109990000000 1.0
C      1  0.5360670000000  0.5109990000000  0.5109990000000 1.0
C      1  0.4890010000000  0.4890010000000  0.5360670000000 1.0
C      1  0.5109990000000  0.4890010000000  0.4639330000000 1.0
C      1  0.4890010000000  0.5109990000000  0.4639330000000 1.0
C      1  0.4890010000000  0.4639330000000  0.5109990000000 1.0
C      1  0.5109990000000  0.4639330000000  0.4890010000000 1.0
C      1  0.4890010000000  0.5360670000000  0.4890010000000 1.0
C      1  0.4639330000000  0.4890010000000  0.5109990000000 1.0
C      1  0.5360670000000  0.4890010000000  0.4890010000000 1.0
C      1  0.4639330000000  0.5109990000000  0.4890010000000 1.0
END
