TITL C-3985253-1688-641 6.29959531367019e-07 125000 -314.134469544102 0 0 60 (S12) n - 1
REM
REM in /home/nfs/bkarasulu/CARBON/AIRSS/Generating-Clusters/TERSOFF/Higher-Symm/Only-C60
REM
REM
REM
REM
REM
REM ./C.cell (28575a23ae977d3b5fae324c64b13b57)
REM
REM compiler GCC version 9.2.1 20190827 (Red Hat 9.2.1-1)
REM options -cpp -mtune=generic -march=x86-64 -g -O0 -fpre-include=/usr/include/finclude/math-vector-fortran.h
REM seed 71885754 1812735534 948096102 -266094966 407267 89412535 -1515658292 -1415301855 435020067 70841244 868298446 -829281313 1219634781 231855161 541439274 1811039429 1494032304 -1889172346 -1581024543 498077430 1392396521 -1115704959 1133081906 320461220 -510533511 -425432939 -1899425512 -1904114077 -683413713 1435198140 1263817571 1864125368 716771174
REM
CELL 1.54180   50.00000   50.00000   50.00000   90.00000   90.00000   90.00000
LATT -1
SFAC C  
C      1  0.4506170000000  0.5112980000000  0.4537920000000 1.0
C      1  0.5493830000000  0.4866800000000  0.4543340000000 1.0
C      1  0.4506170000000  0.4656310000000  0.4671120000000 1.0
C      1  0.5493830000000  0.4537920000000  0.4887020000000 1.0
C      1  0.4506170000000  0.4543340000000  0.5133200000000 1.0
C      1  0.5493830000000  0.4671120000000  0.5343690000000 1.0
C      1  0.4506170000000  0.4887020000000  0.5462080000000 1.0
C      1  0.5493830000000  0.5133200000000  0.5456660000000 1.0
C      1  0.4506170000000  0.5343690000000  0.5328880000000 1.0
C      1  0.5493830000000  0.5462080000000  0.5112980000000 1.0
C      1  0.4506170000000  0.5456660000000  0.4866800000000 1.0
C      1  0.5493830000000  0.5328880000000  0.4656310000000 1.0
C      1  0.4915830000000  0.4406590000000  0.4891720000000 1.0
C      1  0.5084170000000  0.4431950000000  0.5202930000000 1.0
C      1  0.4915830000000  0.4609520000000  0.5459770000000 1.0
C      1  0.5084170000000  0.4891720000000  0.5593410000000 1.0
C      1  0.4915830000000  0.5202930000000  0.5568050000000 1.0
C      1  0.5084170000000  0.5459770000000  0.5390480000000 1.0
C      1  0.4915830000000  0.5593410000000  0.5108280000000 1.0
C      1  0.5084170000000  0.5568050000000  0.4797070000000 1.0
C      1  0.4915830000000  0.5390480000000  0.4540230000000 1.0
C      1  0.5084170000000  0.5108280000000  0.4406590000000 1.0
C      1  0.4915830000000  0.4797070000000  0.4431950000000 1.0
C      1  0.5084170000000  0.4540230000000  0.4609520000000 1.0
C      1  0.5738130000000  0.5203430000000  0.4780680000000 1.0
C      1  0.4261870000000  0.5066520000000  0.4708350000000 1.0
C      1  0.5738130000000  0.4911780000000  0.4714160000000 1.0
C      1  0.4261870000000  0.4780680000000  0.4796570000000 1.0
C      1  0.5738130000000  0.4708350000000  0.4933480000000 1.0
C      1  0.4261870000000  0.4714160000000  0.5088220000000 1.0
C      1  0.5738130000000  0.4796570000000  0.5219320000000 1.0
C      1  0.4261870000000  0.4933480000000  0.5291650000000 1.0
C      1  0.5738130000000  0.5088220000000  0.5285840000000 1.0
C      1  0.4261870000000  0.5219320000000  0.5203430000000 1.0
C      1  0.5738130000000  0.5291650000000  0.5066520000000 1.0
C      1  0.4261870000000  0.5285840000000  0.4911780000000 1.0
C      1  0.4770510000000  0.5314860000000  0.5004240000000 1.0
C      1  0.5229490000000  0.5274800000000  0.4846250000000 1.0
C      1  0.4770510000000  0.5161100000000  0.4729450000000 1.0
C      1  0.5229490000000  0.5004240000000  0.4685140000000 1.0
C      1  0.4770510000000  0.4846250000000  0.4725200000000 1.0
C      1  0.5229490000000  0.4729450000000  0.4838900000000 1.0
C      1  0.4770510000000  0.4685140000000  0.4995760000000 1.0
C      1  0.5229490000000  0.4725200000000  0.5153750000000 1.0
C      1  0.4770510000000  0.4838900000000  0.5270550000000 1.0
C      1  0.5229490000000  0.4995760000000  0.5314860000000 1.0
C      1  0.4770510000000  0.5153750000000  0.5274800000000 1.0
C      1  0.5229490000000  0.5270550000000  0.5161100000000 1.0
C      1  0.5383260000000  0.5660270000000  0.4907350000000 1.0
C      1  0.4616740000000  0.5525480000000  0.4589630000000 1.0
C      1  0.5383260000000  0.5249900000000  0.4381860000000 1.0
C      1  0.4616740000000  0.4907350000000  0.4339730000000 1.0
C      1  0.5383260000000  0.4589630000000  0.4474520000000 1.0
C      1  0.4616740000000  0.4381860000000  0.4750100000000 1.0
C      1  0.5383260000000  0.4339730000000  0.5092650000000 1.0
C      1  0.4616740000000  0.4474520000000  0.5410370000000 1.0
C      1  0.5383260000000  0.4750100000000  0.5618140000000 1.0
C      1  0.4616740000000  0.5092650000000  0.5660270000000 1.0
C      1  0.5383260000000  0.5410370000000  0.5525480000000 1.0
C      1  0.4616740000000  0.5618140000000  0.5249900000000 1.0
END
