TITL C-3985252-168-240 -0.00230045995984715 125000 -349.492720215148 0 0 60 (D6d) n - 1
REM
REM in /home/nfs/bkarasulu/CARBON/AIRSS/Generating-Clusters/TERSOFF/Higher-Symm/Only-C60
REM
REM
REM
REM
REM
REM ./C.cell (28575a23ae977d3b5fae324c64b13b57)
REM
REM compiler GCC version 9.2.1 20190827 (Red Hat 9.2.1-1)
REM options -cpp -mtune=generic -march=x86-64 -g -O0 -fpre-include=/usr/include/finclude/math-vector-fortran.h
REM seed 522533091 466947420 -2077577424 -584230084 -1393540702 -2093281063 1427244072 1720878207 50782923 611911991 -176295156 -1635674156 1206089422 1845744238 471304672 1643644365 -1879454699 892177324 -1242056304 -1585985785 -1510310091 1519577463 1350958626 -2042129212 693321911 622781006 -1264642184 1733602165 1433936747 -1536558462 201932230 -1144562212 -1708724068
REM
CELL 1.54180   50.00000   50.00000   50.00000   90.00000   90.00000   90.00000
LATT -1
SFAC C  
C      1  0.4423650000000  0.5013590000000  0.5561940000000 1.0
C      1  0.5576350000000  0.4730810000000  0.5493440000000 1.0
C      1  0.4423650000000  0.4520150000000  0.5292740000000 1.0
C      1  0.5576350000000  0.4438060000000  0.5013590000000 1.0
C      1  0.4423650000000  0.4506560000000  0.4730810000000 1.0
C      1  0.5576350000000  0.4707260000000  0.4520150000000 1.0
C      1  0.4423650000000  0.4986410000000  0.4438060000000 1.0
C      1  0.5576350000000  0.5269190000000  0.4506560000000 1.0
C      1  0.4423650000000  0.5479850000000  0.4707260000000 1.0
C      1  0.5576350000000  0.5561940000000  0.4986410000000 1.0
C      1  0.4423650000000  0.5493440000000  0.5269190000000 1.0
C      1  0.5576350000000  0.5292740000000  0.5479850000000 1.0
C      1  0.4650850000000  0.5273210000000  0.4993390000000 1.0
C      1  0.5349150000000  0.5239910000000  0.5130880000000 1.0
C      1  0.4650850000000  0.5142330000000  0.5233300000000 1.0
C      1  0.5349150000000  0.5006610000000  0.5273210000000 1.0
C      1  0.4650850000000  0.4869120000000  0.5239910000000 1.0
C      1  0.5349150000000  0.4766700000000  0.5142330000000 1.0
C      1  0.4650850000000  0.4726790000000  0.5006610000000 1.0
C      1  0.5349150000000  0.4760090000000  0.4869120000000 1.0
C      1  0.4650850000000  0.4857670000000  0.4766700000000 1.0
C      1  0.5349150000000  0.4993390000000  0.4726790000000 1.0
C      1  0.4650850000000  0.5130880000000  0.4760090000000 1.0
C      1  0.5349150000000  0.5233300000000  0.4857670000000 1.0
C      1  0.5755860000000  0.4855230000000  0.5265370000000 1.0
C      1  0.4244140000000  0.4741940000000  0.5157430000000 1.0
C      1  0.5755860000000  0.4697800000000  0.5007310000000 1.0
C      1  0.4244140000000  0.4734630000000  0.4855230000000 1.0
C      1  0.5755860000000  0.4842570000000  0.4741940000000 1.0
C      1  0.4244140000000  0.4992690000000  0.4697800000000 1.0
C      1  0.5755860000000  0.5144770000000  0.4734630000000 1.0
C      1  0.4244140000000  0.5258060000000  0.4842570000000 1.0
C      1  0.5755860000000  0.5302200000000  0.4992690000000 1.0
C      1  0.4244140000000  0.5265370000000  0.5144770000000 1.0
C      1  0.5755860000000  0.5157430000000  0.5258060000000 1.0
C      1  0.4244140000000  0.5007310000000  0.5302200000000 1.0
C      1  0.4605340000000  0.5581430000000  0.4985940000000 1.0
C      1  0.5394660000000  0.5510570000000  0.5278540000000 1.0
C      1  0.4605340000000  0.5302900000000  0.5496500000000 1.0
C      1  0.5394660000000  0.5014060000000  0.5581430000000 1.0
C      1  0.4605340000000  0.4721460000000  0.5510570000000 1.0
C      1  0.5394660000000  0.4503500000000  0.5302900000000 1.0
C      1  0.4605340000000  0.4418570000000  0.5014060000000 1.0
C      1  0.5394660000000  0.4489430000000  0.4721460000000 1.0
C      1  0.4605340000000  0.4697100000000  0.4503500000000 1.0
C      1  0.5394660000000  0.4985940000000  0.4418570000000 1.0
C      1  0.4605340000000  0.5278540000000  0.4489430000000 1.0
C      1  0.5394660000000  0.5496500000000  0.4697100000000 1.0
C      1  0.5070760000000  0.4484600000000  0.4718830000000 1.0
C      1  0.4929240000000  0.4694230000000  0.4498790000000 1.0
C      1  0.5070750000000  0.4985800000000  0.4413060000000 1.0
C      1  0.4929240000000  0.5281170000000  0.4484600000000 1.0
C      1  0.5070760000000  0.5501210000000  0.4694230000000 1.0
C      1  0.4929250000000  0.5586940000000  0.4985800000000 1.0
C      1  0.5070760000000  0.5515400000000  0.5281170000000 1.0
C      1  0.4929240000000  0.5305770000000  0.5501210000000 1.0
C      1  0.5070750000000  0.5014200000000  0.5586940000000 1.0
C      1  0.4929240000000  0.4718830000000  0.5515400000000 1.0
C      1  0.5070760000000  0.4498790000000  0.5305770000000 1.0
C      1  0.4929250000000  0.4413060000000  0.5014200000000 1.0
END
