TITL C-3985259-1859-1340 0.00305099027441719 125000 -282.904202662676 0 0 60 (C2) n - 1
REM
REM in /home/nfs/bkarasulu/CARBON/AIRSS/Generating-Clusters/TERSOFF/Higher-Symm/Only-C60
REM
REM
REM
REM
REM
REM ./C.cell (28575a23ae977d3b5fae324c64b13b57)
REM
REM compiler GCC version 9.2.1 20190827 (Red Hat 9.2.1-1)
REM options -cpp -mtune=generic -march=x86-64 -g -O0 -fpre-include=/usr/include/finclude/math-vector-fortran.h
REM seed -522436135 1058792156 -1049225076 -343435211 -1681279139 477005849 -863012700 -1305972355 1577630697 27324287 1583313191 -1561353097 -1271748345 1309205797 -1390461222 467139630 2119320614 -1270370923 -1357181407 -1941680830 423382438 -716884941 -26130994 -375908258 -1191713265 -522196460 -1958103405 -1695719626 -954982576 1581219704 2008613050 694282822 -267608650
REM
CELL 1.54180   50.00000   50.00000   50.00000   90.00000   90.00000   90.00000
LATT -1
SFAC C  
C      1  0.5544870000000  0.4522550000000  0.5021680000000 1.0
C      1  0.4455090000000  0.5477430000000  0.5021630000000 1.0
C      1  0.5541290000000  0.5478950000000  0.5017790000000 1.0
C      1  0.4458840000000  0.4520980000000  0.5017730000000 1.0
C      1  0.5174330000000  0.5456170000000  0.5411370000000 1.0
C      1  0.4825700000000  0.4543850000000  0.5411380000000 1.0
C      1  0.5175870000000  0.4543750000000  0.5413210000000 1.0
C      1  0.4824140000000  0.5456220000000  0.5413190000000 1.0
C      1  0.5444780000000  0.4833130000000  0.4677320000000 1.0
C      1  0.4555580000000  0.5167090000000  0.4677220000000 1.0
C      1  0.5448320000000  0.5163470000000  0.4687900000000 1.0
C      1  0.4551340000000  0.4836430000000  0.4687590000000 1.0
C      1  0.5175750000000  0.5182260000000  0.5629660000000 1.0
C      1  0.4824270000000  0.4817750000000  0.5629660000000 1.0
C      1  0.5176240000000  0.4818170000000  0.5630910000000 1.0
C      1  0.4823790000000  0.5181820000000  0.5630880000000 1.0
C      1  0.4629060000000  0.5160900000000  0.4324430000000 1.0
C      1  0.5371180000000  0.4839350000000  0.4324500000000 1.0
C      1  0.4604670000000  0.4852700000000  0.4373220000000 1.0
C      1  0.5395320000000  0.5147120000000  0.4373230000000 1.0
C      1  0.4633380000000  0.5863940000000  0.4721130000000 1.0
C      1  0.5366540000000  0.4136100000000  0.4721140000000 1.0
C      1  0.4633510000000  0.4134110000000  0.4717610000000 1.0
C      1  0.5366460000000  0.5865880000000  0.4717600000000 1.0
C      1  0.5340170000000  0.4696780000000  0.5201910000000 1.0
C      1  0.4659910000000  0.5303200000000  0.5201860000000 1.0
C      1  0.5339080000000  0.5305710000000  0.5198890000000 1.0
C      1  0.4661110000000  0.4694240000000  0.5198920000000 1.0
C      1  0.4850170000000  0.4323270000000  0.5145060000000 1.0
C      1  0.5149800000000  0.5676760000000  0.5145070000000 1.0
C      1  0.4849530000000  0.5677230000000  0.5149630000000 1.0
C      1  0.5150470000000  0.4322850000000  0.5149600000000 1.0
C      1  0.5305790000000  0.5631140000000  0.4880960000000 1.0
C      1  0.4694210000000  0.4368870000000  0.4880930000000 1.0
C      1  0.5308680000000  0.4367620000000  0.4889560000000 1.0
C      1  0.4691310000000  0.5632330000000  0.4889470000000 1.0
C      1  0.4837140000000  0.5159700000000  0.5000620000000 1.0
C      1  0.5162980000000  0.4840200000000  0.5000680000000 1.0
C      1  0.4835790000000  0.4836540000000  0.4996060000000 1.0
C      1  0.5164490000000  0.5163480000000  0.4995830000000 1.0
C      1  0.4387130000000  0.5157320000000  0.5283650000000 1.0
C      1  0.5612880000000  0.4842620000000  0.5283760000000 1.0
C      1  0.4388180000000  0.4838310000000  0.5283340000000 1.0
C      1  0.5611850000000  0.5161810000000  0.5283250000000 1.0
C      1  0.4494650000000  0.4843480000000  0.5597490000000 1.0
C      1  0.5505330000000  0.5156480000000  0.5597520000000 1.0
C      1  0.4493280000000  0.5156350000000  0.5599440000000 1.0
C      1  0.5506720000000  0.4843640000000  0.5599530000000 1.0
C      1  0.5681590000000  0.4820090000000  0.4925900000000 1.0
C      1  0.4318440000000  0.5179890000000  0.4926020000000 1.0
C      1  0.5682530000000  0.5182720000000  0.4927140000000 1.0
C      1  0.4317380000000  0.4817220000000  0.4927180000000 1.0
C      1  0.4843920000000  0.4651630000000  0.4368170000000 1.0
C      1  0.5156470000000  0.5348450000000  0.4368410000000 1.0
C      1  0.4855050000000  0.5342500000000  0.4442180000000 1.0
C      1  0.5143850000000  0.4657400000000  0.4441900000000 1.0
C      1  0.4816600000000  0.5373610000000  0.4753130000000 1.0
C      1  0.5183300000000  0.4626270000000  0.4753660000000 1.0
C      1  0.4821710000000  0.4625930000000  0.4730630000000 1.0
C      1  0.5178180000000  0.5374200000000  0.4730670000000 1.0
END
