TITL C-3985251-913-181 -2.89245051227904e-07 125000 -320.269398756879 0 0 60 (C5) n - 1
REM
REM in /home/nfs/bkarasulu/CARBON/AIRSS/Generating-Clusters/TERSOFF/Higher-Symm/Only-C60
REM
REM
REM
REM
REM
REM ./C.cell (28575a23ae977d3b5fae324c64b13b57)
REM
REM compiler GCC version 9.2.1 20190827 (Red Hat 9.2.1-1)
REM options -cpp -mtune=generic -march=x86-64 -g -O0 -fpre-include=/usr/include/finclude/math-vector-fortran.h
REM seed 1943459564 -1665525884 211756864 1722197688 -1446078255 1492804439 1121388832 1168151766 1389327065 -861059705 -314499679 -1473901905 -1813479279 -854743128 1279484817 322771791 362692398 -220109410 -116420095 1858194139 1186800150 -1039512663 1271623160 -2028258904 1310718883 -1660679488 -778907018 -1143960370 1735712128 1659618489 -7339856 684241623 302748822
REM
CELL 1.54180   50.00000   50.00000   50.00000   90.00000   90.00000   90.00000
LATT -1
SFAC C  
C      1  0.4970890000000  0.4373270000000  0.4741850000000 1.0
C      1  0.4745480000000  0.4373270000000  0.4947910000000 1.0
C      1  0.4871810000000  0.4373270000000  0.5225960000000 1.0
C      1  0.5175280000000  0.4373260000000  0.5191740000000 1.0
C      1  0.5236520000000  0.4373260000000  0.4892540000000 1.0
C      1  0.5259290000000  0.4741440000000  0.5590550000000 1.0
C      1  0.5641770000000  0.4741430000000  0.4935880000000 1.0
C      1  0.5137340000000  0.4741430000000  0.4369830000000 1.0
C      1  0.4443110000000  0.4741440000000  0.4674650000000 1.0
C      1  0.4518480000000  0.4741440000000  0.5429090000000 1.0
C      1  0.5651770000000  0.4982920000000  0.5400700000000 1.0
C      1  0.5582490000000  0.4982920000000  0.4503960000000 1.0
C      1  0.4708230000000  0.4982930000000  0.4292730000000 1.0
C      1  0.4237190000000  0.4982930000000  0.5058930000000 1.0
C      1  0.4820320000000  0.4982930000000  0.5743690000000 1.0
C      1  0.5429470000000  0.4746580000000  0.4410220000000 1.0
C      1  0.4571790000000  0.4746580000000  0.4409300000000 1.0
C      1  0.4305880000000  0.4746590000000  0.5224710000000 1.0
C      1  0.4999220000000  0.4746580000000  0.5729580000000 1.0
C      1  0.5693630000000  0.4746580000000  0.5226200000000 1.0
C      1  0.5684220000000  0.5021340000000  0.4803750000000 1.0
C      1  0.5024790000000  0.5021340000000  0.4288620000000 1.0
C      1  0.4331100000000  0.5021350000000  0.4756590000000 1.0
C      1  0.4561810000000  0.5021350000000  0.5560950000000 1.0
C      1  0.5398080000000  0.5021340000000  0.5590090000000 1.0
C      1  0.4328960000000  0.5302130000000  0.5129230000000 1.0
C      1  0.4915540000000  0.5302130000000  0.5678130000000 1.0
C      1  0.5618840000000  0.5302120000000  0.5289880000000 1.0
C      1  0.5466920000000  0.5302120000000  0.4501030000000 1.0
C      1  0.4669740000000  0.5302130000000  0.4401740000000 1.0
C      1  0.4980290000000  0.5352090000000  0.4299580000000 1.0
C      1  0.4327770000000  0.5352100000000  0.4802310000000 1.0
C      1  0.4604260000000  0.5352100000000  0.5578240000000 1.0
C      1  0.5427650000000  0.5352090000000  0.5555060000000 1.0
C      1  0.5660050000000  0.5352090000000  0.4764810000000 1.0
C      1  0.5386900000000  0.4620510000000  0.4808530000000 1.0
C      1  0.4937460000000  0.4620510000000  0.4572870000000 1.0
C      1  0.4574450000000  0.4620520000000  0.4927490000000 1.0
C      1  0.4799530000000  0.4620520000000  0.5382320000000 1.0
C      1  0.5301650000000  0.4620510000000  0.5308800000000 1.0
C      1  0.4729600000000  0.4871400000000  0.5053640000000 1.0
C      1  0.4967450000000  0.4871400000000  0.5273740000000 1.0
C      1  0.5250290000000  0.4871400000000  0.5115550000000 1.0
C      1  0.5187230000000  0.4871400000000  0.4797670000000 1.0
C      1  0.4865430000000  0.4871400000000  0.4759410000000 1.0
C      1  0.5185670000000  0.5504200000000  0.4467380000000 1.0
C      1  0.4550820000000  0.5504210000000  0.4658830000000 1.0
C      1  0.4536730000000  0.5504210000000  0.5321770000000 1.0
C      1  0.5162870000000  0.5504210000000  0.5540030000000 1.0
C      1  0.5563930000000  0.5504200000000  0.5011990000000 1.0
C      1  0.4783440000000  0.5381400000000  0.5145430000000 1.0
C      1  0.5071390000000  0.5381400000000  0.5250910000000 1.0
C      1  0.5260690000000  0.5381400000000  0.5009640000000 1.0
C      1  0.5089730000000  0.5381400000000  0.4755050000000 1.0
C      1  0.4794770000000  0.5381400000000  0.4838970000000 1.0
C      1  0.4604480000000  0.5102710000000  0.5223380000000 1.0
C      1  0.5090230000000  0.5102710000000  0.5445190000000 1.0
C      1  0.5451280000000  0.5102700000000  0.5051760000000 1.0
C      1  0.5188680000000  0.5102700000000  0.4586800000000 1.0
C      1  0.4665330000000  0.5102710000000  0.4692870000000 1.0
END
