TITL C-3985245-9316-936 6.78840539316094e-07 125000 -323.97123118953 0 0 60 (D2h) n - 1
REM
REM in /home/nfs/bkarasulu/CARBON/AIRSS/Generating-Clusters/TERSOFF/Higher-Symm/Only-C60
REM
REM
REM
REM
REM
REM ./C.cell (28575a23ae977d3b5fae324c64b13b57)
REM
REM compiler GCC version 9.2.1 20190827 (Red Hat 9.2.1-1)
REM options -cpp -mtune=generic -march=x86-64 -g -O0 -fpre-include=/usr/include/finclude/math-vector-fortran.h
REM seed 1500367166 -1173325088 -1451714979 1697952377 1418091677 -323548890 796201691 1476608870 -518626512 1778238388 905177299 1613451555 1449473859 -596340591 1837742421 1566015325 -1451993257 -418730532 515635623 -118950660 413755967 1122589160 1786758051 655581839 1932123617 -1870366258 -401604132 -710560615 1007483882 1329765101 237217 1820594449 1204663040
REM
CELL 1.54180   50.00000   50.00000   50.00000   90.00000   90.00000   90.00000
LATT -1
SFAC C  
C      1  0.4747390000000  0.5592070000000  0.5294310000000 1.0
C      1  0.4747390000000  0.4407930000000  0.4705690000000 1.0
C      1  0.5252610000000  0.5592070000000  0.5294310000000 1.0
C      1  0.5252610000000  0.4407930000000  0.4705690000000 1.0
C      1  0.4747390000000  0.5592070000000  0.4705690000000 1.0
C      1  0.4747390000000  0.4407930000000  0.5294310000000 1.0
C      1  0.5252610000000  0.5592070000000  0.4705690000000 1.0
C      1  0.5252610000000  0.4407930000000  0.5294310000000 1.0
C      1  0.5843510000000  0.5158230000000  0.4841260000000 1.0
C      1  0.5843510000000  0.4841770000000  0.5158740000000 1.0
C      1  0.4156490000000  0.5158230000000  0.4841260000000 1.0
C      1  0.4156490000000  0.4841770000000  0.5158740000000 1.0
C      1  0.5843510000000  0.5158230000000  0.5158740000000 1.0
C      1  0.5843510000000  0.4841770000000  0.4841260000000 1.0
C      1  0.4156490000000  0.5158230000000  0.5158740000000 1.0
C      1  0.4156490000000  0.4841770000000  0.4841260000000 1.0
C      1  0.4601530000000  0.4836230000000  0.5436490000000 1.0
C      1  0.4601530000000  0.5163770000000  0.4563510000000 1.0
C      1  0.5398470000000  0.4836230000000  0.5436490000000 1.0
C      1  0.5398470000000  0.5163770000000  0.4563510000000 1.0
C      1  0.4601530000000  0.4836230000000  0.4563510000000 1.0
C      1  0.4601530000000  0.5163770000000  0.5436490000000 1.0
C      1  0.5398470000000  0.4836230000000  0.4563510000000 1.0
C      1  0.5398470000000  0.5163770000000  0.5436490000000 1.0
C      1  0.5163000000000  0.5390070000000  0.4461170000000 1.0
C      1  0.5163000000000  0.4609930000000  0.5538830000000 1.0
C      1  0.4837000000000  0.5390070000000  0.4461170000000 1.0
C      1  0.4837000000000  0.4609930000000  0.5538830000000 1.0
C      1  0.5163000000000  0.5390070000000  0.5538830000000 1.0
C      1  0.5163000000000  0.4609930000000  0.4461170000000 1.0
C      1  0.4837000000000  0.5390070000000  0.5538830000000 1.0
C      1  0.4837000000000  0.4609930000000  0.4461170000000 1.0
C      1  0.4488210000000  0.5543590000000  0.4847660000000 1.0
C      1  0.4488210000000  0.4456410000000  0.5152340000000 1.0
C      1  0.5511790000000  0.5543590000000  0.4847660000000 1.0
C      1  0.5511790000000  0.4456410000000  0.5152340000000 1.0
C      1  0.4488210000000  0.5543590000000  0.5152340000000 1.0
C      1  0.4488210000000  0.4456410000000  0.4847660000000 1.0
C      1  0.5511790000000  0.5543590000000  0.5152340000000 1.0
C      1  0.5511790000000  0.4456410000000  0.4847660000000 1.0
C      1  0.4791320000000  0.4834180000000  0.4832200000000 1.0
C      1  0.4791320000000  0.5165820000000  0.5167800000000 1.0
C      1  0.5208680000000  0.4834180000000  0.4832200000000 1.0
C      1  0.5208680000000  0.5165820000000  0.5167800000000 1.0
C      1  0.4791320000000  0.4834180000000  0.5167800000000 1.0
C      1  0.4791320000000  0.5165820000000  0.4832200000000 1.0
C      1  0.5208680000000  0.4834180000000  0.5167800000000 1.0
C      1  0.5208680000000  0.5165820000000  0.4832200000000 1.0
C      1  0.5635640000000  0.4689620000000  0.5294430000000 1.0
C      1  0.5635640000000  0.5310380000000  0.4705570000000 1.0
C      1  0.4364360000000  0.4689620000000  0.5294430000000 1.0
C      1  0.4364360000000  0.5310380000000  0.4705570000000 1.0
C      1  0.5635640000000  0.4689620000000  0.4705570000000 1.0
C      1  0.5635640000000  0.5310380000000  0.5294430000000 1.0
C      1  0.4364360000000  0.4689620000000  0.4705570000000 1.0
C      1  0.4364360000000  0.5310380000000  0.5294430000000 1.0
C      1  0.5000000000000  0.5451150000000  0.4843380000000 1.0
C      1  0.5000000000000  0.4548850000000  0.5156620000000 1.0
C      1  0.5000000000000  0.4548850000000  0.4843380000000 1.0
C      1  0.5000000000000  0.5451150000000  0.5156620000000 1.0
END
