TITL C-3985259-1859-1221 0.00891635095141846 125000 -317.097454888466 0 0 60 (C1) n - 1
REM
REM in /home/nfs/bkarasulu/CARBON/AIRSS/Generating-Clusters/TERSOFF/Higher-Symm/Only-C60
REM
REM
REM
REM
REM
REM ./C.cell (28575a23ae977d3b5fae324c64b13b57)
REM
REM compiler GCC version 9.2.1 20190827 (Red Hat 9.2.1-1)
REM options -cpp -mtune=generic -march=x86-64 -g -O0 -fpre-include=/usr/include/finclude/math-vector-fortran.h
REM seed -1437913752 1689084978 -165677414 1368065770 289865913 -2064967115 -1626613058 1162822520 -1989733471 -1369442457 505080649 -1560820107 -1636993718 -790752262 1458980779 -256475633 1637268007 -2146274924 1770316823 -783611131 1165684508 -591666894 -1368752875 -54991746 -1512501425 998498226 1104651049 -872540393 -1294092099 -395196844 1763727024 -493248618 -614333408
REM
CELL 1.54180   50.00000   50.00000   50.00000   90.00000   90.00000   90.00000
LATT -1
SFAC C  
C      1  0.5037340000000  0.5441840000000  0.5629800000000 1.0
C      1  0.5328110000000  0.5440240000000  0.5425560000000 1.0
C      1  0.5492000000000  0.5298910000000  0.4716330000000 1.0
C      1  0.4740150000000  0.5354980000000  0.4680780000000 1.0
C      1  0.5159800000000  0.4438400000000  0.4878620000000 1.0
C      1  0.5658410000000  0.4846760000000  0.4901070000000 1.0
C      1  0.5141250000000  0.4945520000000  0.4239380000000 1.0
C      1  0.5435520000000  0.4792120000000  0.5639500000000 1.0
C      1  0.5712000000000  0.5121000000000  0.5276120000000 1.0
C      1  0.5114530000000  0.4950880000000  0.5415300000000 1.0
C      1  0.5375740000000  0.5548930000000  0.5138260000000 1.0
C      1  0.5518460000000  0.4732320000000  0.4456150000000 1.0
C      1  0.4539410000000  0.5482060000000  0.5375190000000 1.0
C      1  0.4923100000000  0.4898170000000  0.5680820000000 1.0
C      1  0.4573630000000  0.4947260000000  0.4784260000000 1.0
C      1  0.4951450000000  0.5145640000000  0.4699530000000 1.0
C      1  0.5226970000000  0.5166350000000  0.5020560000000 1.0
C      1  0.4582590000000  0.4680490000000  0.4399020000000 1.0
C      1  0.5052190000000  0.5422970000000  0.4401170000000 1.0
C      1  0.4887820000000  0.4442190000000  0.4758090000000 1.0
C      1  0.4909560000000  0.4912040000000  0.4906150000000 1.0
C      1  0.5607780000000  0.5455480000000  0.4967360000000 1.0
C      1  0.4582000000000  0.5199530000000  0.4305770000000 1.0
C      1  0.5511430000000  0.4969670000000  0.5119210000000 1.0
C      1  0.4842600000000  0.4623840000000  0.4518890000000 1.0
C      1  0.4674850000000  0.4363620000000  0.4956580000000 1.0
C      1  0.5014300000000  0.4435200000000  0.5393090000000 1.0
C      1  0.4560270000000  0.5410790000000  0.4905130000000 1.0
C      1  0.4316620000000  0.4788790000000  0.4894630000000 1.0
C      1  0.4397880000000  0.4567490000000  0.5256600000000 1.0
C      1  0.5398600000000  0.4510740000000  0.4692300000000 1.0
C      1  0.5119450000000  0.5162870000000  0.5776790000000 1.0
C      1  0.4797140000000  0.4268380000000  0.5220230000000 1.0
C      1  0.4821280000000  0.4643410000000  0.5517180000000 1.0
C      1  0.4389710000000  0.4498920000000  0.4973340000000 1.0
C      1  0.4731760000000  0.5448970000000  0.4399540000000 1.0
C      1  0.4646120000000  0.5583570000000  0.5118600000000 1.0
C      1  0.5219170000000  0.4825010000000  0.4737710000000 1.0
C      1  0.5376100000000  0.4780050000000  0.4210780000000 1.0
C      1  0.4198840000000  0.5064240000000  0.5102930000000 1.0
C      1  0.4900470000000  0.5720470000000  0.5092430000000 1.0
C      1  0.4735360000000  0.5381420000000  0.5582200000000 1.0
C      1  0.5821330000000  0.5344280000000  0.5129050000000 1.0
C      1  0.5015540000000  0.4877130000000  0.4496530000000 1.0
C      1  0.4959750000000  0.5066190000000  0.5179300000000 1.0
C      1  0.4488750000000  0.5150390000000  0.5016990000000 1.0
C      1  0.4699560000000  0.5092910000000  0.5557400000000 1.0
C      1  0.4651310000000  0.5028380000000  0.5254130000000 1.0
C      1  0.5199900000000  0.4524330000000  0.5160310000000 1.0
C      1  0.5533120000000  0.4993180000000  0.4669980000000 1.0
C      1  0.4523910000000  0.4961440000000  0.4478500000000 1.0
C      1  0.5295180000000  0.4787530000000  0.5243350000000 1.0
C      1  0.5350940000000  0.5107730000000  0.5558920000000 1.0
C      1  0.4604840000000  0.4738120000000  0.5352690000000 1.0
C      1  0.5159750000000  0.5234730000000  0.4201030000000 1.0
C      1  0.5144640000000  0.5603190000000  0.4969480000000 1.0
C      1  0.5253610000000  0.4533610000000  0.5621280000000 1.0
C      1  0.4271420000000  0.5314010000000  0.5348680000000 1.0
C      1  0.5641560000000  0.4558040000000  0.4872070000000 1.0
C      1  0.5183090000000  0.5373300000000  0.4727400000000 1.0
END
