TITL C-3985250-725-602 9.22538322810979e-05 125000 -260.600243503304 0 0 60 (S10) n - 1
REM
REM in /home/nfs/bkarasulu/CARBON/AIRSS/Generating-Clusters/TERSOFF/Higher-Symm/Only-C60
REM
REM
REM
REM
REM
REM ./C.cell (28575a23ae977d3b5fae324c64b13b57)
REM
REM compiler GCC version 9.2.1 20190827 (Red Hat 9.2.1-1)
REM options -cpp -mtune=generic -march=x86-64 -g -O0 -fpre-include=/usr/include/finclude/math-vector-fortran.h
REM seed -1717734628 -376284253 789734984 -1724671872 951676462 -152028770 -2059281491 -830359695 -1221948282 1296057573 333765636 864028559 -1585980833 -662059767 -1311034549 405418183 442869280 1957000907 -1219346854 1432697592 1005923176 1662049465 1365312327 -890375129 -449424172 -1118648753 -315783653 -2085875856 632732906 1145820051 -1819519281 1366354589 -1428345835
REM
CELL 1.54180   50.00000   50.00000   50.00000   90.00000   90.00000   90.00000
LATT -1
SFAC C  
C      1  0.5598860000000  0.4733350000000  0.4692580000000 1.0
C      1  0.5665200000000  0.5266640000000  0.5103300000000 1.0
C      1  0.5477440000000  0.4733380000000  0.5474580000000 1.0
C      1  0.5107370000000  0.5266710000000  0.5664520000000 1.0
C      1  0.4696180000000  0.4733360000000  0.5600700000000 1.0
C      1  0.4401140000000  0.5266650000000  0.5307420000000 1.0
C      1  0.4334800000000  0.4733360000000  0.4896700000000 1.0
C      1  0.4522560000000  0.5266620000000  0.4525420000000 1.0
C      1  0.4892630000000  0.4733290000000  0.4335480000000 1.0
C      1  0.5303820000000  0.5266640000000  0.4399300000000 1.0
C      1  0.4568750000000  0.4905070000000  0.4761940000000 1.0
C      1  0.4791040000000  0.5095020000000  0.4554040000000 1.0
C      1  0.5093070000000  0.4905040000000  0.4516370000000 1.0
C      1  0.5359520000000  0.5094950000000  0.4663420000000 1.0
C      1  0.5488840000000  0.4905050000000  0.4939150000000 1.0
C      1  0.5431250000000  0.5094930000000  0.5238060000000 1.0
C      1  0.5208960000000  0.4904980000000  0.5445960000000 1.0
C      1  0.4906930000000  0.5094960000000  0.5483630000000 1.0
C      1  0.4640480000000  0.4905050000000  0.5336580000000 1.0
C      1  0.4511160000000  0.5094950000000  0.5060850000000 1.0
C      1  0.4962180000000  0.4615240000000  0.5622630000000 1.0
C      1  0.4603350000000  0.5384850000000  0.5481530000000 1.0
C      1  0.4396060000000  0.4615150000000  0.5156410000000 1.0
C      1  0.4419520000000  0.5384710000000  0.4771690000000 1.0
C      1  0.4664620000000  0.4615420000000  0.4474140000000 1.0
C      1  0.5037820000000  0.5384760000000  0.4377370000000 1.0
C      1  0.5396650000000  0.4615150000000  0.4518470000000 1.0
C      1  0.5603940000000  0.5384850000000  0.4843590000000 1.0
C      1  0.5580480000000  0.4615290000000  0.5228310000000 1.0
C      1  0.5335380000000  0.5384580000000  0.5525860000000 1.0
C      1  0.5671940000000  0.5208620000000  0.4598970000000 1.0
C      1  0.5779350000000  0.4791370000000  0.5070550000000 1.0
C      1  0.5589130000000  0.5208630000000  0.5515390000000 1.0
C      1  0.5173710000000  0.4791390000000  0.5763090000000 1.0
C      1  0.4692100000000  0.5208580000000  0.5719420000000 1.0
C      1  0.4328060000000  0.4791380000000  0.5401030000000 1.0
C      1  0.4220650000000  0.5208630000000  0.4929450000000 1.0
C      1  0.4410870000000  0.4791370000000  0.4484610000000 1.0
C      1  0.4826290000000  0.5208610000000  0.4236910000000 1.0
C      1  0.5307900000000  0.4791420000000  0.4280580000000 1.0
C      1  0.5264190000000  0.4275990000000  0.5011590000000 1.0
C      1  0.5206930000000  0.5724060000000  0.5164660000000 1.0
C      1  0.5070610000000  0.4275970000000  0.5254830000000 1.0
C      1  0.4907330000000  0.5724030000000  0.5247670000000 1.0
C      1  0.4779460000000  0.4275980000000  0.5145910000000 1.0
C      1  0.4735810000000  0.5724010000000  0.4988410000000 1.0
C      1  0.4793070000000  0.4275940000000  0.4835340000000 1.0
C      1  0.4929390000000  0.5724030000000  0.4745170000000 1.0
C      1  0.5092670000000  0.4275970000000  0.4752330000000 1.0
C      1  0.5220540000000  0.5724020000000  0.4854090000000 1.0
C      1  0.4777110000000  0.4608700000000  0.4788810000000 1.0
C      1  0.4943740000000  0.5391110000000  0.4698080000000 1.0
C      1  0.5132240000000  0.4608930000000  0.4722550000000 1.0
C      1  0.5269990000000  0.5391040000000  0.4853290000000 1.0
C      1  0.5304510000000  0.4608810000000  0.5040050000000 1.0
C      1  0.5222890000000  0.5391300000000  0.5211190000000 1.0
C      1  0.5056260000000  0.4608890000000  0.5301920000000 1.0
C      1  0.4867760000000  0.5391070000000  0.5277450000000 1.0
C      1  0.4730010000000  0.4608960000000  0.5146710000000 1.0
C      1  0.4695490000000  0.5391190000000  0.4959950000000 1.0
END
