TITL C-3985250-725-442 -3.52768136333325e-06 125000 -350.69956942667 0 0 60 (C4v) n - 1
REM
REM in /home/nfs/bkarasulu/CARBON/AIRSS/Generating-Clusters/TERSOFF/Higher-Symm/Only-C60
REM
REM
REM
REM
REM
REM ./C.cell (28575a23ae977d3b5fae324c64b13b57)
REM
REM compiler GCC version 9.2.1 20190827 (Red Hat 9.2.1-1)
REM options -cpp -mtune=generic -march=x86-64 -g -O0 -fpre-include=/usr/include/finclude/math-vector-fortran.h
REM seed -2066820033 847024163 -1413887862 -766852495 1944708466 1460046807 -1701989461 1241690685 1230541577 -428035211 342061483 1016652543 -1700724141 1854449981 -845025729 -1743307722 89122490 -1663811691 -1034538527 539014531 -1597444218 -1621661799 -885149310 1734282129 -1610780872 -854981160 1044014788 68837060 -2074976812 982370151 1307643270 85924137 2025510670
REM
CELL 1.54180   50.00000   50.00000   50.00000   90.00000   90.00000   90.00000
LATT -1
SFAC C  
C      1  0.5737980000000  0.5528630000000  0.5349660000000 1.0
C      1  0.5359220000000  0.5528640000000  0.5733370000000 1.0
C      1  0.5007100000000  0.5270820000000  0.6091630000000 1.0
C      1  0.4650340000000  0.5528640000000  0.5737980000000 1.0
C      1  0.4266630000000  0.5528640000000  0.5359220000000 1.0
C      1  0.3908370000000  0.5270820000000  0.5007100000000 1.0
C      1  0.4262020000000  0.5528640000000  0.4650340000000 1.0
C      1  0.4640780000000  0.5528640000000  0.4266630000000 1.0
C      1  0.4992900000000  0.5270820000000  0.3908370000000 1.0
C      1  0.5349660000000  0.5528640000000  0.4262020000000 1.0
C      1  0.5733370000000  0.5528640000000  0.4640780000000 1.0
C      1  0.6091630000000  0.5270820000000  0.4992900000000 1.0
C      1  0.5166790000000  0.5297110000000  0.4210800000000 1.0
C      1  0.5609640000000  0.5437480000000  0.4382380000000 1.0
C      1  0.5786970000000  0.5297110000000  0.4822970000000 1.0
C      1  0.5789200000000  0.5297110000000  0.5166790000000 1.0
C      1  0.5617620000000  0.5437480000000  0.5609640000000 1.0
C      1  0.5177030000000  0.5297110000000  0.5786970000000 1.0
C      1  0.4833210000000  0.5297110000000  0.5789200000000 1.0
C      1  0.4390360000000  0.5437480000000  0.5617620000000 1.0
C      1  0.4213030000000  0.5297110000000  0.5177030000000 1.0
C      1  0.4210800000000  0.5297110000000  0.4833210000000 1.0
C      1  0.4382380000000  0.5437480000000  0.4390360000000 1.0
C      1  0.4822970000000  0.5297110000000  0.4213030000000 1.0
C      1  0.4430400000000  0.5134860000000  0.5577050000000 1.0
C      1  0.4338900000000  0.5056230000000  0.5304240000000 1.0
C      1  0.4335000000000  0.5056230000000  0.4704380000000 1.0
C      1  0.4422950000000  0.5134860000000  0.4430400000000 1.0
C      1  0.4695760000000  0.5056230000000  0.4338900000000 1.0
C      1  0.5295620000000  0.5056230000000  0.4335000000000 1.0
C      1  0.5569600000000  0.5134860000000  0.4422950000000 1.0
C      1  0.5661100000000  0.5056230000000  0.4695760000000 1.0
C      1  0.5665000000000  0.5056230000000  0.5295620000000 1.0
C      1  0.5577050000000  0.5134860000000  0.5569600000000 1.0
C      1  0.5304240000000  0.5056230000000  0.5661100000000 1.0
C      1  0.4704380000000  0.5056230000000  0.5665000000000 1.0
C      1  0.5500280000000  0.4273070000000  0.5140980000000 1.0
C      1  0.5311830000000  0.4417630000000  0.5307800000000 1.0
C      1  0.5147470000000  0.4273080000000  0.5498410000000 1.0
C      1  0.4859020000000  0.4273070000000  0.5500280000000 1.0
C      1  0.4692200000000  0.4417630000000  0.5311830000000 1.0
C      1  0.4501590000000  0.4273080000000  0.5147470000000 1.0
C      1  0.4499720000000  0.4273070000000  0.4859020000000 1.0
C      1  0.4688170000000  0.4417630000000  0.4692200000000 1.0
C      1  0.4852530000000  0.4273080000000  0.4501590000000 1.0
C      1  0.5140980000000  0.4273070000000  0.4499720000000 1.0
C      1  0.5307800000000  0.4417630000000  0.4688170000000 1.0
C      1  0.5498410000000  0.4273080000000  0.4852530000000 1.0
C      1  0.5503570000000  0.4859820000000  0.4848740000000 1.0
C      1  0.5505490000000  0.4859820000000  0.5144700000000 1.0
C      1  0.5303000000000  0.4709470000000  0.5299090000000 1.0
C      1  0.5151260000000  0.4859820000000  0.5503570000000 1.0
C      1  0.4855300000000  0.4859820000000  0.5505490000000 1.0
C      1  0.4700910000000  0.4709470000000  0.5303000000000 1.0
C      1  0.4496430000000  0.4859820000000  0.5151260000000 1.0
C      1  0.4494510000000  0.4859820000000  0.4855300000000 1.0
C      1  0.4697000000000  0.4709470000000  0.4700910000000 1.0
C      1  0.4848740000000  0.4859820000000  0.4496430000000 1.0
C      1  0.5144700000000  0.4859820000000  0.4494510000000 1.0
C      1  0.5299090000000  0.4709470000000  0.4697000000000 1.0
END
