TITL C-3985244-725-260 4.71936509045319e-08 125000 -349.776006690244 0 0 60 (S4) n - 1
REM
REM in /home/nfs/bkarasulu/CARBON/AIRSS/Generating-Clusters/TERSOFF/Higher-Symm/Only-C60
REM
REM
REM
REM
REM
REM ./C.cell (28575a23ae977d3b5fae324c64b13b57)
REM
REM compiler GCC version 9.2.1 20190827 (Red Hat 9.2.1-1)
REM options -cpp -mtune=generic -march=x86-64 -g -O0 -fpre-include=/usr/include/finclude/math-vector-fortran.h
REM seed 398870819 951958254 -1045815600 -431756134 30129102 1351538124 -359481481 632791619 680988242 -416400029 1600274581 -1720281089 -226581345 1214232321 1161179728 -864327183 132029639 121050105 729680637 1621686191 -1629744607 -325651622 -934008988 -573441405 -1766136294 1528130050 1940608813 -1838378713 -1412933914 -952405721 1174459605 147083927 954176046
REM
CELL 1.54180   50.00000   50.00000   50.00000   90.00000   90.00000   90.00000
LATT -1
SFAC C  
C      1  0.5094200000000  0.4878310000000  0.4298220000000 1.0
C      1  0.5121690000000  0.5094200000000  0.5701780000000 1.0
C      1  0.4905800000000  0.5121690000000  0.4298220000000 1.0
C      1  0.4878310000000  0.4905800000000  0.5701780000000 1.0
C      1  0.5279870000000  0.5519730000000  0.5354660000000 1.0
C      1  0.4480270000000  0.5279870000000  0.4645340000000 1.0
C      1  0.4720130000000  0.4480270000000  0.5354660000000 1.0
C      1  0.5519730000000  0.4720130000000  0.4645340000000 1.0
C      1  0.4838060000000  0.5636640000000  0.4661000000000 1.0
C      1  0.4363360000000  0.4838060000000  0.5339000000000 1.0
C      1  0.5161940000000  0.4363360000000  0.4661000000000 1.0
C      1  0.5636640000000  0.5161940000000  0.5339000000000 1.0
C      1  0.5649880000000  0.4912620000000  0.4850520000000 1.0
C      1  0.5087380000000  0.5649880000000  0.5149480000000 1.0
C      1  0.4350120000000  0.5087380000000  0.4850520000000 1.0
C      1  0.4912620000000  0.4350120000000  0.5149480000000 1.0
C      1  0.4569570000000  0.4642610000000  0.4938230000000 1.0
C      1  0.5357390000000  0.4569570000000  0.5061770000000 1.0
C      1  0.5430430000000  0.5357390000000  0.4938230000000 1.0
C      1  0.4642610000000  0.5430430000000  0.5061770000000 1.0
C      1  0.4809470000000  0.5438970000000  0.5485510000000 1.0
C      1  0.4561030000000  0.4809470000000  0.4514490000000 1.0
C      1  0.5190530000000  0.4561030000000  0.5485510000000 1.0
C      1  0.5438970000000  0.5190530000000  0.4514490000000 1.0
C      1  0.5532910000000  0.4864430000000  0.5174160000000 1.0
C      1  0.5135570000000  0.5532910000000  0.4825840000000 1.0
C      1  0.4467090000000  0.5135570000000  0.5174160000000 1.0
C      1  0.4864430000000  0.4467090000000  0.4825840000000 1.0
C      1  0.5060740000000  0.5145680000000  0.5214970000000 1.0
C      1  0.4854320000000  0.5060740000000  0.4785030000000 1.0
C      1  0.4939260000000  0.4854320000000  0.5214970000000 1.0
C      1  0.5145680000000  0.4939260000000  0.4785030000000 1.0
C      1  0.5305790000000  0.4916760000000  0.4514340000000 1.0
C      1  0.5083240000000  0.5305790000000  0.5485660000000 1.0
C      1  0.4694210000000  0.5083240000000  0.4514340000000 1.0
C      1  0.4916760000000  0.4694210000000  0.5485660000000 1.0
C      1  0.5200150000000  0.4381650000000  0.5249470000000 1.0
C      1  0.5618350000000  0.5200150000000  0.4750530000000 1.0
C      1  0.4799850000000  0.5618350000000  0.5249470000000 1.0
C      1  0.4381650000000  0.4799850000000  0.4750530000000 1.0
C      1  0.5392560000000  0.4968140000000  0.5698850000000 1.0
C      1  0.5031860000000  0.5392560000000  0.4301150000000 1.0
C      1  0.4607440000000  0.5031860000000  0.5698850000000 1.0
C      1  0.4968140000000  0.4607440000000  0.4301150000000 1.0
C      1  0.5519520000000  0.5406940000000  0.5220840000000 1.0
C      1  0.4593060000000  0.5519520000000  0.4779160000000 1.0
C      1  0.4480480000000  0.4593060000000  0.5220840000000 1.0
C      1  0.5406940000000  0.4480480000000  0.4779160000000 1.0
C      1  0.4918080000000  0.5304080000000  0.4971350000000 1.0
C      1  0.4695920000000  0.4918080000000  0.5028650000000 1.0
C      1  0.5081920000000  0.4695920000000  0.4971350000000 1.0
C      1  0.5304080000000  0.5081920000000  0.5028650000000 1.0
C      1  0.5407980000000  0.4755790000000  0.5490140000000 1.0
C      1  0.5244210000000  0.5407980000000  0.4509860000000 1.0
C      1  0.4592020000000  0.5244210000000  0.5490140000000 1.0
C      1  0.4755790000000  0.4592020000000  0.4509860000000 1.0
C      1  0.4382550000000  0.4859540000000  0.5629830000000 1.0
C      1  0.5140460000000  0.4382550000000  0.4370170000000 1.0
C      1  0.5617450000000  0.5140460000000  0.5629830000000 1.0
C      1  0.4859540000000  0.5617450000000  0.4370170000000 1.0
END
