TITL C-3985257-5396-224 2.05876335251665e-07 125000 -253.777372385927 0 0 60 (Td) n - 1
REM
REM in /home/nfs/bkarasulu/CARBON/AIRSS/Generating-Clusters/TERSOFF/Higher-Symm/Only-C60
REM
REM
REM
REM
REM
REM ./C.cell (28575a23ae977d3b5fae324c64b13b57)
REM
REM compiler GCC version 9.2.1 20190827 (Red Hat 9.2.1-1)
REM options -cpp -mtune=generic -march=x86-64 -g -O0 -fpre-include=/usr/include/finclude/math-vector-fortran.h
REM seed 9294951 558087912 113280825 -387201832 91989877 473072863 -1616501774 -678926450 -909546929 1214626665 -1512912219 -340009442 871387862 551919696 899732445 -1815328748 1527544832 29979353 1244857038 -1557387267 -1793451173 79285419 -1736650615 -219026145 1273243770 1548763441 -1117208964 -39414090 2036946005 747680531 1061515289 -1604788062 931858287
REM
CELL 1.54180   50.00000   50.00000   50.00000   90.00000   90.00000   90.00000
LATT -1
SFAC C  
C      1  0.4767300000000  0.5007890000000  0.4137390000000 1.0
C      1  0.5007890000000  0.4137390000000  0.4767300000000 1.0
C      1  0.4137390000000  0.4767300000000  0.5007890000000 1.0
C      1  0.5232700000000  0.4992110000000  0.4137390000000 1.0
C      1  0.4767300000000  0.4992110000000  0.5862610000000 1.0
C      1  0.5232700000000  0.5007890000000  0.5862610000000 1.0
C      1  0.4992110000000  0.5862610000000  0.4767300000000 1.0
C      1  0.5007890000000  0.5862610000000  0.5232700000000 1.0
C      1  0.4992110000000  0.4137390000000  0.5232700000000 1.0
C      1  0.5862610000000  0.5232700000000  0.5007890000000 1.0
C      1  0.4137390000000  0.5232700000000  0.4992110000000 1.0
C      1  0.5862610000000  0.4767300000000  0.4992110000000 1.0
C      1  0.5007890000000  0.4767300000000  0.4137390000000 1.0
C      1  0.4137390000000  0.5007890000000  0.4767300000000 1.0
C      1  0.4767300000000  0.4137390000000  0.5007890000000 1.0
C      1  0.4992110000000  0.5232700000000  0.4137390000000 1.0
C      1  0.4992110000000  0.4767300000000  0.5862610000000 1.0
C      1  0.5007890000000  0.5232700000000  0.5862610000000 1.0
C      1  0.5862610000000  0.4992110000000  0.4767300000000 1.0
C      1  0.5862610000000  0.5007890000000  0.5232700000000 1.0
C      1  0.4137390000000  0.4992110000000  0.5232700000000 1.0
C      1  0.5232700000000  0.5862610000000  0.5007890000000 1.0
C      1  0.5232700000000  0.4137390000000  0.4992110000000 1.0
C      1  0.4767300000000  0.5862610000000  0.4992110000000 1.0
C      1  0.5589490000000  0.5345460000000  0.4883670000000 1.0
C      1  0.5345460000000  0.4883670000000  0.5589490000000 1.0
C      1  0.4883670000000  0.5589490000000  0.5345460000000 1.0
C      1  0.4410510000000  0.4654540000000  0.4883670000000 1.0
C      1  0.5589490000000  0.4654540000000  0.5116330000000 1.0
C      1  0.4410510000000  0.5345460000000  0.5116330000000 1.0
C      1  0.4654540000000  0.5116330000000  0.5589490000000 1.0
C      1  0.5345460000000  0.5116330000000  0.4410510000000 1.0
C      1  0.4654540000000  0.4883670000000  0.4410510000000 1.0
C      1  0.5116330000000  0.4410510000000  0.5345460000000 1.0
C      1  0.4883670000000  0.4410510000000  0.4654540000000 1.0
C      1  0.5116330000000  0.5589490000000  0.4654540000000 1.0
C      1  0.5345460000000  0.5589490000000  0.4883670000000 1.0
C      1  0.4883670000000  0.5345460000000  0.5589490000000 1.0
C      1  0.5589490000000  0.4883670000000  0.5345460000000 1.0
C      1  0.4654540000000  0.4410510000000  0.4883670000000 1.0
C      1  0.4654540000000  0.5589490000000  0.5116330000000 1.0
C      1  0.5345460000000  0.4410510000000  0.5116330000000 1.0
C      1  0.5116330000000  0.4654540000000  0.5589490000000 1.0
C      1  0.5116330000000  0.5345460000000  0.4410510000000 1.0
C      1  0.4883670000000  0.4654540000000  0.4410510000000 1.0
C      1  0.4410510000000  0.5116330000000  0.5345460000000 1.0
C      1  0.4410510000000  0.4883670000000  0.4654540000000 1.0
C      1  0.5589490000000  0.5116330000000  0.4654540000000 1.0
C      1  0.5001770000000  0.4742630000000  0.4742630000000 1.0
C      1  0.4742630000000  0.5001770000000  0.4742630000000 1.0
C      1  0.4998230000000  0.5257370000000  0.4742630000000 1.0
C      1  0.5001770000000  0.5257370000000  0.5257370000000 1.0
C      1  0.4998230000000  0.4742630000000  0.5257370000000 1.0
C      1  0.4742630000000  0.5257370000000  0.4998230000000 1.0
C      1  0.5257370000000  0.4742630000000  0.4998230000000 1.0
C      1  0.5257370000000  0.4998230000000  0.4742630000000 1.0
C      1  0.4742630000000  0.4998230000000  0.5257370000000 1.0
C      1  0.5257370000000  0.5001770000000  0.5257370000000 1.0
C      1  0.4742630000000  0.4742630000000  0.5001770000000 1.0
C      1  0.5257370000000  0.5257370000000  0.5001770000000 1.0
END
