TITL C-3985254-1270-125 0.00880549978757126 125000 -313.804813409713 0 0 60 (C3) n - 1
REM
REM in /home/nfs/bkarasulu/CARBON/AIRSS/Generating-Clusters/TERSOFF/Higher-Symm/Only-C60
REM
REM
REM
REM
REM
REM ./C.cell (28575a23ae977d3b5fae324c64b13b57)
REM
REM compiler GCC version 9.2.1 20190827 (Red Hat 9.2.1-1)
REM options -cpp -mtune=generic -march=x86-64 -g -O0 -fpre-include=/usr/include/finclude/math-vector-fortran.h
REM seed 1613553453 2037887918 -1879837166 -1319193904 -1027052764 -1005569557 810421401 1762264732 195040002 461979325 -1544251317 958885127 -1718931250 411859265 -757768219 1199710756 -1452527833 -1702576030 549634468 891861232 -1457936537 -1276560431 961931893 -208421681 -1524066000 25313165 1135183474 1963961114 -796200332 2089988113 -1790659898 113684573 1011188579
REM
CELL 1.54180   50.00000   50.00000   50.00000   90.00000   90.00000   90.00000
LATT -1
SFAC C  
C      1  0.4645980000000  0.4791360000000  0.4478920000000 1.0
C      1  0.5628140000000  0.4791360000000  0.4954080000000 1.0
C      1  0.4725720000000  0.4791250000000  0.5566710000000 1.0
C      1  0.5264560000000  0.4351020000000  0.4523230000000 1.0
C      1  0.5280620000000  0.4350930000000  0.5467320000000 1.0
C      1  0.4454670000000  0.4350410000000  0.5009100000000 1.0
C      1  0.4757250000000  0.5572120000000  0.4641540000000 1.0
C      1  0.5431790000000  0.5572270000000  0.4969120000000 1.0
C      1  0.4810910000000  0.5572310000000  0.5389530000000 1.0
C      1  0.5342600000000  0.5144870000000  0.5199010000000 1.0
C      1  0.4656800000000  0.5144830000000  0.5197130000000 1.0
C      1  0.5001050000000  0.5144660000000  0.4603990000000 1.0
C      1  0.5671210000000  0.5388490000000  0.5009500000000 1.0
C      1  0.4655910000000  0.5388460000000  0.5576470000000 1.0
C      1  0.4672800000000  0.5388180000000  0.4413700000000 1.0
C      1  0.5098240000000  0.5516520000000  0.5375420000000 1.0
C      1  0.4625620000000  0.5516600000000  0.4897060000000 1.0
C      1  0.5276010000000  0.5516520000000  0.4727450000000 1.0
C      1  0.5474810000000  0.5134030000000  0.4447430000000 1.0
C      1  0.5241150000000  0.5133970000000  0.5687600000000 1.0
C      1  0.4283750000000  0.5134110000000  0.4865800000000 1.0
C      1  0.5138090000000  0.4756740000000  0.4434040000000 1.0
C      1  0.5421000000000  0.4757030000000  0.5402350000000 1.0
C      1  0.4441010000000  0.4757240000000  0.5163500000000 1.0
C      1  0.4547090000000  0.5240290000000  0.4950070000000 1.0
C      1  0.5269980000000  0.5240450000000  0.4632890000000 1.0
C      1  0.5183010000000  0.5240450000000  0.5417570000000 1.0
C      1  0.5660140000000  0.4876590000000  0.5255940000000 1.0
C      1  0.4448380000000  0.4876670000000  0.5443510000000 1.0
C      1  0.4891760000000  0.4876400000000  0.4300450000000 1.0
C      1  0.5037280000000  0.5678210000000  0.4652910000000 1.0
C      1  0.5281960000000  0.5678400000000  0.5205990000000 1.0
C      1  0.4680650000000  0.5678360000000  0.5141280000000 1.0
C      1  0.4710440000000  0.4715590000000  0.4997050000000 1.0
C      1  0.5147680000000  0.4714960000000  0.4751130000000 1.0
C      1  0.5141880000000  0.4715340000000  0.5252270000000 1.0
C      1  0.5188330000000  0.4837540000000  0.5778940000000 1.0
C      1  0.4230810000000  0.4838420000000  0.4773590000000 1.0
C      1  0.5580480000000  0.4837790000000  0.4447520000000 1.0
C      1  0.5638730000000  0.5197460000000  0.5240350000000 1.0
C      1  0.4472610000000  0.5197270000000  0.5432910000000 1.0
C      1  0.4888900000000  0.5197420000000  0.4326840000000 1.0
C      1  0.5283480000000  0.4888070000000  0.5028210000000 1.0
C      1  0.4833900000000  0.4888370000000  0.5231000000000 1.0
C      1  0.4883060000000  0.4887970000000  0.4740230000000 1.0
C      1  0.5793860000000  0.5259520000000  0.4775270000000 1.0
C      1  0.4797680000000  0.5259640000000  0.5800170000000 1.0
C      1  0.4408260000000  0.5259420000000  0.4424280000000 1.0
C      1  0.4788740000000  0.4405280000000  0.5013700000000 1.0
C      1  0.5093630000000  0.4404970000000  0.4810140000000 1.0
C      1  0.5117530000000  0.4405260000000  0.5175910000000 1.0
C      1  0.4375480000000  0.4971280000000  0.4471600000000 1.0
C      1  0.5769280000000  0.4971030000000  0.4722750000000 1.0
C      1  0.4855630000000  0.4971090000000  0.5805120000000 1.0
C      1  0.4515360000000  0.4687470000000  0.4746870000000 1.0
C      1  0.5461190000000  0.4687210000000  0.4706860000000 1.0
C      1  0.5023010000000  0.4687080000000  0.5546040000000 1.0
C      1  0.5359710000000  0.4588220000000  0.4313190000000 1.0
C      1  0.5415420000000  0.4588040000000  0.5655010000000 1.0
C      1  0.4224980000000  0.4587190000000  0.5032420000000 1.0
END
