TITL C-3985247-764-191 -0.00361410226403598 125000 -320.642975889894 0 0 60 (C1) n - 1
REM
REM in /home/nfs/bkarasulu/CARBON/AIRSS/Generating-Clusters/TERSOFF/Higher-Symm/Only-C60
REM
REM
REM
REM
REM
REM ./C.cell (28575a23ae977d3b5fae324c64b13b57)
REM
REM compiler GCC version 9.2.1 20190827 (Red Hat 9.2.1-1)
REM options -cpp -mtune=generic -march=x86-64 -g -O0 -fpre-include=/usr/include/finclude/math-vector-fortran.h
REM seed 1043617345 486727911 1612987603 -1403634841 -1254856023 -2026548264 -691056258 885962428 1853227921 2139727728 -1955756283 -1734466787 786450752 751729209 -543897986 1945839725 -1820943764 202753493 1071246350 -1558642605 -1965006210 1897300512 -1870401224 -394423902 -88053589 -1056660993 2005637474 -108313693 19059104 968242123 968323135 2053745639 1045095127
REM
CELL 1.54180   50.00000   50.00000   50.00000   90.00000   90.00000   90.00000
LATT -1
SFAC C  
C      1  0.4926150000000  0.4415830000000  0.5074150000000 1.0
C      1  0.5081130000000  0.5581780000000  0.5068340000000 1.0
C      1  0.5362550000000  0.4729260000000  0.5014490000000 1.0
C      1  0.4619830000000  0.5271680000000  0.4993740000000 1.0
C      1  0.5066450000000  0.4565300000000  0.5509540000000 1.0
C      1  0.4960130000000  0.5440480000000  0.5510150000000 1.0
C      1  0.5057510000000  0.4385880000000  0.4823480000000 1.0
C      1  0.4943100000000  0.5603390000000  0.4817050000000 1.0
C      1  0.5398450000000  0.4652900000000  0.4582990000000 1.0
C      1  0.4593930000000  0.5342320000000  0.4572850000000 1.0
C      1  0.4926830000000  0.4503710000000  0.4594890000000 1.0
C      1  0.5071790000000  0.5493200000000  0.4582690000000 1.0
C      1  0.4585500000000  0.4861240000000  0.4559660000000 1.0
C      1  0.5411770000000  0.5127860000000  0.4558370000000 1.0
C      1  0.4501070000000  0.5185880000000  0.5459660000000 1.0
C      1  0.5527040000000  0.4808850000000  0.5454230000000 1.0
C      1  0.4424520000000  0.4870810000000  0.5100010000000 1.0
C      1  0.5599160000000  0.5123980000000  0.5096410000000 1.0
C      1  0.5323060000000  0.5071190000000  0.4903920000000 1.0
C      1  0.4684040000000  0.4927510000000  0.4897900000000 1.0
C      1  0.4521870000000  0.4896540000000  0.5389690000000 1.0
C      1  0.5515940000000  0.5098500000000  0.5388080000000 1.0
C      1  0.4243910000000  0.5092330000000  0.4948130000000 1.0
C      1  0.5743180000000  0.4887210000000  0.4936710000000 1.0
C      1  0.4694150000000  0.4911060000000  0.4253810000000 1.0
C      1  0.5299630000000  0.5080470000000  0.4238760000000 1.0
C      1  0.5350350000000  0.5422390000000  0.4590470000000 1.0
C      1  0.4647110000000  0.4568850000000  0.4601330000000 1.0
C      1  0.4671390000000  0.5497320000000  0.4814760000000 1.0
C      1  0.5321670000000  0.4506350000000  0.4826340000000 1.0
C      1  0.4888870000000  0.5274130000000  0.4468520000000 1.0
C      1  0.5105380000000  0.4725760000000  0.4487540000000 1.0
C      1  0.4396900000000  0.5109330000000  0.4651400000000 1.0
C      1  0.5596700000000  0.4877490000000  0.4650750000000 1.0
C      1  0.4805580000000  0.4752960000000  0.5453610000000 1.0
C      1  0.5243460000000  0.5249370000000  0.5458890000000 1.0
C      1  0.5604970000000  0.4689620000000  0.5190910000000 1.0
C      1  0.4396970000000  0.5301870000000  0.5198380000000 1.0
C      1  0.5311820000000  0.4695130000000  0.5626020000000 1.0
C      1  0.4716220000000  0.5313240000000  0.5629990000000 1.0
C      1  0.5075670000000  0.4727090000000  0.4205810000000 1.0
C      1  0.4922130000000  0.5256170000000  0.4182350000000 1.0
C      1  0.5075490000000  0.4345370000000  0.5317850000000 1.0
C      1  0.4941370000000  0.5653930000000  0.5314130000000 1.0
C      1  0.5237900000000  0.5333260000000  0.5136540000000 1.0
C      1  0.4796880000000  0.4680900000000  0.5136630000000 1.0
C      1  0.5262980000000  0.4837540000000  0.5871090000000 1.0
C      1  0.4769390000000  0.5192570000000  0.5885720000000 1.0
C      1  0.4976250000000  0.4923640000000  0.3775080000000 1.0
C      1  0.4946170000000  0.5079570000000  0.6449280000000 1.0
C      1  0.4998280000000  0.5005970000000  0.6724900000000 1.0
C      1  0.4903130000000  0.5110460000000  0.5257050000000 1.0
C      1  0.5011920000000  0.5045610000000  0.3277940000000 1.0
C      1  0.5028240000000  0.5110050000000  0.3560620000000 1.0
C      1  0.5000270000000  0.4994580000000  0.5928490000000 1.0
C      1  0.4999450000000  0.5018670000000  0.4963450000000 1.0
C      1  0.4994110000000  0.4979970000000  0.4066740000000 1.0
C      1  0.4976500000000  0.4902050000000  0.6221820000000 1.0
C      1  0.4996280000000  0.5004840000000  0.4628010000000 1.0
C      1  0.5010240000000  0.5002800000000  0.5565140000000 1.0
END
