TITL C-3985259-1859-1087 0.0508813502217795 125000 -204.728188362187 0 0 60 (C4h) n - 1
REM
REM in /home/nfs/bkarasulu/CARBON/AIRSS/Generating-Clusters/TERSOFF/Higher-Symm/Only-C60
REM
REM
REM
REM
REM
REM ./C.cell (28575a23ae977d3b5fae324c64b13b57)
REM
REM compiler GCC version 9.2.1 20190827 (Red Hat 9.2.1-1)
REM options -cpp -mtune=generic -march=x86-64 -g -O0 -fpre-include=/usr/include/finclude/math-vector-fortran.h
REM seed 2093245399 881155367 -1761111572 525087191 903518285 -818174471 115025145 -2052671971 -118926881 -1794156256 -203378521 -306449619 1431337290 1477319291 1665171148 -875851576 350666037 -1480949063 535967228 1815994942 -2134668698 -724276440 162469279 -2142367925 -574135081 -405371187 -772990821 -1389276168 -1905348577 -1011321608 -392184484 -1583552501 839981810
REM
CELL 1.54180   50.00000   50.00000   50.00000   90.00000   90.00000   90.00000
LATT -1
SFAC C  
C      1  0.4851960000000  0.4289710000000  0.4788920000000 1.0
C      1  0.5211080000000  0.4289710000000  0.4851960000000 1.0
C      1  0.5148040000000  0.4289710000000  0.5211080000000 1.0
C      1  0.4788920000000  0.4289710000000  0.5148040000000 1.0
C      1  0.4851960000000  0.5721400000000  0.4788920000000 1.0
C      1  0.5211080000000  0.5721400000000  0.4851960000000 1.0
C      1  0.5148040000000  0.5721400000000  0.5211080000000 1.0
C      1  0.4788920000000  0.5721400000000  0.5148040000000 1.0
C      1  0.4400430000000  0.4667600000000  0.5038270000000 1.0
C      1  0.4961730000000  0.4667600000000  0.4400430000000 1.0
C      1  0.5599570000000  0.4667600000000  0.4961730000000 1.0
C      1  0.5038270000000  0.4667600000000  0.5599570000000 1.0
C      1  0.4400430000000  0.5343520000000  0.5038270000000 1.0
C      1  0.4961730000000  0.5343520000000  0.4400430000000 1.0
C      1  0.5599570000000  0.5343520000000  0.4961730000000 1.0
C      1  0.5038270000000  0.5343520000000  0.5599570000000 1.0
C      1  0.4693960000000  0.5547640000000  0.4530290000000 1.0
C      1  0.5469710000000  0.5547640000000  0.4693960000000 1.0
C      1  0.5306040000000  0.5547640000000  0.5469710000000 1.0
C      1  0.4530290000000  0.5547640000000  0.5306040000000 1.0
C      1  0.4693960000000  0.4463470000000  0.4530290000000 1.0
C      1  0.5469710000000  0.4463470000000  0.4693960000000 1.0
C      1  0.5306040000000  0.4463470000000  0.5469710000000 1.0
C      1  0.4530290000000  0.4463470000000  0.5306040000000 1.0
C      1  0.5436400000000  0.4854770000000  0.5385360000000 1.0
C      1  0.4614640000000  0.4854770000000  0.5436400000000 1.0
C      1  0.4563600000000  0.4854770000000  0.4614640000000 1.0
C      1  0.5385360000000  0.4854770000000  0.4563600000000 1.0
C      1  0.5436400000000  0.5156340000000  0.5385370000000 1.0
C      1  0.4614630000000  0.5156340000000  0.5436400000000 1.0
C      1  0.4563600000000  0.5156340000000  0.4614630000000 1.0
C      1  0.5385370000000  0.5156340000000  0.4563600000000 1.0
C      1  0.4394040000000  0.5406910000000  0.4679120000000 1.0
C      1  0.5320880000000  0.5406910000000  0.4394040000000 1.0
C      1  0.5605960000000  0.5406910000000  0.5320880000000 1.0
C      1  0.4679120000000  0.5406910000000  0.5605960000000 1.0
C      1  0.4394030000000  0.4604200000000  0.4679110000000 1.0
C      1  0.5320890000000  0.4604200000000  0.4394030000000 1.0
C      1  0.5605970000000  0.4604200000000  0.5320890000000 1.0
C      1  0.4679110000000  0.4604200000000  0.5605970000000 1.0
C      1  0.4780450000000  0.4836820000000  0.5165170000000 1.0
C      1  0.4834830000000  0.4836820000000  0.4780450000000 1.0
C      1  0.5219550000000  0.4836820000000  0.4834830000000 1.0
C      1  0.5165170000000  0.4836820000000  0.5219550000000 1.0
C      1  0.4780440000000  0.5174300000000  0.5165180000000 1.0
C      1  0.4834820000000  0.5174300000000  0.4780440000000 1.0
C      1  0.5219560000000  0.5174300000000  0.4834820000000 1.0
C      1  0.5165180000000  0.5174300000000  0.5219560000000 1.0
C      1  0.5048480000000  0.5434160000000  0.4706790000000 1.0
C      1  0.5293210000000  0.5434160000000  0.5048480000000 1.0
C      1  0.4951520000000  0.5434160000000  0.5293210000000 1.0
C      1  0.4706790000000  0.5434160000000  0.4951520000000 1.0
C      1  0.5048480000000  0.4576960000000  0.4706800000000 1.0
C      1  0.5293200000000  0.4576960000000  0.5048480000000 1.0
C      1  0.4951520000000  0.4576960000000  0.5293200000000 1.0
C      1  0.4706800000000  0.4576960000000  0.4951520000000 1.0
C      1  0.5650710000000  0.5005560000000  0.4907260000000 1.0
C      1  0.5092740000000  0.5005560000000  0.5650710000000 1.0
C      1  0.4349290000000  0.5005560000000  0.5092740000000 1.0
C      1  0.4907260000000  0.5005560000000  0.4349290000000 1.0
END
