TITL C-3985253-1688-178 0.00729991981034662 125000 -315.99233878497 0 0 60 (C3) n - 1
REM
REM in /home/nfs/bkarasulu/CARBON/AIRSS/Generating-Clusters/TERSOFF/Higher-Symm/Only-C60
REM
REM
REM
REM
REM
REM ./C.cell (28575a23ae977d3b5fae324c64b13b57)
REM
REM compiler GCC version 9.2.1 20190827 (Red Hat 9.2.1-1)
REM options -cpp -mtune=generic -march=x86-64 -g -O0 -fpre-include=/usr/include/finclude/math-vector-fortran.h
REM seed -341646905 -686701309 1761164614 2104218753 -2046504741 -584745034 -474948849 -289535725 360750006 -356214281 1967756908 -1724083506 -87685942 -704230075 -1164348539 -1895205071 89257261 -1165143340 228781214 -1520100563 -854262067 1837801813 -587411410 -921066761 -1339563333 2070253914 -424890731 830592644 -485455307 1940354728 1176299846 622195619 1728574348
REM
CELL 1.54180   50.00000   50.00000   50.00000   90.00000   90.00000   90.00000
LATT -1
SFAC C  
C      1  0.4252570000000  0.4974930000000  0.4728410000000 1.0
C      1  0.5351960000000  0.5659100000000  0.4728130000000 1.0
C      1  0.5395040000000  0.4365940000000  0.4728080000000 1.0
C      1  0.4213880000000  0.4895570000000  0.5295690000000 1.0
C      1  0.5303590000000  0.5733290000000  0.5295500000000 1.0
C      1  0.5483330000000  0.4370650000000  0.5295480000000 1.0
C      1  0.4507660000000  0.5390070000000  0.4837660000000 1.0
C      1  0.5584720000000  0.5231210000000  0.4838070000000 1.0
C      1  0.4907410000000  0.4378620000000  0.4837890000000 1.0
C      1  0.5046460000000  0.4278760000000  0.5088210000000 1.0
C      1  0.4351750000000  0.5320100000000  0.5087650000000 1.0
C      1  0.5601990000000  0.5400710000000  0.5088130000000 1.0
C      1  0.4932730000000  0.4662160000000  0.5544370000000 1.0
C      1  0.4741410000000  0.5226570000000  0.5544590000000 1.0
C      1  0.5324230000000  0.5110030000000  0.5544500000000 1.0
C      1  0.5439250000000  0.4794090000000  0.5081840000000 1.0
C      1  0.4603320000000  0.4723090000000  0.5081650000000 1.0
C      1  0.4958270000000  0.5484100000000  0.5081810000000 1.0
C      1  0.5257890000000  0.4398180000000  0.5524550000000 1.0
C      1  0.4350330000000  0.5077650000000  0.5522940000000 1.0
C      1  0.5391730000000  0.5524280000000  0.5524520000000 1.0
C      1  0.5452350000000  0.5658690000000  0.5032510000000 1.0
C      1  0.5344530000000  0.4279120000000  0.5032540000000 1.0
C      1  0.4202570000000  0.5062330000000  0.5032050000000 1.0
C      1  0.4478880000000  0.4570120000000  0.4877840000000 1.0
C      1  0.4888110000000  0.5665640000000  0.4877840000000 1.0
C      1  0.5632560000000  0.4764320000000  0.4877860000000 1.0
C      1  0.4960930000000  0.5578900000000  0.4418130000000 1.0
C      1  0.5520750000000  0.4745050000000  0.4418670000000 1.0
C      1  0.4517920000000  0.4676460000000  0.4418880000000 1.0
C      1  0.4738290000000  0.5182480000000  0.4805170000000 1.0
C      1  0.5289180000000  0.5136340000000  0.4805560000000 1.0
C      1  0.4972260000000  0.4680900000000  0.4804320000000 1.0
C      1  0.5062590000000  0.5710830000000  0.4656490000000 1.0
C      1  0.5583930000000  0.4590560000000  0.4656490000000 1.0
C      1  0.4353350000000  0.4699290000000  0.4656930000000 1.0
C      1  0.4454000000000  0.5349040000000  0.5386880000000 1.0
C      1  0.5575200000000  0.5298000000000  0.5387790000000 1.0
C      1  0.4970700000000  0.4352430000000  0.5387660000000 1.0
C      1  0.5137820000000  0.5242210000000  0.5034390000000 1.0
C      1  0.5141540000000  0.4758030000000  0.5035270000000 1.0
C      1  0.4721090000000  0.4997800000000  0.5035200000000 1.0
C      1  0.5073510000000  0.5367240000000  0.5596650000000 1.0
C      1  0.5281070000000  0.4753890000000  0.5595780000000 1.0
C      1  0.4647310000000  0.4879900000000  0.5596010000000 1.0
C      1  0.4731050000000  0.5115240000000  0.4482780000000 1.0
C      1  0.5235220000000  0.5176320000000  0.4483880000000 1.0
C      1  0.5034800000000  0.4708500000000  0.4483640000000 1.0
C      1  0.4472630000000  0.4719030000000  0.5344370000000 1.0
C      1  0.5020620000000  0.5597390000000  0.5343960000000 1.0
C      1  0.5506370000000  0.4683430000000  0.5344090000000 1.0
C      1  0.4393400000000  0.5210450000000  0.4569540000000 1.0
C      1  0.5485570000000  0.5419890000000  0.4568320000000 1.0
C      1  0.5120330000000  0.4371050000000  0.4569340000000 1.0
C      1  0.5265100000000  0.4880170000000  0.4402780000000 1.0
C      1  0.4762960000000  0.4830620000000  0.4402270000000 1.0
C      1  0.4971240000000  0.5290090000000  0.4402440000000 1.0
C      1  0.4995390000000  0.4811840000000  0.5291830000000 1.0
C      1  0.4840500000000  0.5097430000000  0.5292030000000 1.0
C      1  0.5164870000000  0.5089860000000  0.5292130000000 1.0
END
