TITL C-3985259-1859-615 0.0302750032903686 125000 -297.655712743999 0 0 60 (C1) n - 1
REM
REM in /home/nfs/bkarasulu/CARBON/AIRSS/Generating-Clusters/TERSOFF/Higher-Symm/Only-C60
REM
REM
REM
REM
REM
REM ./C.cell (28575a23ae977d3b5fae324c64b13b57)
REM
REM compiler GCC version 9.2.1 20190827 (Red Hat 9.2.1-1)
REM options -cpp -mtune=generic -march=x86-64 -g -O0 -fpre-include=/usr/include/finclude/math-vector-fortran.h
REM seed 623495933 -1041200321 543526270 1840835578 787271966 -1834666692 -2039528408 -1006452472 1549211456 1877213369 1676526386 -83023503 597474606 -1951379282 1994134583 -1348923600 -278750866 -1131925562 386712635 358823532 -1101718948 -652455685 1972042129 -1556587399 513838721 1543840290 833963312 -1079370517 808569233 -178146663 1989860998 -1816791337 2115715935
REM
CELL 1.54180   50.00000   50.00000   50.00000   90.00000   90.00000   90.00000
LATT -1
SFAC C  
C      1  0.4486390000000  0.5072450000000  0.4964760000000 1.0
C      1  0.4353080000000  0.4798660000000  0.4862140000000 1.0
C      1  0.4838360000000  0.5490700000000  0.4833350000000 1.0
C      1  0.4349760000000  0.5132650000000  0.5248690000000 1.0
C      1  0.5412730000000  0.5564710000000  0.4543760000000 1.0
C      1  0.5014400000000  0.4394750000000  0.5588360000000 1.0
C      1  0.5101830000000  0.5657200000000  0.4969560000000 1.0
C      1  0.5174430000000  0.5212550000000  0.5573610000000 1.0
C      1  0.5163220000000  0.5674480000000  0.4641770000000 1.0
C      1  0.4779980000000  0.4802460000000  0.4543050000000 1.0
C      1  0.4946520000000  0.4817450000000  0.5506340000000 1.0
C      1  0.5266240000000  0.4925190000000  0.5108120000000 1.0
C      1  0.5283250000000  0.4374750000000  0.4907150000000 1.0
C      1  0.4926820000000  0.5079310000000  0.4465940000000 1.0
C      1  0.5113850000000  0.5263630000000  0.4260980000000 1.0
C      1  0.5091350000000  0.4731330000000  0.5245830000000 1.0
C      1  0.5390790000000  0.5347300000000  0.4343620000000 1.0
C      1  0.4784230000000  0.4300930000000  0.5005530000000 1.0
C      1  0.5447720000000  0.4572990000000  0.4754020000000 1.0
C      1  0.4691970000000  0.5441660000000  0.5228210000000 1.0
C      1  0.4590020000000  0.5131880000000  0.5592580000000 1.0
C      1  0.5600500000000  0.4812680000000  0.4869350000000 1.0
C      1  0.4386770000000  0.4871750000000  0.5433170000000 1.0
C      1  0.4485690000000  0.4897320000000  0.4582430000000 1.0
C      1  0.4688720000000  0.4538970000000  0.4852720000000 1.0
C      1  0.4993250000000  0.4513020000000  0.4537400000000 1.0
C      1  0.5399500000000  0.5287840000000  0.4938690000000 1.0
C      1  0.5275120000000  0.4624100000000  0.4507080000000 1.0
C      1  0.5141120000000  0.4854050000000  0.4831690000000 1.0
C      1  0.5178030000000  0.5207210000000  0.5149500000000 1.0
C      1  0.4720730000000  0.5322290000000  0.4396170000000 1.0
C      1  0.4849610000000  0.4786460000000  0.4869300000000 1.0
C      1  0.5223700000000  0.4923940000000  0.4509910000000 1.0
C      1  0.4678810000000  0.4738450000000  0.5407330000000 1.0
C      1  0.4794780000000  0.5188380000000  0.4786050000000 1.0
C      1  0.4361440000000  0.4642170000000  0.5154370000000 1.0
C      1  0.4579860000000  0.5543100000000  0.4962450000000 1.0
C      1  0.5602350000000  0.5490140000000  0.5058590000000 1.0
C      1  0.5740340000000  0.5215510000000  0.5173070000000 1.0
C      1  0.5016320000000  0.4295240000000  0.4758240000000 1.0
C      1  0.5230000000000  0.5504970000000  0.5479160000000 1.0
C      1  0.5177370000000  0.4263590000000  0.5385670000000 1.0
C      1  0.5136980000000  0.4666450000000  0.5703720000000 1.0
C      1  0.5463120000000  0.5092940000000  0.4467470000000 1.0
C      1  0.5599000000000  0.4935010000000  0.5172160000000 1.0
C      1  0.4881600000000  0.5202040000000  0.5194640000000 1.0
C      1  0.4558430000000  0.4382340000000  0.5219540000000 1.0
C      1  0.4713230000000  0.4435450000000  0.5487760000000 1.0
C      1  0.4893300000000  0.5089280000000  0.5602890000000 1.0
C      1  0.4860180000000  0.5577670000000  0.4521750000000 1.0
C      1  0.4740790000000  0.4938300000000  0.5120540000000 1.0
C      1  0.5571820000000  0.4848770000000  0.5454830000000 1.0
C      1  0.5639660000000  0.5568910000000  0.4741110000000 1.0
C      1  0.4460640000000  0.5210490000000  0.4528380000000 1.0
C      1  0.5313270000000  0.5601160000000  0.5199930000000 1.0
C      1  0.5524430000000  0.5084210000000  0.4757590000000 1.0
C      1  0.5091250000000  0.4432300000000  0.5150120000000 1.0
C      1  0.5344780000000  0.4920090000000  0.5620450000000 1.0
C      1  0.4478530000000  0.5366050000000  0.5418140000000 1.0
C      1  0.4398050000000  0.5340320000000  0.4809320000000 1.0
END
