TITL C-3985244-725-517 0.00152426512959601 125000 -307.680297232377 0 0 60 (C1) n - 1
REM
REM in /home/nfs/bkarasulu/CARBON/AIRSS/Generating-Clusters/TERSOFF/Higher-Symm/Only-C60
REM
REM
REM
REM
REM
REM ./C.cell (28575a23ae977d3b5fae324c64b13b57)
REM
REM compiler GCC version 9.2.1 20190827 (Red Hat 9.2.1-1)
REM options -cpp -mtune=generic -march=x86-64 -g -O0 -fpre-include=/usr/include/finclude/math-vector-fortran.h
REM seed 931398743 117091018 -104707564 -2092173735 -1292286842 -1377939655 1677809698 -1903687181 -1662887653 820315617 -349751802 1217244181 2103452855 602047483 698000629 1104999771 1998912725 -1651488154 1658468024 -771243782 986118880 1913174384 -2055952546 -178155534 -1019348363 587462132 755196440 1662220636 1492894905 -210336314 -886002248 853380454 -821369869
REM
CELL 1.54180   50.00000   50.00000   50.00000   90.00000   90.00000   90.00000
LATT -1
SFAC C  
C      1  0.5639040000000  0.5267260000000  0.4817010000000 1.0
C      1  0.4904890000000  0.4317000000000  0.4816490000000 1.0
C      1  0.4455960000000  0.5415040000000  0.4813640000000 1.0
C      1  0.4762830000000  0.5240160000000  0.4340820000000 1.0
C      1  0.5328030000000  0.5089160000000  0.4336570000000 1.0
C      1  0.4904450000000  0.4668030000000  0.4334100000000 1.0
C      1  0.4986100000000  0.4447540000000  0.5347400000000 1.0
C      1  0.4531430000000  0.5290740000000  0.5341190000000 1.0
C      1  0.5488130000000  0.5263940000000  0.5346630000000 1.0
C      1  0.4815630000000  0.4650790000000  0.5488530000000 1.0
C      1  0.4789100000000  0.5337910000000  0.5488550000000 1.0
C      1  0.5396810000000  0.5015300000000  0.5488760000000 1.0
C      1  0.4527170000000  0.4666400000000  0.4763160000000 1.0
C      1  0.4945350000000  0.5574770000000  0.4767160000000 1.0
C      1  0.5495320000000  0.4773820000000  0.4772120000000 1.0
C      1  0.4988390000000  0.5689510000000  0.5048770000000 1.0
C      1  0.5597830000000  0.4674180000000  0.5044490000000 1.0
C      1  0.4409990000000  0.4643310000000  0.5048280000000 1.0
C      1  0.4265460000000  0.4956340000000  0.5005840000000 1.0
C      1  0.5332110000000  0.5661720000000  0.5009760000000 1.0
C      1  0.5406540000000  0.4386460000000  0.5003730000000 1.0
C      1  0.5207100000000  0.5028740000000  0.5720170000000 1.0
C      1  0.4920720000000  0.4807320000000  0.5720270000000 1.0
C      1  0.4871350000000  0.5166130000000  0.5720260000000 1.0
C      1  0.4818950000000  0.4422360000000  0.5090910000000 1.0
C      1  0.4604070000000  0.5432650000000  0.5079890000000 1.0
C      1  0.5582970000000  0.5131640000000  0.5086810000000 1.0
C      1  0.4728200000000  0.4980960000000  0.5130520000000 1.0
C      1  0.5123400000000  0.5243210000000  0.5139730000000 1.0
C      1  0.5152600000000  0.4767120000000  0.5131780000000 1.0
C      1  0.5281300000000  0.4522710000000  0.5274320000000 1.0
C      1  0.4451170000000  0.4997110000000  0.5270030000000 1.0
C      1  0.5273770000000  0.5479580000000  0.5273350000000 1.0
C      1  0.5289580000000  0.5019390000000  0.5042650000000 1.0
C      1  0.4873160000000  0.4731900000000  0.5047060000000 1.0
C      1  0.4844980000000  0.5237790000000  0.5032270000000 1.0
C      1  0.5332410000000  0.5084240000000  0.5982600000000 1.0
C      1  0.4906360000000  0.4670090000000  0.5982310000000 1.0
C      1  0.4760490000000  0.5246400000000  0.5982910000000 1.0
C      1  0.5204920000000  0.5116640000000  0.4746260000000 1.0
C      1  0.4949440000000  0.4761700000000  0.4750450000000 1.0
C      1  0.4863550000000  0.5091470000000  0.4727900000000 1.0
C      1  0.4320100000000  0.5142230000000  0.4728010000000 1.0
C      1  0.5475220000000  0.5529580000000  0.4730530000000 1.0
C      1  0.5211270000000  0.4341650000000  0.4731430000000 1.0
C      1  0.5517880000000  0.5042890000000  0.4640820000000 1.0
C      1  0.4758880000000  0.4520160000000  0.4632170000000 1.0
C      1  0.4718430000000  0.5406290000000  0.4659310000000 1.0
C      1  0.4699370000000  0.4925090000000  0.4379330000000 1.0
C      1  0.5089540000000  0.5298670000000  0.4385390000000 1.0
C      1  0.5203350000000  0.4781480000000  0.4389750000000 1.0
C      1  0.5172170000000  0.5429870000000  0.4658630000000 1.0
C      1  0.5247560000000  0.4663360000000  0.4673030000000 1.0
C      1  0.4560080000000  0.4935420000000  0.4662750000000 1.0
C      1  0.5086510000000  0.4377300000000  0.4411610000000 1.0
C      1  0.4421020000000  0.5243080000000  0.4413470000000 1.0
C      1  0.5505190000000  0.5390710000000  0.4406690000000 1.0
C      1  0.4973610000000  0.5552050000000  0.5381500000000 1.0
C      1  0.5491170000000  0.4749600000000  0.5380030000000 1.0
C      1  0.4537600000000  0.4702030000000  0.5380130000000 1.0
END
