TITL C-3985251-913-849 0.00484593956939772 125000 -331.065395179258 0 0 60 (Cs) n - 1
REM
REM in /home/nfs/bkarasulu/CARBON/AIRSS/Generating-Clusters/TERSOFF/Higher-Symm/Only-C60
REM
REM
REM
REM
REM
REM ./C.cell (28575a23ae977d3b5fae324c64b13b57)
REM
REM compiler GCC version 9.2.1 20190827 (Red Hat 9.2.1-1)
REM options -cpp -mtune=generic -march=x86-64 -g -O0 -fpre-include=/usr/include/finclude/math-vector-fortran.h
REM seed -1161051549 -1227727739 -1461445042 703571398 -1044657034 -722689674 -1283006854 -2126642331 159904737 -831199929 -1630448557 110373967 -1886756716 -337888528 663522589 1337746974 -1700636974 1518222443 -1055376492 1576518448 1963496974 939558384 976126684 420678180 -1180842878 -194178444 -653079433 -369095462 1058930527 -647656655 -110440064 -726704257 457954226
REM
CELL 1.54180   50.00000   50.00000   50.00000   90.00000   90.00000   90.00000
LATT -1
SFAC C  
C      1  0.4327790000000  0.4957490000000  0.4741670000000 1.0
C      1  0.4297720000000  0.4875040000000  0.5225680000000 1.0
C      1  0.4329760000000  0.5138970000000  0.5016710000000 1.0
C      1  0.5672220000000  0.4957490000000  0.4741670000000 1.0
C      1  0.5702280000000  0.4875050000000  0.5225690000000 1.0
C      1  0.5670240000000  0.5138970000000  0.5016710000000 1.0
C      1  0.5517670000000  0.4596830000000  0.5248170000000 1.0
C      1  0.5519150000000  0.5393650000000  0.5227280000000 1.0
C      1  0.5501430000000  0.5018890000000  0.4490550000000 1.0
C      1  0.4482300000000  0.4596810000000  0.5248140000000 1.0
C      1  0.4480840000000  0.5393650000000  0.5227280000000 1.0
C      1  0.4498570000000  0.5018890000000  0.4490560000000 1.0
C      1  0.5648400000000  0.5401430000000  0.4813370000000 1.0
C      1  0.5649730000000  0.4657650000000  0.4754750000000 1.0
C      1  0.5652880000000  0.4956820000000  0.5511960000000 1.0
C      1  0.4351600000000  0.5401420000000  0.4813380000000 1.0
C      1  0.4350270000000  0.4657650000000  0.4754750000000 1.0
C      1  0.4347110000000  0.4956820000000  0.5511960000000 1.0
C      1  0.5144750000000  0.5777240000000  0.5188510000000 1.0
C      1  0.5143020000000  0.4753930000000  0.4221120000000 1.0
C      1  0.5143070000000  0.4441260000000  0.5584130000000 1.0
C      1  0.4855250000000  0.5777250000000  0.5188500000000 1.0
C      1  0.4856980000000  0.4753920000000  0.4221110000000 1.0
C      1  0.4856930000000  0.4441230000000  0.5584160000000 1.0
C      1  0.5438610000000  0.5345710000000  0.5509260000000 1.0
C      1  0.5405310000000  0.5283880000000  0.4417170000000 1.0
C      1  0.5449020000000  0.4393600000000  0.5040970000000 1.0
C      1  0.4561380000000  0.5345720000000  0.5509270000000 1.0
C      1  0.4594690000000  0.5283870000000  0.4417160000000 1.0
C      1  0.4550930000000  0.4393520000000  0.5041030000000 1.0
C      1  0.5180190000000  0.5163400000000  0.5580880000000 1.0
C      1  0.5179820000000  0.5427770000000  0.4574140000000 1.0
C      1  0.5181540000000  0.4417580000000  0.4849810000000 1.0
C      1  0.4819810000000  0.5163380000000  0.5580880000000 1.0
C      1  0.4820190000000  0.5427750000000  0.4574150000000 1.0
C      1  0.4818450000000  0.4417560000000  0.4849820000000 1.0
C      1  0.4849330000000  0.5283130000000  0.5059300000000 1.0
C      1  0.4848340000000  0.4908230000000  0.4713960000000 1.0
C      1  0.4849730000000  0.4803140000000  0.5220610000000 1.0
C      1  0.5150670000000  0.5283160000000  0.5059260000000 1.0
C      1  0.5151670000000  0.4908180000000  0.4714020000000 1.0
C      1  0.5150260000000  0.4803210000000  0.5220590000000 1.0
C      1  0.5297460000000  0.4788280000000  0.4462840000000 1.0
C      1  0.5291750000000  0.4652290000000  0.5453170000000 1.0
C      1  0.5299000000000  0.5557230000000  0.5074740000000 1.0
C      1  0.4702540000000  0.4788300000000  0.4462840000000 1.0
C      1  0.4708290000000  0.4652320000000  0.5453140000000 1.0
C      1  0.4701010000000  0.5557220000000  0.5074740000000 1.0
C      1  0.4622020000000  0.4905720000000  0.5613760000000 1.0
C      1  0.4604030000000  0.5565660000000  0.4785180000000 1.0
C      1  0.4595180000000  0.4535620000000  0.4622140000000 1.0
C      1  0.5377980000000  0.4905720000000  0.5613750000000 1.0
C      1  0.5395970000000  0.5565660000000  0.4785180000000 1.0
C      1  0.5404840000000  0.4535610000000  0.4622120000000 1.0
C      1  0.4790100000000  0.5086380000000  0.5271150000000 1.0
C      1  0.4790130000000  0.5189350000000  0.4784590000000 1.0
C      1  0.4789880000000  0.4723960000000  0.4942380000000 1.0
C      1  0.5209910000000  0.5086310000000  0.5271180000000 1.0
C      1  0.5209860000000  0.5189350000000  0.4784610000000 1.0
C      1  0.5210170000000  0.4723880000000  0.4942400000000 1.0
END
