TITL C-3985244-725-456 5.98058351459162e-08 125000 -293.314877744315 0 0 60 (Th) n - 1
REM
REM in /home/nfs/bkarasulu/CARBON/AIRSS/Generating-Clusters/TERSOFF/Higher-Symm/Only-C60
REM
REM
REM
REM
REM
REM ./C.cell (28575a23ae977d3b5fae324c64b13b57)
REM
REM compiler GCC version 9.2.1 20190827 (Red Hat 9.2.1-1)
REM options -cpp -mtune=generic -march=x86-64 -g -O0 -fpre-include=/usr/include/finclude/math-vector-fortran.h
REM seed -575121831 979055697 -1985347705 -1750626280 1435996900 625577351 1941878167 1167783771 -1603341704 1161044758 878805900 270172669 -1075775741 1632979169 187379190 1317693897 487550945 469559240 2132377749 -1338475390 1944560015 156854368 161257113 -828164764 1531327146 -306530542 346849496 -349226678 -1765287408 1575370883 290778671 451818413 1724604031
REM
CELL 1.54180   50.00000   50.00000   50.00000   90.00000   90.00000   90.00000
LATT -1
SFAC C  
C      1  0.5178290000000  0.4831130000000  0.4571660000000 1.0
C      1  0.4831130000000  0.4571660000000  0.5178290000000 1.0
C      1  0.4571660000000  0.5178290000000  0.4831130000000 1.0
C      1  0.4821710000000  0.5168870000000  0.4571660000000 1.0
C      1  0.5178290000000  0.5168870000000  0.5428340000000 1.0
C      1  0.4821710000000  0.4831130000000  0.5428340000000 1.0
C      1  0.5168870000000  0.5428340000000  0.5178290000000 1.0
C      1  0.4831130000000  0.5428340000000  0.4821710000000 1.0
C      1  0.5168870000000  0.4571660000000  0.4821710000000 1.0
C      1  0.5428340000000  0.4821710000000  0.4831130000000 1.0
C      1  0.4571660000000  0.4821710000000  0.5168870000000 1.0
C      1  0.5428340000000  0.5178290000000  0.5168870000000 1.0
C      1  0.5178290000000  0.4831130000000  0.5428340000000 1.0
C      1  0.4831130000000  0.4571660000000  0.4821710000000 1.0
C      1  0.4571660000000  0.5178290000000  0.5168870000000 1.0
C      1  0.4821710000000  0.5168870000000  0.5428340000000 1.0
C      1  0.5178290000000  0.5168870000000  0.4571660000000 1.0
C      1  0.4821710000000  0.4831130000000  0.4571660000000 1.0
C      1  0.5168870000000  0.5428340000000  0.4821710000000 1.0
C      1  0.4831130000000  0.5428340000000  0.5178290000000 1.0
C      1  0.5168870000000  0.4571660000000  0.5178290000000 1.0
C      1  0.5428340000000  0.4821710000000  0.5168870000000 1.0
C      1  0.4571660000000  0.4821710000000  0.4831130000000 1.0
C      1  0.5428340000000  0.5178290000000  0.4831130000000 1.0
C      1  0.5237110000000  0.4716380000000  0.4295440000000 1.0
C      1  0.4716380000000  0.4295440000000  0.5237110000000 1.0
C      1  0.4295440000000  0.5237110000000  0.4716380000000 1.0
C      1  0.4762890000000  0.5283620000000  0.4295440000000 1.0
C      1  0.5237110000000  0.5283620000000  0.5704560000000 1.0
C      1  0.4762890000000  0.4716380000000  0.5704560000000 1.0
C      1  0.5283620000000  0.5704560000000  0.5237110000000 1.0
C      1  0.4716380000000  0.5704560000000  0.4762890000000 1.0
C      1  0.5283620000000  0.4295440000000  0.4762890000000 1.0
C      1  0.5704560000000  0.4762890000000  0.4716380000000 1.0
C      1  0.4295440000000  0.4762890000000  0.5283620000000 1.0
C      1  0.5704560000000  0.5237110000000  0.5283620000000 1.0
C      1  0.5237110000000  0.4716380000000  0.5704560000000 1.0
C      1  0.4716380000000  0.4295440000000  0.4762890000000 1.0
C      1  0.4295440000000  0.5237110000000  0.5283620000000 1.0
C      1  0.4762890000000  0.5283620000000  0.5704560000000 1.0
C      1  0.5237110000000  0.5283620000000  0.4295440000000 1.0
C      1  0.4762890000000  0.4716380000000  0.4295440000000 1.0
C      1  0.5283620000000  0.5704560000000  0.4762890000000 1.0
C      1  0.4716380000000  0.5704560000000  0.5237110000000 1.0
C      1  0.5283620000000  0.4295440000000  0.5237110000000 1.0
C      1  0.5704560000000  0.4762890000000  0.5283620000000 1.0
C      1  0.4295440000000  0.4762890000000  0.4716380000000 1.0
C      1  0.5704560000000  0.5237110000000  0.4716380000000 1.0
C      1  0.5000000000000  0.4650950000000  0.4137940000000 1.0
C      1  0.5862060000000  0.5000000000000  0.4650950000000 1.0
C      1  0.5000000000000  0.5349050000000  0.5862060000000 1.0
C      1  0.4137940000000  0.5000000000000  0.5349050000000 1.0
C      1  0.4137940000000  0.5000000000000  0.4650950000000 1.0
C      1  0.5862060000000  0.5000000000000  0.5349050000000 1.0
C      1  0.5000000000000  0.5349050000000  0.4137940000000 1.0
C      1  0.5349050000000  0.4137940000000  0.5000000000000 1.0
C      1  0.5000000000000  0.4650950000000  0.5862060000000 1.0
C      1  0.4650950000000  0.5862060000000  0.5000000000000 1.0
C      1  0.5349050000000  0.5862060000000  0.5000000000000 1.0
C      1  0.4650950000000  0.4137940000000  0.5000000000000 1.0
END
