TITL C-3985257-5396-221 3.85602970482582e-07 125000 -309.435140068007 0 0 60 (Td) n - 1
REM
REM in /home/nfs/bkarasulu/CARBON/AIRSS/Generating-Clusters/TERSOFF/Higher-Symm/Only-C60
REM
REM
REM
REM
REM
REM ./C.cell (28575a23ae977d3b5fae324c64b13b57)
REM
REM compiler GCC version 9.2.1 20190827 (Red Hat 9.2.1-1)
REM options -cpp -mtune=generic -march=x86-64 -g -O0 -fpre-include=/usr/include/finclude/math-vector-fortran.h
REM seed -504973855 1655334255 1063460777 -1139057669 -206340709 -1874156391 1461141839 -1480015605 -979373914 -973220875 -907572984 -553821546 -295886433 1260594305 1434716074 1085184661 1788954040 24181466 -1295266161 2171408 356440763 -962993057 -1334403638 912883411 -499561708 -1812533340 -940449926 1327421278 685775385 -109901168 961955420 -1159126187 1891061702
REM
CELL 1.54180   50.00000   50.00000   50.00000   90.00000   90.00000   90.00000
LATT -1
SFAC C  
C      1  0.5321400000000  0.4452150000000  0.5083190000000 1.0
C      1  0.5083190000000  0.5321400000000  0.4452150000000 1.0
C      1  0.4452150000000  0.5083190000000  0.5321400000000 1.0
C      1  0.4678600000000  0.4452150000000  0.4916810000000 1.0
C      1  0.5321400000000  0.5547850000000  0.4916810000000 1.0
C      1  0.4678600000000  0.5547850000000  0.5083190000000 1.0
C      1  0.4916810000000  0.5321400000000  0.5547850000000 1.0
C      1  0.5083190000000  0.4678600000000  0.5547850000000 1.0
C      1  0.4916810000000  0.4678600000000  0.4452150000000 1.0
C      1  0.5547850000000  0.5083190000000  0.4678600000000 1.0
C      1  0.4452150000000  0.4916810000000  0.4678600000000 1.0
C      1  0.5547850000000  0.4916810000000  0.5321400000000 1.0
C      1  0.5083190000000  0.4452150000000  0.5321400000000 1.0
C      1  0.4452150000000  0.5321400000000  0.5083190000000 1.0
C      1  0.5321400000000  0.5083190000000  0.4452150000000 1.0
C      1  0.4916810000000  0.4452150000000  0.4678600000000 1.0
C      1  0.4916810000000  0.5547850000000  0.5321400000000 1.0
C      1  0.5083190000000  0.5547850000000  0.4678600000000 1.0
C      1  0.5547850000000  0.5321400000000  0.4916810000000 1.0
C      1  0.5547850000000  0.4678600000000  0.5083190000000 1.0
C      1  0.4452150000000  0.4678600000000  0.4916810000000 1.0
C      1  0.4678600000000  0.5083190000000  0.5547850000000 1.0
C      1  0.4678600000000  0.4916810000000  0.4452150000000 1.0
C      1  0.5321400000000  0.4916810000000  0.5547850000000 1.0
C      1  0.4218090000000  0.5110370000000  0.4683210000000 1.0
C      1  0.4683210000000  0.4218090000000  0.5110370000000 1.0
C      1  0.5110370000000  0.4683210000000  0.4218090000000 1.0
C      1  0.5781910000000  0.5110370000000  0.5316790000000 1.0
C      1  0.4218090000000  0.4889630000000  0.5316790000000 1.0
C      1  0.5781910000000  0.4889630000000  0.4683210000000 1.0
C      1  0.5316790000000  0.4218090000000  0.4889630000000 1.0
C      1  0.4683210000000  0.5781910000000  0.4889630000000 1.0
C      1  0.5316790000000  0.5781910000000  0.5110370000000 1.0
C      1  0.4889630000000  0.4683210000000  0.5781910000000 1.0
C      1  0.5110370000000  0.5316790000000  0.5781910000000 1.0
C      1  0.4889630000000  0.5316790000000  0.4218090000000 1.0
C      1  0.4683210000000  0.5110370000000  0.4218090000000 1.0
C      1  0.5110370000000  0.4218090000000  0.4683210000000 1.0
C      1  0.4218090000000  0.4683210000000  0.5110370000000 1.0
C      1  0.5316790000000  0.5110370000000  0.5781910000000 1.0
C      1  0.5316790000000  0.4889630000000  0.4218090000000 1.0
C      1  0.4683210000000  0.4889630000000  0.5781910000000 1.0
C      1  0.4889630000000  0.4218090000000  0.5316790000000 1.0
C      1  0.4889630000000  0.5781910000000  0.4683210000000 1.0
C      1  0.5110370000000  0.5781910000000  0.5316790000000 1.0
C      1  0.5781910000000  0.4683210000000  0.4889630000000 1.0
C      1  0.5781910000000  0.5316790000000  0.5110370000000 1.0
C      1  0.4218090000000  0.5316790000000  0.4889630000000 1.0
C      1  0.4890010000000  0.4890010000000  0.5360670000000 1.0
C      1  0.5360670000000  0.4890010000000  0.4890010000000 1.0
C      1  0.4890010000000  0.5360670000000  0.4890010000000 1.0
C      1  0.5109990000000  0.4890010000000  0.4639330000000 1.0
C      1  0.4890010000000  0.5109990000000  0.4639330000000 1.0
C      1  0.5109990000000  0.5109990000000  0.5360670000000 1.0
C      1  0.4639330000000  0.4890010000000  0.5109990000000 1.0
C      1  0.5360670000000  0.5109990000000  0.5109990000000 1.0
C      1  0.4639330000000  0.5109990000000  0.4890010000000 1.0
C      1  0.5109990000000  0.5360670000000  0.5109990000000 1.0
C      1  0.4890010000000  0.4639330000000  0.5109990000000 1.0
C      1  0.5109990000000  0.4639330000000  0.4890010000000 1.0
END
