TITL C-3985252-168-241 -2.14067149001703e-07 125000 -345.434064927008 0 0 60 (C5) n - 1
REM
REM in /home/nfs/bkarasulu/CARBON/AIRSS/Generating-Clusters/TERSOFF/Higher-Symm/Only-C60
REM
REM
REM
REM
REM
REM ./C.cell (28575a23ae977d3b5fae324c64b13b57)
REM
REM compiler GCC version 9.2.1 20190827 (Red Hat 9.2.1-1)
REM options -cpp -mtune=generic -march=x86-64 -g -O0 -fpre-include=/usr/include/finclude/math-vector-fortran.h
REM seed 512402691 -306812578 -2049582497 -403425927 1155759311 1133212215 417815967 735579268 1928845931 -342068716 -415077577 -634457258 1182171448 -10279824 347212410 1517181195 -578258092 -1639610480 -1457128334 -516352163 -136244471 1229840489 1562465447 1211996705 -1866622166 -1532951094 1876607841 971728403 2101823910 -1688160038 31457345 2091877180 722566609
REM
CELL 1.54180   50.00000   50.00000   50.00000   90.00000   90.00000   90.00000
LATT -1
SFAC C  
C      1  0.5331620000000  0.4773900000000  0.4379960000000 1.0
C      1  0.5331650000000  0.5519800000000  0.4593370000000 1.0
C      1  0.5331670000000  0.5547340000000  0.5368710000000 1.0
C      1  0.5331650000000  0.4818460000000  0.5634500000000 1.0
C      1  0.5331620000000  0.4340440000000  0.5023420000000 1.0
C      1  0.5605700000000  0.4838160000000  0.5201190000000 1.0
C      1  0.5605690000000  0.4758620000000  0.4908260000000 1.0
C      1  0.5605700000000  0.5012630000000  0.4742090000000 1.0
C      1  0.5605710000000  0.5249160000000  0.4932320000000 1.0
C      1  0.5605710000000  0.5141340000000  0.5216060000000 1.0
C      1  0.4499640000000  0.5333410000000  0.5462210000000 1.0
C      1  0.4499620000000  0.4663470000000  0.5459920000000 1.0
C      1  0.4499600000000  0.4458620000000  0.4822050000000 1.0
C      1  0.4499610000000  0.5001970000000  0.4430120000000 1.0
C      1  0.4499630000000  0.5542620000000  0.4825760000000 1.0
C      1  0.4854430000000  0.4944300000000  0.5746190000000 1.0
C      1  0.4854390000000  0.4273130000000  0.5177610000000 1.0
C      1  0.4854380000000  0.4606470000000  0.4363590000000 1.0
C      1  0.4854410000000  0.5483660000000  0.4429070000000 1.0
C      1  0.4854440000000  0.5692450000000  0.5283560000000 1.0
C      1  0.4579740000000  0.5451520000000  0.4545830000000 1.0
C      1  0.4579770000000  0.5571490000000  0.5289070000000 1.0
C      1  0.4579750000000  0.4901700000000  0.5632840000000 1.0
C      1  0.4579720000000  0.4367770000000  0.5102060000000 1.0
C      1  0.4579720000000  0.4707580000000  0.4430250000000 1.0
C      1  0.5277870000000  0.5262580000000  0.4462130000000 1.0
C      1  0.5277900000000  0.5592670000000  0.5083520000000 1.0
C      1  0.5277900000000  0.5103700000000  0.5589480000000 1.0
C      1  0.5277870000000  0.4471410000000  0.5280790000000 1.0
C      1  0.5277860000000  0.4569600000000  0.4584050000000 1.0
C      1  0.5447000000000  0.5491170000000  0.4869410000000 1.0
C      1  0.5447010000000  0.5275960000000  0.5426780000000 1.0
C      1  0.5446990000000  0.4679360000000  0.5394340000000 1.0
C      1  0.5446970000000  0.4525860000000  0.4816920000000 1.0
C      1  0.5446980000000  0.5027580000000  0.4492490000000 1.0
C      1  0.4949330000000  0.5428700000000  0.5670480000000 1.0
C      1  0.4949300000000  0.4494820000000  0.5614910000000 1.0
C      1  0.4949270000000  0.4259080000000  0.4709560000000 1.0
C      1  0.4949280000000  0.5047270000000  0.4205590000000 1.0
C      1  0.4949320000000  0.5770140000000  0.4799470000000 1.0
C      1  0.4876150000000  0.5292220000000  0.5009910000000 1.0
C      1  0.4876150000000  0.5080880000000  0.5280980000000 1.0
C      1  0.4876130000000  0.4757770000000  0.5163750000000 1.0
C      1  0.4876130000000  0.4769420000000  0.4820220000000 1.0
C      1  0.4876130000000  0.5099730000000  0.4725150000000 1.0
C      1  0.4534880000000  0.4723060000000  0.5146170000000 1.0
C      1  0.4534870000000  0.4775420000000  0.4781780000000 1.0
C      1  0.4534880000000  0.5138160000000  0.4718970000000 1.0
C      1  0.4534890000000  0.5309990000000  0.5044550000000 1.0
C      1  0.4534890000000  0.5053440000000  0.5308580000000 1.0
C      1  0.5055560000000  0.4718850000000  0.5756710000000 1.0
C      1  0.5055530000000  0.4193450000000  0.4966440000000 1.0
C      1  0.5055530000000  0.4782670000000  0.4222550000000 1.0
C      1  0.5055560000000  0.5672240000000  0.4553070000000 1.0
C      1  0.5055590000000  0.5632790000000  0.5501230000000 1.0
C      1  0.4988160000000  0.5156120000000  0.5582600000000 1.0
C      1  0.4988130000000  0.4494160000000  0.5328520000000 1.0
C      1  0.4988120000000  0.4531250000000  0.4620440000000 1.0
C      1  0.4988140000000  0.5216140000000  0.4436900000000 1.0
C      1  0.4988160000000  0.5602330000000  0.5031550000000 1.0
END
