TITL C-3985255-5397-10 0.000670882973217781 125000 -318.415879049796 0 0 60 (C6v) n - 1
REM
REM in /home/nfs/bkarasulu/CARBON/AIRSS/Generating-Clusters/TERSOFF/Higher-Symm/Only-C60
REM
REM
REM
REM
REM
REM ./C.cell (28575a23ae977d3b5fae324c64b13b57)
REM
REM compiler GCC version 9.2.1 20190827 (Red Hat 9.2.1-1)
REM options -cpp -mtune=generic -march=x86-64 -g -O0 -fpre-include=/usr/include/finclude/math-vector-fortran.h
REM seed 2136996617 1557756056 -674752068 -830562123 -1987620657 1406679878 1029169804 1701217348 1167142687 1257826469 -2096584874 136425701 -1616139451 502334578 -219781960 1449123520 1249206451 539382163 2011787610 -1762008670 -1710108276 596198883 1081901095 1015525826 1031968198 -572257518 -547130698 1343930515 -1354487868 153332143 1860693790 151155474 -1349490638
REM
CELL 1.54180   50.00000   50.00000   50.00000   90.00000   90.00000   90.00000
LATT -1
SFAC C  
C      1  0.4834580000000  0.4800800000000  0.4376520000000 1.0
C      1  0.4377390000000  0.4800820000000  0.4831590000000 1.0
C      1  0.4542960000000  0.4800810000000  0.5454890000000 1.0
C      1  0.5165420000000  0.4800800000000  0.5623480000000 1.0
C      1  0.5622610000000  0.4800820000000  0.5168410000000 1.0
C      1  0.5457040000000  0.4800810000000  0.4545110000000 1.0
C      1  0.5165420000000  0.4800800000000  0.4376520000000 1.0
C      1  0.5622610000000  0.4800820000000  0.4831590000000 1.0
C      1  0.5457040000000  0.4800810000000  0.5454890000000 1.0
C      1  0.4834580000000  0.4800800000000  0.5623480000000 1.0
C      1  0.4377390000000  0.4800820000000  0.5168410000000 1.0
C      1  0.4542960000000  0.4800810000000  0.4545110000000 1.0
C      1  0.4790090000000  0.4985280000000  0.4139090000000 1.0
C      1  0.4149510000000  0.4985310000000  0.4751420000000 1.0
C      1  0.4359530000000  0.4985300000000  0.5612130000000 1.0
C      1  0.5209910000000  0.4985280000000  0.5860910000000 1.0
C      1  0.5850490000000  0.4985310000000  0.5248580000000 1.0
C      1  0.5640470000000  0.4985300000000  0.4387870000000 1.0
C      1  0.5209910000000  0.4985280000000  0.4139090000000 1.0
C      1  0.5850490000000  0.4985310000000  0.4751420000000 1.0
C      1  0.5640470000000  0.4985300000000  0.5612130000000 1.0
C      1  0.4790090000000  0.4985280000000  0.5860910000000 1.0
C      1  0.4149510000000  0.4985310000000  0.5248580000000 1.0
C      1  0.4359530000000  0.4985300000000  0.4387870000000 1.0
C      1  0.4685840000000  0.5255080000000  0.4163790000000 1.0
C      1  0.4118810000000  0.5255150000000  0.4854020000000 1.0
C      1  0.4433020000000  0.5255140000000  0.5690100000000 1.0
C      1  0.5314160000000  0.5255080000000  0.5836210000000 1.0
C      1  0.5881190000000  0.5255150000000  0.5145980000000 1.0
C      1  0.5566980000000  0.5255140000000  0.4309900000000 1.0
C      1  0.5314160000000  0.5255080000000  0.4163790000000 1.0
C      1  0.5881190000000  0.5255150000000  0.4854020000000 1.0
C      1  0.5566980000000  0.5255140000000  0.5690100000000 1.0
C      1  0.4685840000000  0.5255080000000  0.5836210000000 1.0
C      1  0.4118810000000  0.5255150000000  0.5145980000000 1.0
C      1  0.4433020000000  0.5255140000000  0.4309900000000 1.0
C      1  0.5162340000000  0.4466370000000  0.5605980000000 1.0
C      1  0.5605940000000  0.4466380000000  0.5162340000000 1.0
C      1  0.5443440000000  0.4466290000000  0.4556550000000 1.0
C      1  0.4837660000000  0.4466370000000  0.4394020000000 1.0
C      1  0.4394060000000  0.4466380000000  0.4837660000000 1.0
C      1  0.4556560000000  0.4466290000000  0.5443450000000 1.0
C      1  0.4837660000000  0.4466370000000  0.5605980000000 1.0
C      1  0.4394060000000  0.4466380000000  0.5162340000000 1.0
C      1  0.4556560000000  0.4466290000000  0.4556550000000 1.0
C      1  0.5162340000000  0.4466370000000  0.4394020000000 1.0
C      1  0.5605940000000  0.4466380000000  0.4837660000000 1.0
C      1  0.5443440000000  0.4466290000000  0.5443450000000 1.0
C      1  0.5679110000000  0.5492450000000  0.4438310000000 1.0
C      1  0.4853090000000  0.5492380000000  0.4130840000000 1.0
C      1  0.4173820000000  0.5492420000000  0.4692620000000 1.0
C      1  0.4320890000000  0.5492450000000  0.5561690000000 1.0
C      1  0.5146910000000  0.5492380000000  0.5869160000000 1.0
C      1  0.5826180000000  0.5492420000000  0.5307380000000 1.0
C      1  0.4320890000000  0.5492450000000  0.4438310000000 1.0
C      1  0.5146910000000  0.5492380000000  0.4130840000000 1.0
C      1  0.5826180000000  0.5492420000000  0.4692620000000 1.0
C      1  0.5679110000000  0.5492450000000  0.5561690000000 1.0
C      1  0.4853090000000  0.5492380000000  0.5869160000000 1.0
C      1  0.4173820000000  0.5492420000000  0.5307380000000 1.0
END
