TITL C-3985248-2097-151 -0.000229595615299972 125000 -299.067974129279 0 0 60 (D2h) n - 1
REM
REM in /home/nfs/bkarasulu/CARBON/AIRSS/Generating-Clusters/TERSOFF/Higher-Symm/Only-C60
REM
REM
REM
REM
REM
REM ./C.cell (28575a23ae977d3b5fae324c64b13b57)
REM
REM compiler GCC version 9.2.1 20190827 (Red Hat 9.2.1-1)
REM options -cpp -mtune=generic -march=x86-64 -g -O0 -fpre-include=/usr/include/finclude/math-vector-fortran.h
REM seed 1866162318 -423322158 398927410 426979116 -2131338522 -945195508 1137598737 -1977221164 1719683318 -1735974770 -1997495955 -1705421498 346661160 1959223455 620484473 -1814295501 1772497948 -1326311638 1318540103 -1991980984 309712927 140717611 2040159757 397642870 939832245 -45454631 1134160422 -1459940028 -2048508337 -1222572203 639737159 -717025093 -874027708
REM
CELL 1.54180   50.00000   50.00000   50.00000   90.00000   90.00000   90.00000
LATT -1
SFAC C  
C      1  0.4818830000000  0.4825770000000  0.4675200000000 1.0
C      1  0.4818830000000  0.5174230000000  0.5324800000000 1.0
C      1  0.5181170000000  0.4825770000000  0.4675200000000 1.0
C      1  0.5181170000000  0.5174230000000  0.5324800000000 1.0
C      1  0.4818830000000  0.4825770000000  0.5324800000000 1.0
C      1  0.4818830000000  0.5174230000000  0.4675200000000 1.0
C      1  0.5181170000000  0.4825770000000  0.5324800000000 1.0
C      1  0.5181170000000  0.5174230000000  0.4675200000000 1.0
C      1  0.5158900000000  0.5158650000000  0.5943550000000 1.0
C      1  0.5158900000000  0.4841350000000  0.4056450000000 1.0
C      1  0.4841100000000  0.5158650000000  0.5943550000000 1.0
C      1  0.4841100000000  0.4841350000000  0.4056450000000 1.0
C      1  0.5158900000000  0.5158650000000  0.4056450000000 1.0
C      1  0.5158900000000  0.4841350000000  0.5943550000000 1.0
C      1  0.4841100000000  0.5158650000000  0.4056450000000 1.0
C      1  0.4841100000000  0.4841350000000  0.5943550000000 1.0
C      1  0.5318470000000  0.4305110000000  0.4854340000000 1.0
C      1  0.5318470000000  0.5694890000000  0.5145660000000 1.0
C      1  0.4681530000000  0.4305110000000  0.4854340000000 1.0
C      1  0.4681530000000  0.5694890000000  0.5145660000000 1.0
C      1  0.5318470000000  0.4305110000000  0.5145660000000 1.0
C      1  0.5318470000000  0.5694890000000  0.4854340000000 1.0
C      1  0.4681530000000  0.4305110000000  0.5145660000000 1.0
C      1  0.4681530000000  0.5694890000000  0.4854340000000 1.0
C      1  0.5311850000000  0.5182220000000  0.5660250000000 1.0
C      1  0.5311850000000  0.4817780000000  0.4339750000000 1.0
C      1  0.4688150000000  0.5182220000000  0.5660250000000 1.0
C      1  0.4688150000000  0.4817780000000  0.4339750000000 1.0
C      1  0.5311850000000  0.5182220000000  0.4339750000000 1.0
C      1  0.5311850000000  0.4817780000000  0.5660250000000 1.0
C      1  0.4688150000000  0.5182220000000  0.4339750000000 1.0
C      1  0.4688150000000  0.4817780000000  0.5660250000000 1.0
C      1  0.5236560000000  0.4508530000000  0.5622210000000 1.0
C      1  0.5236560000000  0.5491470000000  0.4377790000000 1.0
C      1  0.4763440000000  0.4508530000000  0.5622210000000 1.0
C      1  0.4763440000000  0.5491470000000  0.4377790000000 1.0
C      1  0.5236560000000  0.4508530000000  0.4377790000000 1.0
C      1  0.5236560000000  0.5491470000000  0.5622210000000 1.0
C      1  0.4763440000000  0.4508530000000  0.4377790000000 1.0
C      1  0.4763440000000  0.5491470000000  0.5622210000000 1.0
C      1  0.4567620000000  0.5210000000000  0.5144010000000 1.0
C      1  0.4567620000000  0.4790000000000  0.4855990000000 1.0
C      1  0.5432380000000  0.5209990000000  0.5144010000000 1.0
C      1  0.5432380000000  0.4790000000000  0.4855990000000 1.0
C      1  0.4567620000000  0.5210000000000  0.4855990000000 1.0
C      1  0.4567620000000  0.4790000000000  0.5144010000000 1.0
C      1  0.5432380000000  0.5210000000000  0.4855990000000 1.0
C      1  0.5432380000000  0.4790010000000  0.5144010000000 1.0
C      1  0.4840290000000  0.4477840000000  0.5318610000000 1.0
C      1  0.4840290000000  0.5522160000000  0.4681390000000 1.0
C      1  0.5159710000000  0.4477840000000  0.5318610000000 1.0
C      1  0.5159710000000  0.5522160000000  0.4681390000000 1.0
C      1  0.4840290000000  0.4477840000000  0.4681390000000 1.0
C      1  0.4840290000000  0.5522160000000  0.5318610000000 1.0
C      1  0.5159710000000  0.4477840000000  0.4681390000000 1.0
C      1  0.5159710000000  0.5522160000000  0.5318610000000 1.0
C      1  0.5000000000000  0.5576610000000  0.4222650000000 1.0
C      1  0.5000000000000  0.4423390000000  0.5777350000000 1.0
C      1  0.5000000000000  0.4423390000000  0.4222650000000 1.0
C      1  0.5000000000000  0.5576610000000  0.5777350000000 1.0
END
