TITL C-3985245-9316-93 -0.000346818963711987 125000 -320.886855530743 0 0 60 (C1) n - 1
REM
REM in /home/nfs/bkarasulu/CARBON/AIRSS/Generating-Clusters/TERSOFF/Higher-Symm/Only-C60
REM
REM
REM
REM
REM
REM ./C.cell (28575a23ae977d3b5fae324c64b13b57)
REM
REM compiler GCC version 9.2.1 20190827 (Red Hat 9.2.1-1)
REM options -cpp -mtune=generic -march=x86-64 -g -O0 -fpre-include=/usr/include/finclude/math-vector-fortran.h
REM seed 305594987 -980763182 1875366057 -710776877 -391592884 1796444308 -167056318 -1072460637 -2003786448 -1656104355 -1976321853 1752922770 -612037472 -1559560330 500779551 11249370 -831540692 -1039411456 1573420602 -1497942445 828264164 1679301937 -814337319 1802349404 937597413 718025603 957299997 -1672900536 -33485811 -1911213531 -1416803484 -315376149 -892647200
REM
CELL 1.54180   50.00000   50.00000   50.00000   90.00000   90.00000   90.00000
LATT -1
SFAC C  
C      1  0.5013490000000  0.5476260000000  0.5268840000000 1.0
C      1  0.5013050000000  0.4891740000000  0.5535860000000 1.0
C      1  0.5013490000000  0.4456450000000  0.5062270000000 1.0
C      1  0.5013470000000  0.4772430000000  0.4502430000000 1.0
C      1  0.5012990000000  0.5402870000000  0.4630380000000 1.0
C      1  0.4781540000000  0.4280040000000  0.5177760000000 1.0
C      1  0.4781720000000  0.4607940000000  0.4370370000000 1.0
C      1  0.4780630000000  0.5477200000000  0.4433660000000 1.0
C      1  0.4782340000000  0.5687610000000  0.5279660000000 1.0
C      1  0.4780830000000  0.4947300000000  0.5738850000000 1.0
C      1  0.5273780000000  0.4609970000000  0.4513520000000 1.0
C      1  0.5272980000000  0.5342110000000  0.4478920000000 1.0
C      1  0.5273620000000  0.5601310000000  0.5164210000000 1.0
C      1  0.5273230000000  0.5029650000000  0.5622740000000 1.0
C      1  0.5273620000000  0.4416850000000  0.5220560000000 1.0
C      1  0.4846810000000  0.4971610000000  0.5270360000000 1.0
C      1  0.4846850000000  0.4733760000000  0.5056290000000 1.0
C      1  0.4846890000000  0.4863810000000  0.4764180000000 1.0
C      1  0.4846800000000  0.5181860000000  0.4798030000000 1.0
C      1  0.4846940000000  0.5248460000000  0.5110890000000 1.0
C      1  0.4659690000000  0.5611730000000  0.4718990000000 1.0
C      1  0.4660630000000  0.5458590000000  0.5495740000000 1.0
C      1  0.4659540000000  0.4670980000000  0.5586940000000 1.0
C      1  0.4660410000000  0.4338360000000  0.4868150000000 1.0
C      1  0.4660110000000  0.4920580000000  0.4330640000000 1.0
C      1  0.5495570000000  0.4837680000000  0.5511330000000 1.0
C      1  0.5496090000000  0.4463560000000  0.5003590000000 1.0
C      1  0.5495920000000  0.4830970000000  0.4490840000000 1.0
C      1  0.5495600000000  0.5432020000000  0.4681640000000 1.0
C      1  0.5495990000000  0.5436070000000  0.5312220000000 1.0
C      1  0.4420710000000  0.5442320000000  0.4838080000000 1.0
C      1  0.4420880000000  0.5293900000000  0.5372140000000 1.0
C      1  0.4420380000000  0.4738330000000  0.5391060000000 1.0
C      1  0.4420760000000  0.4544390000000  0.4871180000000 1.0
C      1  0.4420590000000  0.4981000000000  0.4528260000000 1.0
C      1  0.5209930000000  0.5576210000000  0.4858690000000 1.0
C      1  0.5210430000000  0.5312490000000  0.5504270000000 1.0
C      1  0.5209800000000  0.4617060000000  0.5452760000000 1.0
C      1  0.5210470000000  0.4450730000000  0.4775580000000 1.0
C      1  0.5210060000000  0.5043650000000  0.4408470000000 1.0
C      1  0.5638630000000  0.4920240000000  0.5253630000000 1.0
C      1  0.5638930000000  0.4734210000000  0.5002460000000 1.0
C      1  0.5638810000000  0.4915660000000  0.4747770000000 1.0
C      1  0.5638820000000  0.5213860000000  0.4841540000000 1.0
C      1  0.5638880000000  0.5216650000000  0.5154180000000 1.0
C      1  0.5233770000000  0.5026520000000  0.4753030000000 1.0
C      1  0.5233870000000  0.5243000000000  0.4949000000000 1.0
C      1  0.5233960000000  0.5123520000000  0.5215420000000 1.0
C      1  0.5233750000000  0.4833200000000  0.5184060000000 1.0
C      1  0.5233930000000  0.4773250000000  0.4898270000000 1.0
C      1  0.4553360000000  0.5011910000000  0.5366270000000 1.0
C      1  0.4553630000000  0.4654570000000  0.5122770000000 1.0
C      1  0.4553670000000  0.4774920000000  0.4709670000000 1.0
C      1  0.4553400000000  0.5206200000000  0.4697390000000 1.0
C      1  0.4554010000000  0.5351950000000  0.5103970000000 1.0
C      1  0.4872370000000  0.4408610000000  0.4657100000000 1.0
C      1  0.4871760000000  0.5143170000000  0.4332400000000 1.0
C      1  0.4871970000000  0.5680070000000  0.4930300000000 1.0
C      1  0.4872240000000  0.5277070000000  0.5624700000000 1.0
C      1  0.4871600000000  0.4491570000000  0.5455720000000 1.0
END
