TITL C-3985254-1270-1377 8.53892822363704e-05 125000 -261.427839748604 0 0 60 (C1) n - 1
REM
REM in /home/nfs/bkarasulu/CARBON/AIRSS/Generating-Clusters/TERSOFF/Higher-Symm/Only-C60
REM
REM
REM
REM
REM
REM ./C.cell (28575a23ae977d3b5fae324c64b13b57)
REM
REM compiler GCC version 9.2.1 20190827 (Red Hat 9.2.1-1)
REM options -cpp -mtune=generic -march=x86-64 -g -O0 -fpre-include=/usr/include/finclude/math-vector-fortran.h
REM seed 630718283 -1400512586 1704127329 -1924383652 -442466915 1393059726 -1907513366 -1912726142 -1125760328 -2063139357 -1047178300 1875039328 1395672059 650277211 1818200547 -1012199073 522403476 367298398 -2071508127 1229130827 1345889554 -2012184672 -2035564591 -752469032 -802361202 773692430 -788698396 -75400975 2003968916 -538565274 -387744164 -289908088 275608036
REM
CELL 1.54180   50.00000   50.00000   50.00000   90.00000   90.00000   90.00000
LATT -1
SFAC C  
C      1  0.5241710000000  0.4711560000000  0.4507640000000 1.0
C      1  0.5385980000000  0.5009580000000  0.4514500000000 1.0
C      1  0.5243040000000  0.5307580000000  0.4530810000000 1.0
C      1  0.4919630000000  0.5381120000000  0.4544270000000 1.0
C      1  0.4661670000000  0.5175090000000  0.4544870000000 1.0
C      1  0.4661120000000  0.4844530000000  0.4531770000000 1.0
C      1  0.4918920000000  0.4638380000000  0.4515330000000 1.0
C      1  0.4692970000000  0.5199780000000  0.4892220000000 1.0
C      1  0.4653320000000  0.4871240000000  0.4876870000000 1.0
C      1  0.4884400000000  0.4631030000000  0.4855470000000 1.0
C      1  0.5220340000000  0.4660580000000  0.4842940000000 1.0
C      1  0.5406780000000  0.4945450000000  0.4847410000000 1.0
C      1  0.5297490000000  0.5267240000000  0.4866620000000 1.0
C      1  0.4981700000000  0.5379120000000  0.4884020000000 1.0
C      1  0.5590760000000  0.4673210000000  0.5506740000000 1.0
C      1  0.5677450000000  0.5256630000000  0.5488940000000 1.0
C      1  0.5216820000000  0.5692730000000  0.5504550000000 1.0
C      1  0.4612400000000  0.5528020000000  0.5499650000000 1.0
C      1  0.4265180000000  0.5030270000000  0.5489990000000 1.0
C      1  0.4538950000000  0.4478440000000  0.5497620000000 1.0
C      1  0.5115180000000  0.4342960000000  0.5512010000000 1.0
C      1  0.4332960000000  0.4802410000000  0.4789340000000 1.0
C      1  0.4741060000000  0.4335260000000  0.4797820000000 1.0
C      1  0.5361990000000  0.4363510000000  0.4805380000000 1.0
C      1  0.5726750000000  0.4867900000000  0.4798130000000 1.0
C      1  0.5556740000000  0.5466690000000  0.4785040000000 1.0
C      1  0.4984890000000  0.5707410000000  0.4799770000000 1.0
C      1  0.4441340000000  0.5413940000000  0.4808660000000 1.0
C      1  0.5304630000000  0.4805200000000  0.5413050000000 1.0
C      1  0.5381670000000  0.5131200000000  0.5414870000000 1.0
C      1  0.5175910000000  0.5387390000000  0.5418050000000 1.0
C      1  0.4844070000000  0.5309620000000  0.5413670000000 1.0
C      1  0.4586370000000  0.5055550000000  0.5458310000000 1.0
C      1  0.4702610000000  0.4748650000000  0.5435310000000 1.0
C      1  0.5017240000000  0.4640230000000  0.5424800000000 1.0
C      1  0.5623250000000  0.4582090000000  0.4931210000000 1.0
C      1  0.5724640000000  0.5211070000000  0.4915830000000 1.0
C      1  0.5296180000000  0.5684440000000  0.4912960000000 1.0
C      1  0.4652870000000  0.5636070000000  0.4928280000000 1.0
C      1  0.4284540000000  0.5105530000000  0.4917730000000 1.0
C      1  0.4474890000000  0.4493700000000  0.4918720000000 1.0
C      1  0.5071570000000  0.4262870000000  0.4930700000000 1.0
C      1  0.4474480000000  0.5211950000000  0.5174770000000 1.0
C      1  0.4508410000000  0.4729970000000  0.5162970000000 1.0
C      1  0.4913070000000  0.4453700000000  0.5161290000000 1.0
C      1  0.5373860000000  0.4592010000000  0.5156830000000 1.0
C      1  0.5571140000000  0.5028880000000  0.5152830000000 1.0
C      1  0.5360330000000  0.5460790000000  0.5155530000000 1.0
C      1  0.4870170000000  0.5544720000000  0.5168970000000 1.0
C      1  0.5733050000000  0.4810220000000  0.5280580000000 1.0
C      1  0.5640230000000  0.5450490000000  0.5260810000000 1.0
C      1  0.5027100000000  0.5769240000000  0.5285820000000 1.0
C      1  0.4409520000000  0.5482440000000  0.5290230000000 1.0
C      1  0.4246380000000  0.4841670000000  0.5258720000000 1.0
C      1  0.4666990000000  0.4323760000000  0.5277220000000 1.0
C      1  0.5313970000000  0.4327510000000  0.5288720000000 1.0
C      1  0.4974460000000  0.5038620000000  0.5299670000000 1.0
C      1  0.5010410000000  0.5003120000000  0.4700430000000 1.0
C      1  0.4999110000000  0.5016580000000  0.4352780000000 1.0
C      1  0.5029630000000  0.4985940000000  0.5021790000000 1.0
END
