TITL C-3985254-1270-932 -2.03204304583355e-07 125000 -352.809879568672 0 0 60 (D2) n - 1
REM
REM in /home/nfs/bkarasulu/CARBON/AIRSS/Generating-Clusters/TERSOFF/Higher-Symm/Only-C60
REM
REM
REM
REM
REM
REM ./C.cell (28575a23ae977d3b5fae324c64b13b57)
REM
REM compiler GCC version 9.2.1 20190827 (Red Hat 9.2.1-1)
REM options -cpp -mtune=generic -march=x86-64 -g -O0 -fpre-include=/usr/include/finclude/math-vector-fortran.h
REM seed -1688899753 -1609576903 774857047 -330624088 411588119 121209514 -1270501325 -607608125 -1494090779 529795577 -2145984833 -359293943 336142646 1202876489 1480263551 1251988893 -1705398553 145586953 1469464836 -409170709 1179831293 1660803745 -987866273 -1986617139 665842268 -1169281015 -1943808309 745272087 -1793931089 967764908 -1623021936 -746696681 1056246617
REM
CELL 1.54180   50.00000   50.00000   50.00000   90.00000   90.00000   90.00000
LATT -1
SFAC C  
C      1  0.4751380000000  0.4619910000000  0.4944880000000 1.0
C      1  0.4751370000000  0.5380080000000  0.5055110000000 1.0
C      1  0.5248620000000  0.5380080000000  0.4944870000000 1.0
C      1  0.5248630000000  0.4619920000000  0.5055140000000 1.0
C      1  0.5218380000000  0.4643400000000  0.4206160000000 1.0
C      1  0.5218350000000  0.5356600000000  0.5793850000000 1.0
C      1  0.4781640000000  0.5356540000000  0.4206130000000 1.0
C      1  0.4781630000000  0.4643450000000  0.5793870000000 1.0
C      1  0.5159670000000  0.5375120000000  0.4663120000000 1.0
C      1  0.5159670000000  0.4624880000000  0.5336890000000 1.0
C      1  0.4840340000000  0.4624850000000  0.4663140000000 1.0
C      1  0.4840320000000  0.5375140000000  0.5336850000000 1.0
C      1  0.5263540000000  0.4446400000000  0.4430590000000 1.0
C      1  0.5263510000000  0.5553610000000  0.5569420000000 1.0
C      1  0.4736480000000  0.5553560000000  0.4430540000000 1.0
C      1  0.4736470000000  0.4446430000000  0.5569450000000 1.0
C      1  0.4944090000000  0.5320850000000  0.5907960000000 1.0
C      1  0.4944130000000  0.4679150000000  0.4092040000000 1.0
C      1  0.5055880000000  0.4679210000000  0.5907980000000 1.0
C      1  0.5055910000000  0.5320790000000  0.4092020000000 1.0
C      1  0.4997560000000  0.4393650000000  0.5439660000000 1.0
C      1  0.4997560000000  0.5606350000000  0.4560340000000 1.0
C      1  0.5002420000000  0.5606380000000  0.5439620000000 1.0
C      1  0.5002460000000  0.4393620000000  0.4560380000000 1.0
C      1  0.4741740000000  0.5124180000000  0.4910130000000 1.0
C      1  0.4741740000000  0.4875810000000  0.5089860000000 1.0
C      1  0.5258260000000  0.4875810000000  0.4910150000000 1.0
C      1  0.5258250000000  0.5124190000000  0.5089860000000 1.0
C      1  0.4501280000000  0.5168150000000  0.4725710000000 1.0
C      1  0.4501280000000  0.4831830000000  0.5274270000000 1.0
C      1  0.5498720000000  0.4831830000000  0.4725740000000 1.0
C      1  0.5498710000000  0.5168190000000  0.5274280000000 1.0
C      1  0.4594240000000  0.4411880000000  0.5084790000000 1.0
C      1  0.4594230000000  0.5588110000000  0.4915200000000 1.0
C      1  0.5405750000000  0.5588120000000  0.5084760000000 1.0
C      1  0.5405770000000  0.4411890000000  0.4915250000000 1.0
C      1  0.4738930000000  0.4833820000000  0.4235280000000 1.0
C      1  0.4738890000000  0.5166170000000  0.5764710000000 1.0
C      1  0.5261100000000  0.5166130000000  0.4235280000000 1.0
C      1  0.5261080000000  0.4833880000000  0.5764730000000 1.0
C      1  0.4519930000000  0.5480360000000  0.4634020000000 1.0
C      1  0.4519930000000  0.4519630000000  0.5365970000000 1.0
C      1  0.5480080000000  0.4519620000000  0.4634070000000 1.0
C      1  0.5480060000000  0.5480390000000  0.5365950000000 1.0
C      1  0.5207700000000  0.5108530000000  0.5635590000000 1.0
C      1  0.5207730000000  0.4891470000000  0.4364420000000 1.0
C      1  0.4792280000000  0.4891510000000  0.5635590000000 1.0
C      1  0.4792290000000  0.5108490000000  0.4364410000000 1.0
C      1  0.4931380000000  0.4868360000000  0.5349040000000 1.0
C      1  0.4931390000000  0.5131630000000  0.4650960000000 1.0
C      1  0.5068610000000  0.5131660000000  0.5349030000000 1.0
C      1  0.5068630000000  0.4868340000000  0.4650970000000 1.0
C      1  0.4611960000000  0.4723160000000  0.4477190000000 1.0
C      1  0.4611940000000  0.5276830000000  0.5522800000000 1.0
C      1  0.5388060000000  0.5276800000000  0.4477180000000 1.0
C      1  0.5388050000000  0.4723210000000  0.5522830000000 1.0
C      1  0.4417670000000  0.5074350000000  0.5419960000000 1.0
C      1  0.4417690000000  0.4925640000000  0.4580020000000 1.0
C      1  0.5582320000000  0.4925680000000  0.5419980000000 1.0
C      1  0.5582330000000  0.5074330000000  0.4580040000000 1.0
END
