TITL C-3985253-1688-73 8.49289591963479e-06 125000 -349.866265216243 0 0 60 (C4v) n - 1
REM
REM in /home/nfs/bkarasulu/CARBON/AIRSS/Generating-Clusters/TERSOFF/Higher-Symm/Only-C60
REM
REM
REM
REM
REM
REM ./C.cell (28575a23ae977d3b5fae324c64b13b57)
REM
REM compiler GCC version 9.2.1 20190827 (Red Hat 9.2.1-1)
REM options -cpp -mtune=generic -march=x86-64 -g -O0 -fpre-include=/usr/include/finclude/math-vector-fortran.h
REM seed -958768985 -1820573547 -731201136 -613605125 -293301709 424936587 2053807957 -1678551761 1128841499 -513766484 -1827927687 -188115869 -860747995 -198243377 201451898 671762223 412654178 2040934012 377915288 316491137 -777909656 412876404 1626693016 -793587941 -1051779555 523685401 -246930790 689336142 1128917829 -908550688 -1959818132 1787870580 -280633502
REM
CELL 1.54180   50.00000   50.00000   50.00000   90.00000   90.00000   90.00000
LATT -1
SFAC C  
C      1  0.4654700000000  0.4857310000000  0.5074560000000 1.0
C      1  0.5142690000000  0.4654700000000  0.5074560000000 1.0
C      1  0.5345300000000  0.5142690000000  0.5074560000000 1.0
C      1  0.4857310000000  0.5345300000000  0.5074560000000 1.0
C      1  0.4654700000000  0.5142690000000  0.5074560000000 1.0
C      1  0.5142690000000  0.5345300000000  0.5074560000000 1.0
C      1  0.5345300000000  0.4857310000000  0.5074560000000 1.0
C      1  0.4857310000000  0.4654700000000  0.5074560000000 1.0
C      1  0.5342180000000  0.4445170000000  0.5378760000000 1.0
C      1  0.5554830000000  0.5342180000000  0.5378760000000 1.0
C      1  0.4657820000000  0.5554830000000  0.5378760000000 1.0
C      1  0.4445170000000  0.4657820000000  0.5378760000000 1.0
C      1  0.5342180000000  0.5554830000000  0.5378760000000 1.0
C      1  0.5554830000000  0.4657820000000  0.5378760000000 1.0
C      1  0.4657820000000  0.4445170000000  0.5378760000000 1.0
C      1  0.4445170000000  0.5342180000000  0.5378760000000 1.0
C      1  0.4412590000000  0.5153300000000  0.5610500000000 1.0
C      1  0.4846700000000  0.4412590000000  0.5610500000000 1.0
C      1  0.5587410000000  0.4846700000000  0.5610500000000 1.0
C      1  0.5153300000000  0.5587410000000  0.5610500000000 1.0
C      1  0.4412590000000  0.4846700000000  0.5610500000000 1.0
C      1  0.4846700000000  0.5587410000000  0.5610500000000 1.0
C      1  0.5587410000000  0.5153300000000  0.5610500000000 1.0
C      1  0.5153300000000  0.4412590000000  0.5610500000000 1.0
C      1  0.5369740000000  0.5583790000000  0.4814200000000 1.0
C      1  0.4416210000000  0.5369740000000  0.4814200000000 1.0
C      1  0.4630260000000  0.4416210000000  0.4814200000000 1.0
C      1  0.5583790000000  0.4630260000000  0.4814200000000 1.0
C      1  0.5369740000000  0.4416210000000  0.4814200000000 1.0
C      1  0.4416210000000  0.4630260000000  0.4814200000000 1.0
C      1  0.4630260000000  0.5583790000000  0.4814200000000 1.0
C      1  0.5583790000000  0.5369740000000  0.4814200000000 1.0
C      1  0.4843270000000  0.5364830000000  0.4368120000000 1.0
C      1  0.4635170000000  0.4843270000000  0.4368120000000 1.0
C      1  0.5156730000000  0.4635170000000  0.4368120000000 1.0
C      1  0.5364830000000  0.5156730000000  0.4368120000000 1.0
C      1  0.4843270000000  0.4635170000000  0.4368120000000 1.0
C      1  0.4635170000000  0.5156730000000  0.4368120000000 1.0
C      1  0.5156730000000  0.5364830000000  0.4368120000000 1.0
C      1  0.5364830000000  0.4843270000000  0.4368120000000 1.0
C      1  0.4753260000000  0.5642990000000  0.5095300000000 1.0
C      1  0.4357010000000  0.4753260000000  0.5095300000000 1.0
C      1  0.5246740000000  0.4357010000000  0.5095300000000 1.0
C      1  0.5642990000000  0.5246740000000  0.5095300000000 1.0
C      1  0.4753260000000  0.4357010000000  0.5095300000000 1.0
C      1  0.4357010000000  0.5246740000000  0.5095300000000 1.0
C      1  0.5246740000000  0.5642990000000  0.5095300000000 1.0
C      1  0.5642990000000  0.4753260000000  0.5095300000000 1.0
C      1  0.5179490000000  0.4399550000000  0.4581200000000 1.0
C      1  0.5600450000000  0.5179490000000  0.4581200000000 1.0
C      1  0.4820510000000  0.5600450000000  0.4581200000000 1.0
C      1  0.4399550000000  0.4820510000000  0.4581200000000 1.0
C      1  0.5179490000000  0.5600440000000  0.4581200000000 1.0
C      1  0.5600440000000  0.4820510000000  0.4581200000000 1.0
C      1  0.4820510000000  0.4399560000000  0.4581200000000 1.0
C      1  0.4399560000000  0.5179490000000  0.4581200000000 1.0
C      1  0.5803900000000  0.5000000000000  0.5094910000000 1.0
C      1  0.5000000000000  0.5803900000000  0.5094910000000 1.0
C      1  0.4196100000000  0.5000000000000  0.5094910000000 1.0
C      1  0.5000000000000  0.4196100000000  0.5094910000000 1.0
END
