TITL C-3985254-1270-1319 0.0043057970063559 125000 -304.826498545788 0 0 60 (C5) n - 1
REM
REM in /home/nfs/bkarasulu/CARBON/AIRSS/Generating-Clusters/TERSOFF/Higher-Symm/Only-C60
REM
REM
REM
REM
REM
REM ./C.cell (28575a23ae977d3b5fae324c64b13b57)
REM
REM compiler GCC version 9.2.1 20190827 (Red Hat 9.2.1-1)
REM options -cpp -mtune=generic -march=x86-64 -g -O0 -fpre-include=/usr/include/finclude/math-vector-fortran.h
REM seed 1574656125 -1102388388 2128187799 2136521693 -1913345591 -1137834240 2081812801 -925324042 1079636853 396497639 -1757680064 1539419181 -84898160 -117580938 -840547009 -1548096220 -138929419 -632175292 -1954177818 -1171681786 -1457033873 1977062552 -394513003 -340619002 1366348877 -524340018 13717607 1102127028 1747152437 -1123625102 -1483015613 1374325944 -1664478801
REM
CELL 1.54180   50.00000   50.00000   50.00000   90.00000   90.00000   90.00000
LATT -1
SFAC C  
C      1  0.5365700000000  0.5531820000000  0.5233770000000 1.0
C      1  0.4607530000000  0.5512240000000  0.5233800000000 1.0
C      1  0.4391580000000  0.4784670000000  0.5233760000000 1.0
C      1  0.5016610000000  0.4354810000000  0.5233800000000 1.0
C      1  0.5618600000000  0.4816350000000  0.5233790000000 1.0
C      1  0.4791100000000  0.4452690000000  0.5023640000000 1.0
C      1  0.5455810000000  0.4632250000000  0.5023600000000 1.0
C      1  0.5490580000000  0.5319810000000  0.5023700000000 1.0
C      1  0.4847440000000  0.5565580000000  0.5023580000000 1.0
C      1  0.4415100000000  0.5029640000000  0.5023710000000 1.0
C      1  0.5635280000000  0.4844350000000  0.4815290000000 1.0
C      1  0.5344180000000  0.5556240000000  0.4815020000000 1.0
C      1  0.4577430000000  0.5499270000000  0.4815230000000 1.0
C      1  0.4394610000000  0.4752350000000  0.4815140000000 1.0
C      1  0.5048570000000  0.4347670000000  0.4815270000000 1.0
C      1  0.5712490000000  0.5105250000000  0.4928760000000 1.0
C      1  0.5119960000000  0.5710290000000  0.4928600000000 1.0
C      1  0.4361590000000  0.5333650000000  0.4928770000000 1.0
C      1  0.4485480000000  0.4495950000000  0.4928600000000 1.0
C      1  0.5320490000000  0.4354920000000  0.4928560000000 1.0
C      1  0.4764720000000  0.4623530000000  0.4492520000000 1.0
C      1  0.5285300000000  0.4659930000000  0.4492400000000 1.0
C      1  0.5411640000000  0.5166220000000  0.4492500000000 1.0
C      1  0.4969050000000  0.5442850000000  0.4492450000000 1.0
C      1  0.4569230000000  0.5107450000000  0.4492450000000 1.0
C      1  0.4520450000000  0.5170640000000  0.5594010000000 1.0
C      1  0.4689490000000  0.4596840000000  0.5593930000000 1.0
C      1  0.5287620000000  0.4580150000000  0.5593920000000 1.0
C      1  0.5488180000000  0.5143750000000  0.5594110000000 1.0
C      1  0.5014230000000  0.5508650000000  0.5593880000000 1.0
C      1  0.4873720000000  0.4740010000000  0.4818590000000 1.0
C      1  0.5208130000000  0.4799560000000  0.4818470000000 1.0
C      1  0.5254910000000  0.5136090000000  0.4818490000000 1.0
C      1  0.4949370000000  0.5284610000000  0.4818540000000 1.0
C      1  0.4713750000000  0.5039880000000  0.4818520000000 1.0
C      1  0.5239730000000  0.5042390000000  0.5227310000000 1.0
C      1  0.5033660000000  0.5240990000000  0.5227370000000 1.0
C      1  0.4781270000000  0.5106590000000  0.5227350000000 1.0
C      1  0.4831070000000  0.4824900000000  0.5227450000000 1.0
C      1  0.5114380000000  0.4785180000000  0.5227380000000 1.0
C      1  0.4821590000000  0.5250110000000  0.5756930000000 1.0
C      1  0.4707020000000  0.4907640000000  0.5756950000000 1.0
C      1  0.4997300000000  0.4692780000000  0.5756880000000 1.0
C      1  0.5291250000000  0.4902510000000  0.5756980000000 1.0
C      1  0.5182690000000  0.5246950000000  0.5757000000000 1.0
C      1  0.4866790000000  0.4786410000000  0.4257560000000 1.0
C      1  0.5161900000000  0.4807360000000  0.4257550000000 1.0
C      1  0.5233280000000  0.5094490000000  0.4257540000000 1.0
C      1  0.4982210000000  0.5251040000000  0.4257570000000 1.0
C      1  0.4755710000000  0.5060670000000  0.4257540000000 1.0
C      1  0.5520590000000  0.5091470000000  0.5301950000000 1.0
C      1  0.5073840000000  0.5523400000000  0.5301740000000 1.0
C      1  0.4525130000000  0.5232020000000  0.5301870000000 1.0
C      1  0.4632690000000  0.4619950000000  0.5301750000000 1.0
C      1  0.5247960000000  0.4533140000000  0.5301750000000 1.0
C      1  0.4653750000000  0.5412940000000  0.4550280000000 1.0
C      1  0.4500460000000  0.4798330000000  0.4549920000000 1.0
C      1  0.5037420000000  0.4462610000000  0.4550040000000 1.0
C      1  0.5522780000000  0.4869440000000  0.4550160000000 1.0
C      1  0.5285610000000  0.5456710000000  0.4550010000000 1.0
END
