TITL C-3985254-1270-842 -0.00038577106969261 125000 -303.30087899901 0 0 60 (C2) n - 1
REM
REM in /home/nfs/bkarasulu/CARBON/AIRSS/Generating-Clusters/TERSOFF/Higher-Symm/Only-C60
REM
REM
REM
REM
REM
REM ./C.cell (28575a23ae977d3b5fae324c64b13b57)
REM
REM compiler GCC version 9.2.1 20190827 (Red Hat 9.2.1-1)
REM options -cpp -mtune=generic -march=x86-64 -g -O0 -fpre-include=/usr/include/finclude/math-vector-fortran.h
REM seed 1461012081 1561887929 -1409712018 -1338314770 1530796880 892890032 -536725736 237563870 -1522588227 2095815842 996454609 -91473485 -1574350568 2015104617 142504798 -555876424 -1143111143 -661261597 -134896977 -1286047579 2143052427 -469821772 360376172 70444865 94853804 -1576207488 -1834488753 34075468 -582333551 35071625 -367568320 954098171 -641235690
REM
CELL 1.54180   50.00000   50.00000   50.00000   90.00000   90.00000   90.00000
LATT -1
SFAC C  
C      1  0.5280740000000  0.4845030000000  0.4845670000000 1.0
C      1  0.5280700000000  0.5154970000000  0.5154390000000 1.0
C      1  0.5280640000000  0.5154880000000  0.4845900000000 1.0
C      1  0.5280700000000  0.4845120000000  0.5154110000000 1.0
C      1  0.5536070000000  0.4721640000000  0.4710120000000 1.0
C      1  0.5536040000000  0.5278410000000  0.5289780000000 1.0
C      1  0.5535990000000  0.5278450000000  0.4710610000000 1.0
C      1  0.5535870000000  0.4721420000000  0.5289460000000 1.0
C      1  0.4734610000000  0.4843730000000  0.4853420000000 1.0
C      1  0.4734590000000  0.5155900000000  0.5146560000000 1.0
C      1  0.4735960000000  0.5149130000000  0.4827780000000 1.0
C      1  0.4735980000000  0.4850470000000  0.5172220000000 1.0
C      1  0.4759870000000  0.4679250000000  0.4427610000000 1.0
C      1  0.4760260000000  0.5321440000000  0.5572820000000 1.0
C      1  0.4758660000000  0.5322750000000  0.4427880000000 1.0
C      1  0.4758260000000  0.4677940000000  0.5571660000000 1.0
C      1  0.4665170000000  0.5525440000000  0.4657130000000 1.0
C      1  0.4665330000000  0.4474190000000  0.5342910000000 1.0
C      1  0.4666480000000  0.4479520000000  0.4657110000000 1.0
C      1  0.4666330000000  0.5520080000000  0.5342840000000 1.0
C      1  0.5066520000000  0.4817530000000  0.5577420000000 1.0
C      1  0.5066780000000  0.5183070000000  0.4422580000000 1.0
C      1  0.5067450000000  0.5182390000000  0.5577710000000 1.0
C      1  0.5067200000000  0.4818190000000  0.4422270000000 1.0
C      1  0.4518440000000  0.4844250000000  0.4359400000000 1.0
C      1  0.4519140000000  0.5156610000000  0.5642360000000 1.0
C      1  0.4518050000000  0.5157310000000  0.4358790000000 1.0
C      1  0.4517340000000  0.4843590000000  0.5639420000000 1.0
C      1  0.5002850000000  0.4675500000000  0.5176610000000 1.0
C      1  0.5002740000000  0.5324390000000  0.4823400000000 1.0
C      1  0.5002340000000  0.5326260000000  0.5174780000000 1.0
C      1  0.5002450000000  0.4673620000000  0.4825230000000 1.0
C      1  0.5178870000000  0.4521310000000  0.4598560000000 1.0
C      1  0.5179120000000  0.5478920000000  0.5400970000000 1.0
C      1  0.5180350000000  0.5479060000000  0.4599400000000 1.0
C      1  0.5180180000000  0.4521220000000  0.5401140000000 1.0
C      1  0.4456610000000  0.4669920000000  0.5180020000000 1.0
C      1  0.4456480000000  0.5329530000000  0.4819960000000 1.0
C      1  0.4458150000000  0.5328410000000  0.5180250000000 1.0
C      1  0.4458250000000  0.4671010000000  0.4819780000000 1.0
C      1  0.5421960000000  0.4447600000000  0.4836410000000 1.0
C      1  0.5422250000000  0.5552330000000  0.5163580000000 1.0
C      1  0.5422520000000  0.5552530000000  0.4837070000000 1.0
C      1  0.5422240000000  0.4447470000000  0.5162980000000 1.0
C      1  0.5778620000000  0.5158410000000  0.5161850000000 1.0
C      1  0.5778510000000  0.4841360000000  0.4838140000000 1.0
C      1  0.5778560000000  0.4841490000000  0.5161680000000 1.0
C      1  0.5778550000000  0.5158420000000  0.4838350000000 1.0
C      1  0.4306600000000  0.4837350000000  0.4606580000000 1.0
C      1  0.4307810000000  0.5161890000000  0.5394510000000 1.0
C      1  0.4305720000000  0.5162150000000  0.4605260000000 1.0
C      1  0.4304480000000  0.4837110000000  0.5393630000000 1.0
C      1  0.4879200000000  0.5641230000000  0.5157060000000 1.0
C      1  0.4879660000000  0.4358720000000  0.4842830000000 1.0
C      1  0.4880820000000  0.4360710000000  0.5155460000000 1.0
C      1  0.4880450000000  0.5639200000000  0.4844580000000 1.0
C      1  0.5411240000000  0.5154640000000  0.5553340000000 1.0
C      1  0.5411150000000  0.4845410000000  0.4446690000000 1.0
C      1  0.5410990000000  0.4845060000000  0.5553180000000 1.0
C      1  0.5411080000000  0.5155080000000  0.4446790000000 1.0
END
