TITL C-3985250-725-1094 0.00898253666401093 125000 -302.389761994571 0 0 60 (D3) n - 1
REM
REM in /home/nfs/bkarasulu/CARBON/AIRSS/Generating-Clusters/TERSOFF/Higher-Symm/Only-C60
REM
REM
REM
REM
REM
REM ./C.cell (28575a23ae977d3b5fae324c64b13b57)
REM
REM compiler GCC version 9.2.1 20190827 (Red Hat 9.2.1-1)
REM options -cpp -mtune=generic -march=x86-64 -g -O0 -fpre-include=/usr/include/finclude/math-vector-fortran.h
REM seed 865741834 -1287018483 334906828 1853483119 -1252596653 -639516974 397474060 -759188252 -658418097 -1284416748 2119891579 -745875795 -1925396800 1635503515 1635461028 -1718825203 -519711537 1970223083 305956713 1156495593 -831060289 296502623 -1237444647 -111811586 1975796047 1685876265 631378011 705090798 -2095671730 21581258 -1767470676 -581854184 1836738648
REM
CELL 1.54180   50.00000   50.00000   50.00000   90.00000   90.00000   90.00000
LATT -1
SFAC C  
C      1  0.5391290000000  0.5618720000000  0.5347450000000 1.0
C      1  0.4272970000000  0.5035710000000  0.5347580000000 1.0
C      1  0.5337080000000  0.4358260000000  0.5347490000000 1.0
C      1  0.4609090000000  0.5619610000000  0.4652240000000 1.0
C      1  0.5728910000000  0.5035610000000  0.4652170000000 1.0
C      1  0.4662470000000  0.4357650000000  0.4652190000000 1.0
C      1  0.5190410000000  0.5495610000000  0.5527250000000 1.0
C      1  0.4479820000000  0.4923200000000  0.5527750000000 1.0
C      1  0.5330540000000  0.4594040000000  0.5527200000000 1.0
C      1  0.4810920000000  0.5496070000000  0.4473330000000 1.0
C      1  0.5521160000000  0.4922420000000  0.4473290000000 1.0
C      1  0.4668910000000  0.4594130000000  0.4473440000000 1.0
C      1  0.4943240000000  0.5576260000000  0.5356010000000 1.0
C      1  0.4532090000000  0.4668280000000  0.5356910000000 1.0
C      1  0.5524360000000  0.4767620000000  0.5356340000000 1.0
C      1  0.5057960000000  0.5576130000000  0.4645290000000 1.0
C      1  0.5466790000000  0.4668700000000  0.4645180000000 1.0
C      1  0.4476980000000  0.4768180000000  0.4645610000000 1.0
C      1  0.5707230000000  0.5263450000000  0.5297410000000 1.0
C      1  0.4422920000000  0.5486400000000  0.5297360000000 1.0
C      1  0.4871260000000  0.4262260000000  0.5297350000000 1.0
C      1  0.4293380000000  0.5262520000000  0.4702730000000 1.0
C      1  0.5578860000000  0.5488310000000  0.4701880000000 1.0
C      1  0.5130230000000  0.4261510000000  0.4702390000000 1.0
C      1  0.5611520000000  0.5003700000000  0.4919190000000 1.0
C      1  0.4694730000000  0.5534380000000  0.4919610000000 1.0
C      1  0.4693640000000  0.4474320000000  0.4919560000000 1.0
C      1  0.4389780000000  0.5002860000000  0.5080620000000 1.0
C      1  0.5304360000000  0.5534060000000  0.5080420000000 1.0
C      1  0.5306720000000  0.4475890000000  0.5080550000000 1.0
C      1  0.4715050000000  0.5114660000000  0.5579760000000 1.0
C      1  0.5047050000000  0.4702100000000  0.5578930000000 1.0
C      1  0.5238790000000  0.5195940000000  0.5579830000000 1.0
C      1  0.5286050000000  0.5114580000000  0.4420450000000 1.0
C      1  0.4952310000000  0.4701030000000  0.4418560000000 1.0
C      1  0.4762220000000  0.5196620000000  0.4419730000000 1.0
C      1  0.4509330000000  0.5075860000000  0.4591390000000 1.0
C      1  0.5184220000000  0.4541910000000  0.4590270000000 1.0
C      1  0.5308430000000  0.5394250000000  0.4590800000000 1.0
C      1  0.5491120000000  0.5075500000000  0.5410490000000 1.0
C      1  0.4816670000000  0.4544060000000  0.5409250000000 1.0
C      1  0.4693850000000  0.5392740000000  0.5409080000000 1.0
C      1  0.5092420000000  0.4756520000000  0.4810920000000 1.0
C      1  0.5167980000000  0.5207340000000  0.4810970000000 1.0
C      1  0.4741460000000  0.5047940000000  0.4811450000000 1.0
C      1  0.4906940000000  0.4751580000000  0.5187140000000 1.0
C      1  0.4829470000000  0.5210080000000  0.5187080000000 1.0
C      1  0.5265070000000  0.5051740000000  0.5187390000000 1.0
C      1  0.5696160000000  0.5406720000000  0.5000420000000 1.0
C      1  0.4304220000000  0.5405760000000  0.4999760000000 1.0
C      1  0.5001100000000  0.4200050000000  0.4999590000000 1.0
C      1  0.5000380000000  0.4529480000000  0.4998780000000 1.0
C      1  0.5409760000000  0.5240820000000  0.4999730000000 1.0
C      1  0.4590350000000  0.5241190000000  0.4999090000000 1.0
C      1  0.4467960000000  0.4696220000000  0.5000780000000 1.0
C      1  0.5532770000000  0.4697350000000  0.5000210000000 1.0
C      1  0.4999830000000  0.5619700000000  0.5000490000000 1.0
C      1  0.5000470000000  0.5004160000000  0.4384330000000 1.0
C      1  0.5000220000000  0.5004070000000  0.5615600000000 1.0
C      1  0.5001280000000  0.5003260000000  0.5007590000000 1.0
END
