TITL C-3985251-913-260 -5.91335768445937e-08 125000 -321.35538588227 0 0 60 (C4v) n - 1
REM
REM in /home/nfs/bkarasulu/CARBON/AIRSS/Generating-Clusters/TERSOFF/Higher-Symm/Only-C60
REM
REM
REM
REM
REM
REM ./C.cell (28575a23ae977d3b5fae324c64b13b57)
REM
REM compiler GCC version 9.2.1 20190827 (Red Hat 9.2.1-1)
REM options -cpp -mtune=generic -march=x86-64 -g -O0 -fpre-include=/usr/include/finclude/math-vector-fortran.h
REM seed -305767937 -1615544534 1629155771 -2049177961 -551845720 -1537645797 1363156804 -472875763 -967871145 235126892 -1417315729 -1022739703 -1317663915 -2100633500 425024574 -6298625 1431859089 -1343722092 1621925629 632507977 428991570 -2146832461 1854775505 -1554187911 1470410221 -613225511 -476677211 1579128872 520225631 -1903425568 -37451316 1999837899 -1192338165
REM
CELL 1.54180   50.00000   50.00000   50.00000   90.00000   90.00000   90.00000
LATT -1
SFAC C  
C      1  0.5566730000000  0.5181370000000  0.5259410000000 1.0
C      1  0.5181370000000  0.4433270000000  0.5259410000000 1.0
C      1  0.4433270000000  0.4818630000000  0.5259410000000 1.0
C      1  0.4818630000000  0.5566730000000  0.5259410000000 1.0
C      1  0.4433270000000  0.5181370000000  0.5259410000000 1.0
C      1  0.4818630000000  0.4433270000000  0.5259410000000 1.0
C      1  0.5566730000000  0.4818630000000  0.5259410000000 1.0
C      1  0.5181370000000  0.5566730000000  0.5259410000000 1.0
C      1  0.4290050000000  0.4509390000000  0.4859430000000 1.0
C      1  0.4509390000000  0.5709950000000  0.4859430000000 1.0
C      1  0.5709950000000  0.5490610000000  0.4859430000000 1.0
C      1  0.5490610000000  0.4290050000000  0.4859430000000 1.0
C      1  0.5709950000000  0.4509390000000  0.4859430000000 1.0
C      1  0.5490610000000  0.5709950000000  0.4859430000000 1.0
C      1  0.4290050000000  0.5490610000000  0.4859430000000 1.0
C      1  0.4509390000000  0.4290050000000  0.4859430000000 1.0
C      1  0.4843020000000  0.4633620000000  0.5508250000000 1.0
C      1  0.4633620000000  0.5156980000000  0.5508250000000 1.0
C      1  0.5156980000000  0.5366380000000  0.5508250000000 1.0
C      1  0.5366380000000  0.4843020000000  0.5508250000000 1.0
C      1  0.5156980000000  0.4633620000000  0.5508250000000 1.0
C      1  0.5366380000000  0.5156980000000  0.5508250000000 1.0
C      1  0.4843020000000  0.5366380000000  0.5508250000000 1.0
C      1  0.4633620000000  0.4843020000000  0.5508250000000 1.0
C      1  0.5371040000000  0.4840960000000  0.4536260000000 1.0
C      1  0.4840960000000  0.4628960000000  0.4536260000000 1.0
C      1  0.4628960000000  0.5159040000000  0.4536260000000 1.0
C      1  0.5159040000000  0.5371040000000  0.4536260000000 1.0
C      1  0.4628960000000  0.4840960000000  0.4536260000000 1.0
C      1  0.5159040000000  0.4628960000000  0.4536260000000 1.0
C      1  0.5371040000000  0.5159040000000  0.4536260000000 1.0
C      1  0.4840960000000  0.5371040000000  0.4536260000000 1.0
C      1  0.4770270000000  0.5605590000000  0.4744190000000 1.0
C      1  0.5605590000000  0.5229730000000  0.4744190000000 1.0
C      1  0.5229730000000  0.4394410000000  0.4744190000000 1.0
C      1  0.4394410000000  0.4770270000000  0.4744190000000 1.0
C      1  0.5229730000000  0.5605590000000  0.4744190000000 1.0
C      1  0.4394410000000  0.5229730000000  0.4744190000000 1.0
C      1  0.4770270000000  0.4394410000000  0.4744190000000 1.0
C      1  0.5605590000000  0.4770270000000  0.4744190000000 1.0
C      1  0.4539250000000  0.5690200000000  0.5181310000000 1.0
C      1  0.5690200000000  0.5460750000000  0.5181310000000 1.0
C      1  0.5460750000000  0.4309800000000  0.5181310000000 1.0
C      1  0.4309800000000  0.4539250000000  0.5181310000000 1.0
C      1  0.5460750000000  0.5690200000000  0.5181310000000 1.0
C      1  0.4309800000000  0.5460750000000  0.5181310000000 1.0
C      1  0.4539250000000  0.4309800000000  0.5181310000000 1.0
C      1  0.5690200000000  0.4539250000000  0.5181310000000 1.0
C      1  0.4613550000000  0.5162510000000  0.4981440000000 1.0
C      1  0.5162510000000  0.5386450000000  0.4981440000000 1.0
C      1  0.5386450000000  0.4837490000000  0.4981440000000 1.0
C      1  0.4837490000000  0.4613550000000  0.4981440000000 1.0
C      1  0.5386450000000  0.5162510000000  0.4981440000000 1.0
C      1  0.4837490000000  0.5386450000000  0.4981440000000 1.0
C      1  0.4613550000000  0.4837490000000  0.4981440000000 1.0
C      1  0.5162510000000  0.4613550000000  0.4981440000000 1.0
C      1  0.5792820000000  0.5000000000000  0.4728630000000 1.0
C      1  0.5000000000000  0.4207180000000  0.4728630000000 1.0
C      1  0.4207180000000  0.5000000000000  0.4728630000000 1.0
C      1  0.5000000000000  0.5792820000000  0.4728630000000 1.0
END
