TITL C-3985257-5396-242 0.00499557402165403 125000 -363.763045776891 0 0 60 (C1) n - 1
REM
REM in /home/nfs/bkarasulu/CARBON/AIRSS/Generating-Clusters/TERSOFF/Higher-Symm/Only-C60
REM
REM
REM
REM
REM
REM ./C.cell (28575a23ae977d3b5fae324c64b13b57)
REM
REM compiler GCC version 9.2.1 20190827 (Red Hat 9.2.1-1)
REM options -cpp -mtune=generic -march=x86-64 -g -O0 -fpre-include=/usr/include/finclude/math-vector-fortran.h
REM seed 127157411 1566847542 -125984985 1114703157 -2145888924 -2087027751 1251761007 226657822 -263736630 1238719905 976574998 -709307415 2024370831 -1220772278 -567329043 1557401183 853400642 575531109 1224189760 -858641369 -1290405518 248315857 -673711218 359181004 -1132671259 -969524883 -1500819279 1497905940 -785994114 -665792813 -931879058 454212240 679912606
REM
CELL 1.54180   50.00000   50.00000   50.00000   90.00000   90.00000   90.00000
LATT -1
SFAC C  
C      1  0.4854490000000  0.4781620000000  0.4341210000000 1.0
C      1  0.5151930000000  0.4819450000000  0.4356660000000 1.0
C      1  0.5208500000000  0.5113600000000  0.4378190000000 1.0
C      1  0.4946800000000  0.5258850000000  0.4364610000000 1.0
C      1  0.4730020000000  0.5053180000000  0.4338830000000 1.0
C      1  0.4636260000000  0.5566280000000  0.4630120000000 1.0
C      1  0.4320860000000  0.4887990000000  0.4668030000000 1.0
C      1  0.4884490000000  0.4337670000000  0.4676760000000 1.0
C      1  0.5571370000000  0.4716580000000  0.4688860000000 1.0
C      1  0.5394040000000  0.5488880000000  0.4664290000000 1.0
C      1  0.5429440000000  0.4970520000000  0.5716570000000 1.0
C      1  0.5158290000000  0.5399800000000  0.5704490000000 1.0
C      1  0.4664930000000  0.5283190000000  0.5682510000000 1.0
C      1  0.4641120000000  0.4776790000000  0.5690590000000 1.0
C      1  0.5108190000000  0.4581280000000  0.5703380000000 1.0
C      1  0.4894600000000  0.5431770000000  0.5576120000000 1.0
C      1  0.4564230000000  0.5032990000000  0.5567790000000 1.0
C      1  0.4843350000000  0.4593890000000  0.5578980000000 1.0
C      1  0.5345170000000  0.4715770000000  0.5596420000000 1.0
C      1  0.5377450000000  0.5233870000000  0.5596710000000 1.0
C      1  0.5131760000000  0.5627500000000  0.4657630000000 1.0
C      1  0.4419940000000  0.5374690000000  0.4586900000000 1.0
C      1  0.4452120000000  0.4608460000000  0.4622250000000 1.0
C      1  0.5191310000000  0.4377920000000  0.4625790000000 1.0
C      1  0.5609860000000  0.5034210000000  0.4686580000000 1.0
C      1  0.5232710000000  0.5133850000000  0.5150620000000 1.0
C      1  0.4961950000000  0.5240810000000  0.5143150000000 1.0
C      1  0.4778060000000  0.5015000000000  0.5137160000000 1.0
C      1  0.4934360000000  0.4773700000000  0.5140700000000 1.0
C      1  0.5213190000000  0.4846330000000  0.5149800000000 1.0
C      1  0.5313730000000  0.4437170000000  0.5140660000000 1.0
C      1  0.5683080000000  0.5095310000000  0.5191520000000 1.0
C      1  0.5128030000000  0.5661960000000  0.5169150000000 1.0
C      1  0.4437530000000  0.5272990000000  0.5112380000000 1.0
C      1  0.4569460000000  0.4535170000000  0.5133120000000 1.0
C      1  0.4385400000000  0.4771760000000  0.5171830000000 1.0
C      1  0.5032940000000  0.4333810000000  0.5180190000000 1.0
C      1  0.5664620000000  0.4793190000000  0.5206280000000 1.0
C      1  0.5412300000000  0.5540430000000  0.5176290000000 1.0
C      1  0.4617350000000  0.5523760000000  0.5137910000000 1.0
C      1  0.4626040000000  0.5688680000000  0.4895730000000 1.0
C      1  0.4205870000000  0.4822430000000  0.4950050000000 1.0
C      1  0.4925260000000  0.4190950000000  0.4950390000000 1.0
C      1  0.5740190000000  0.4665770000000  0.4951720000000 1.0
C      1  0.5542400000000  0.5554050000000  0.4910580000000 1.0
C      1  0.5318400000000  0.4625170000000  0.4487420000000 1.0
C      1  0.5422650000000  0.5216850000000  0.4547900000000 1.0
C      1  0.4904290000000  0.5506630000000  0.4518590000000 1.0
C      1  0.4467290000000  0.5104150000000  0.4458470000000 1.0
C      1  0.4720650000000  0.4561150000000  0.4475690000000 1.0
C      1  0.5400630000000  0.4440510000000  0.4855180000000 1.0
C      1  0.5757290000000  0.5151560000000  0.4912270000000 1.0
C      1  0.5075410000000  0.5778130000000  0.4903430000000 1.0
C      1  0.4319790000000  0.5214610000000  0.4835420000000 1.0
C      1  0.4581900000000  0.4436800000000  0.4851540000000 1.0
C      1  0.5447970000000  0.5266440000000  0.5306180000000 1.0
C      1  0.4892550000000  0.5492970000000  0.5282280000000 1.0
C      1  0.4515380000000  0.5023840000000  0.5274180000000 1.0
C      1  0.4835210000000  0.4535380000000  0.5285850000000 1.0
C      1  0.5405570000000  0.4681920000000  0.5306110000000 1.0
END
