TITL C-3985251-913-141 0.00793201666010059 125000 -302.71678121482 0 0 60 (Ci) n - 1
REM
REM in /home/nfs/bkarasulu/CARBON/AIRSS/Generating-Clusters/TERSOFF/Higher-Symm/Only-C60
REM
REM
REM
REM
REM
REM ./C.cell (28575a23ae977d3b5fae324c64b13b57)
REM
REM compiler GCC version 9.2.1 20190827 (Red Hat 9.2.1-1)
REM options -cpp -mtune=generic -march=x86-64 -g -O0 -fpre-include=/usr/include/finclude/math-vector-fortran.h
REM seed 3737162 423607959 -264558693 -1660303163 1283037195 -383914549 -1573848022 1825443819 -1974247883 -1983184019 -227873842 1282842663 1472043546 2095418704 1920294047 2073254877 1179989026 -1697538205 -1294120711 1256651286 649458536 -887028477 -1938376685 -2106384765 -58088658 1588529239 1319932300 -1815033536 -1739405311 -977351266 1530150931 1956425227 -1812462944
REM
CELL 1.54180   50.00000   50.00000   50.00000   90.00000   90.00000   90.00000
LATT -1
SFAC C  
C      1  0.5161090000000  0.4693760000000  0.4842600000000 1.0
C      1  0.4674540000000  0.4963830000000  0.4834220000000 1.0
C      1  0.5160010000000  0.5232320000000  0.4827820000000 1.0
C      1  0.5157470000000  0.5306150000000  0.5156600000000 1.0
C      1  0.4674750000000  0.5038880000000  0.5165900000000 1.0
C      1  0.5160320000000  0.4767700000000  0.5172680000000 1.0
C      1  0.4842390000000  0.5306650000000  0.5156730000000 1.0
C      1  0.5325080000000  0.5039000000000  0.5165810000000 1.0
C      1  0.4839700000000  0.4767800000000  0.5172890000000 1.0
C      1  0.4841000000000  0.4695350000000  0.4842560000000 1.0
C      1  0.5325410000000  0.4962930000000  0.4834290000000 1.0
C      1  0.4839910000000  0.5232480000000  0.4827790000000 1.0
C      1  0.5162810000000  0.4725960000000  0.4500400000000 1.0
C      1  0.4676390000000  0.5008160000000  0.4494800000000 1.0
C      1  0.5162400000000  0.5289780000000  0.4497250000000 1.0
C      1  0.5162240000000  0.5273130000000  0.5501200000000 1.0
C      1  0.4676760000000  0.4991870000000  0.5505130000000 1.0
C      1  0.5162300000000  0.4710440000000  0.5502890000000 1.0
C      1  0.4837600000000  0.5273550000000  0.5501370000000 1.0
C      1  0.5323380000000  0.4991920000000  0.5505260000000 1.0
C      1  0.4837570000000  0.4710190000000  0.5502980000000 1.0
C      1  0.4837010000000  0.4725610000000  0.4502430000000 1.0
C      1  0.5323660000000  0.5008150000000  0.4494700000000 1.0
C      1  0.4837410000000  0.5290170000000  0.4496940000000 1.0
C      1  0.5313190000000  0.5537280000000  0.5473100000000 1.0
C      1  0.5310950000000  0.4456500000000  0.5469000000000 1.0
C      1  0.4378130000000  0.4995190000000  0.5470950000000 1.0
C      1  0.5314290000000  0.4460990000000  0.4525560000000 1.0
C      1  0.5311120000000  0.5543830000000  0.4531070000000 1.0
C      1  0.4378050000000  0.5004720000000  0.4529030000000 1.0
C      1  0.4684550000000  0.4458950000000  0.4524040000000 1.0
C      1  0.4689260000000  0.5543040000000  0.4531600000000 1.0
C      1  0.5621360000000  0.5004840000000  0.4529080000000 1.0
C      1  0.4686940000000  0.5536990000000  0.5472770000000 1.0
C      1  0.4688980000000  0.4456590000000  0.5468420000000 1.0
C      1  0.5621310000000  0.4995150000000  0.5470920000000 1.0
C      1  0.5381160000000  0.5658000000000  0.5215460000000 1.0
C      1  0.5374000000000  0.4349260000000  0.5208400000000 1.0
C      1  0.4251970000000  0.4997630000000  0.5211100000000 1.0
C      1  0.5379640000000  0.4344050000000  0.4782020000000 1.0
C      1  0.5373590000000  0.5649970000000  0.4792280000000 1.0
C      1  0.4252000000000  0.5002510000000  0.4788870000000 1.0
C      1  0.4620240000000  0.4343990000000  0.4783440000000 1.0
C      1  0.4626070000000  0.5650740000000  0.4794050000000 1.0
C      1  0.5748880000000  0.5002340000000  0.4787980000000 1.0
C      1  0.4619210000000  0.5657510000000  0.5214430000000 1.0
C      1  0.4626380000000  0.4349720000000  0.5206390000000 1.0
C      1  0.5748880000000  0.4997700000000  0.5212010000000 1.0
C      1  0.4258760000000  0.4747300000000  0.4998740000000 1.0
C      1  0.5154260000000  0.5771110000000  0.5000160000000 1.0
C      1  0.5589870000000  0.4479040000000  0.5001850000000 1.0
C      1  0.4258860000000  0.5252840000000  0.5001100000000 1.0
C      1  0.5154910000000  0.4228510000000  0.5000650000000 1.0
C      1  0.5589780000000  0.5520500000000  0.4999080000000 1.0
C      1  0.5740790000000  0.5253250000000  0.5000990000000 1.0
C      1  0.4844910000000  0.4227950000000  0.5000930000000 1.0
C      1  0.4409650000000  0.5519960000000  0.4998600000000 1.0
C      1  0.5740710000000  0.4746550000000  0.4998870000000 1.0
C      1  0.4846280000000  0.5771370000000  0.4999650000000 1.0
C      1  0.4409890000000  0.4478370000000  0.5002160000000 1.0
END
