TITL C-3985244-725-40 7.46296399943691e-06 125000 -324.438985202719 0 0 60 (C1) n - 1
REM
REM in /home/nfs/bkarasulu/CARBON/AIRSS/Generating-Clusters/TERSOFF/Higher-Symm/Only-C60
REM
REM
REM
REM
REM
REM ./C.cell (28575a23ae977d3b5fae324c64b13b57)
REM
REM compiler GCC version 9.2.1 20190827 (Red Hat 9.2.1-1)
REM options -cpp -mtune=generic -march=x86-64 -g -O0 -fpre-include=/usr/include/finclude/math-vector-fortran.h
REM seed 1999251288 -371501985 669315085 1156368659 1993299594 -2124239337 -181866046 -28094955 -1480101609 2125366112 -2011534145 928663535 -1471520243 1041722388 2086448458 -1470874378 -1700257806 -271304654 1484455272 368872248 743640906 534335983 478104438 -1163566297 -1230126333 1051974334 763237359 1236942535 -1165499645 -1079274952 -1509490806 -730676544 469107468
REM
CELL 1.54180   50.00000   50.00000   50.00000   90.00000   90.00000   90.00000
LATT -1
SFAC C  
C      1  0.4591790000000  0.5067400000000  0.5604380000000 1.0
C      1  0.4474850000000  0.4953670000000  0.5053380000000 1.0
C      1  0.4563430000000  0.5342090000000  0.4740620000000 1.0
C      1  0.5613240000000  0.5474280000000  0.4855470000000 1.0
C      1  0.5411210000000  0.5281080000000  0.4426750000000 1.0
C      1  0.5499000000000  0.5000400000000  0.4386990000000 1.0
C      1  0.4568860000000  0.4625340000000  0.5187350000000 1.0
C      1  0.4850490000000  0.4714810000000  0.4868340000000 1.0
C      1  0.4331120000000  0.5248870000000  0.5199080000000 1.0
C      1  0.4436380000000  0.5289750000000  0.5502250000000 1.0
C      1  0.4507460000000  0.5529850000000  0.5140310000000 1.0
C      1  0.4776130000000  0.5635410000000  0.5313180000000 1.0
C      1  0.4292230000000  0.5286730000000  0.4874360000000 1.0
C      1  0.5025100000000  0.4309900000000  0.5028000000000 1.0
C      1  0.4897850000000  0.5687520000000  0.4974250000000 1.0
C      1  0.5400630000000  0.4771040000000  0.4541390000000 1.0
C      1  0.4829870000000  0.5139580000000  0.5763640000000 1.0
C      1  0.4660010000000  0.5624610000000  0.4761320000000 1.0
C      1  0.5071900000000  0.5184050000000  0.5591980000000 1.0
C      1  0.4949530000000  0.4859270000000  0.4353900000000 1.0
C      1  0.5393240000000  0.4552490000000  0.5280460000000 1.0
C      1  0.5441100000000  0.5663260000000  0.5000960000000 1.0
C      1  0.4958640000000  0.4487990000000  0.5530560000000 1.0
C      1  0.4546730000000  0.4338730000000  0.4705730000000 1.0
C      1  0.4574370000000  0.5548140000000  0.5554150000000 1.0
C      1  0.4717210000000  0.5170320000000  0.5002700000000 1.0
C      1  0.4560860000000  0.4591410000000  0.4859870000000 1.0
C      1  0.5232380000000  0.4605700000000  0.5533140000000 1.0
C      1  0.5119180000000  0.5347900000000  0.4459060000000 1.0
C      1  0.5210240000000  0.5253930000000  0.5161370000000 1.0
C      1  0.4960720000000  0.5205160000000  0.4820760000000 1.0
C      1  0.5636270000000  0.5219330000000  0.4999360000000 1.0
C      1  0.5383270000000  0.4382430000000  0.4803180000000 1.0
C      1  0.5329830000000  0.4324350000000  0.5099620000000 1.0
C      1  0.5239210000000  0.4794150000000  0.5157880000000 1.0
C      1  0.5051850000000  0.5477270000000  0.4737350000000 1.0
C      1  0.4386470000000  0.4824050000000  0.4760350000000 1.0
C      1  0.5525050000000  0.5226450000000  0.5293850000000 1.0
C      1  0.4617810000000  0.5179250000000  0.4487770000000 1.0
C      1  0.4777200000000  0.4690960000000  0.5619860000000 1.0
C      1  0.5073530000000  0.5518550000000  0.5456300000000 1.0
C      1  0.4701390000000  0.4690000000000  0.4372700000000 1.0
C      1  0.5378000000000  0.4999550000000  0.4973600000000 1.0
C      1  0.4762790000000  0.4418140000000  0.4516920000000 1.0
C      1  0.5715610000000  0.4749070000000  0.4961610000000 1.0
C      1  0.4503470000000  0.4900270000000  0.4497540000000 1.0
C      1  0.4953460000000  0.4782060000000  0.5126350000000 1.0
C      1  0.5551080000000  0.4973780000000  0.5432760000000 1.0
C      1  0.4901000000000  0.5159430000000  0.4368440000000 1.0
C      1  0.5147890000000  0.4999520000000  0.4786480000000 1.0
C      1  0.4919650000000  0.5168030000000  0.5284910000000 1.0
C      1  0.4832290000000  0.4401250000000  0.5253140000000 1.0
C      1  0.5184140000000  0.5573670000000  0.5123760000000 1.0
C      1  0.5296120000000  0.4921340000000  0.5592040000000 1.0
C      1  0.5642790000000  0.4730370000000  0.5254600000000 1.0
C      1  0.5595850000000  0.5459850000000  0.4565540000000 1.0
C      1  0.5560460000000  0.4616130000000  0.4739230000000 1.0
C      1  0.5088860000000  0.4750670000000  0.4598930000000 1.0
C      1  0.4725110000000  0.4878090000000  0.5381140000000 1.0
C      1  0.5053800000000  0.4401270000000  0.4679100000000 1.0
END
