TITL C-3985254-1270-1699 0.00242256817477851 125000 -300.336848026111 0 0 60 (C5) n - 1
REM
REM in /home/nfs/bkarasulu/CARBON/AIRSS/Generating-Clusters/TERSOFF/Higher-Symm/Only-C60
REM
REM
REM
REM
REM
REM ./C.cell (28575a23ae977d3b5fae324c64b13b57)
REM
REM compiler GCC version 9.2.1 20190827 (Red Hat 9.2.1-1)
REM options -cpp -mtune=generic -march=x86-64 -g -O0 -fpre-include=/usr/include/finclude/math-vector-fortran.h
REM seed -999092718 1834726044 -496871599 665350315 -498094629 -1564131237 -711117281 -897081329 1829732298 356091963 2020049362 -1705603051 -1341447792 887048367 1615229008 2049967286 1097015923 1439426640 235059970 -1264869106 147818815 1440197628 -2123812144 -157500211 1512469774 -1198560636 1304177448 1870323134 -230989848 646401749 622321525 -1596893675 -686532039
REM
CELL 1.54180   50.00000   50.00000   50.00000   90.00000   90.00000   90.00000
LATT -1
SFAC C  
C      1  0.5451780000000  0.4498120000000  0.5236330000000 1.0
C      1  0.5616950000000  0.5274550000000  0.5236340000000 1.0
C      1  0.4929540000000  0.5671550000000  0.5236310000000 1.0
C      1  0.4339550000000  0.5140500000000  0.5236310000000 1.0
C      1  0.4662280000000  0.4415310000000  0.5236310000000 1.0
C      1  0.4732950000000  0.4996970000000  0.5575100000000 1.0
C      1  0.4920330000000  0.4745090000000  0.5575100000000 1.0
C      1  0.5217840000000  0.4845430000000  0.5575100000000 1.0
C      1  0.5214340000000  0.5159420000000  0.5575090000000 1.0
C      1  0.4914580000000  0.5253070000000  0.5575080000000 1.0
C      1  0.5200310000000  0.4408940000000  0.4808050000000 1.0
C      1  0.5623970000000  0.5007870000000  0.4808160000000 1.0
C      1  0.5185450000000  0.5595940000000  0.4808160000000 1.0
C      1  0.4490580000000  0.5360230000000  0.4808590000000 1.0
C      1  0.4499960000000  0.4626830000000  0.4808450000000 1.0
C      1  0.4780740000000  0.4299550000000  0.4964740000000 1.0
C      1  0.5598410000000  0.4575010000000  0.4964740000000 1.0
C      1  0.5589070000000  0.5437860000000  0.4964740000000 1.0
C      1  0.4765590000000  0.5695560000000  0.4964740000000 1.0
C      1  0.4266060000000  0.4992050000000  0.4964740000000 1.0
C      1  0.4781690000000  0.4797070000000  0.4852360000000 1.0
C      1  0.5125550000000  0.4729660000000  0.4852360000000 1.0
C      1  0.5295890000000  0.5035870000000  0.4852370000000 1.0
C      1  0.5057320000000  0.5292520000000  0.4852360000000 1.0
C      1  0.4739530000000  0.5144920000000  0.4852370000000 1.0
C      1  0.4538390000000  0.5356120000000  0.5225740000000 1.0
C      1  0.4518660000000  0.4671070000000  0.5225880000000 1.0
C      1  0.5164310000000  0.4440570000000  0.5226110000000 1.0
C      1  0.5582930000000  0.4983680000000  0.5225800000000 1.0
C      1  0.5195800000000  0.5549230000000  0.5226080000000 1.0
C      1  0.5298790000000  0.5082110000000  0.4507770000000 1.0
C      1  0.5014270000000  0.5309530000000  0.4507750000000 1.0
C      1  0.4710020000000  0.5109230000000  0.4507770000000 1.0
C      1  0.4806510000000  0.4757960000000  0.4507770000000 1.0
C      1  0.5170430000000  0.4741200000000  0.4507770000000 1.0
C      1  0.5738710000000  0.4834750000000  0.5021340000000 1.0
C      1  0.5385470000000  0.5651490000000  0.5021280000000 1.0
C      1  0.4499510000000  0.5567970000000  0.5021300000000 1.0
C      1  0.4305170000000  0.4699500000000  0.5021330000000 1.0
C      1  0.5071120000000  0.4246380000000  0.5021340000000 1.0
C      1  0.5446190000000  0.5331780000000  0.5483390000000 1.0
C      1  0.4822000000000  0.5526720000000  0.5483130000000 1.0
C      1  0.4444050000000  0.4993460000000  0.5483100000000 1.0
C      1  0.4834120000000  0.4469230000000  0.5483360000000 1.0
C      1  0.5453380000000  0.4677990000000  0.5483550000000 1.0
C      1  0.5273760000000  0.4983750000000  0.5182620000000 1.0
C      1  0.5100060000000  0.5255350000000  0.5182630000000 1.0
C      1  0.4788070000000  0.5174050000000  0.5182580000000 1.0
C      1  0.4768990000000  0.4852230000000  0.5182610000000 1.0
C      1  0.5069150000000  0.4734620000000  0.5182600000000 1.0
C      1  0.5493540000000  0.5364040000000  0.4630620000000 1.0
C      1  0.4806150000000  0.5581870000000  0.4630560000000 1.0
C      1  0.4386800000000  0.4995720000000  0.4630700000000 1.0
C      1  0.4814580000000  0.4415470000000  0.4630690000000 1.0
C      1  0.5498760000000  0.4643140000000  0.4630600000000 1.0
C      1  0.4453710000000  0.4705080000000  0.4511670000000 1.0
C      1  0.5111640000000  0.4389320000000  0.4511630000000 1.0
C      1  0.5615310000000  0.4917450000000  0.4511630000000 1.0
C      1  0.5268670000000  0.5559650000000  0.4511610000000 1.0
C      1  0.4550720000000  0.5428440000000  0.4511660000000 1.0
END
