TITL C-3985254-1270-1783 0.00044025002382032 125000 -346.905697455786 0 0 60 (Cs) n - 1
REM
REM in /home/nfs/bkarasulu/CARBON/AIRSS/Generating-Clusters/TERSOFF/Higher-Symm/Only-C60
REM
REM
REM
REM
REM
REM ./C.cell (28575a23ae977d3b5fae324c64b13b57)
REM
REM compiler GCC version 9.2.1 20190827 (Red Hat 9.2.1-1)
REM options -cpp -mtune=generic -march=x86-64 -g -O0 -fpre-include=/usr/include/finclude/math-vector-fortran.h
REM seed -152281226 546594168 -570189525 -1779628619 644854094 -2137452706 148930755 935228148 -1919025618 -1360328310 -1891545911 -1067550047 -751976333 -1717727995 1066662528 -645427821 -1995277833 -2106817231 -771694045 263551530 1122939904 856371202 -1552691974 -2040500474 -436679241 -94519860 2093635532 -2140230659 435212748 -1767837740 618300427 -1980135031 -246620327
REM
CELL 1.54180   50.00000   50.00000   50.00000   90.00000   90.00000   90.00000
LATT -1
SFAC C  
C      1  0.4728040000000  0.5151040000000  0.4890520000000 1.0
C      1  0.4727710000000  0.4849870000000  0.4889740000000 1.0
C      1  0.5145420000000  0.5639600000000  0.5413720000000 1.0
C      1  0.5146220000000  0.4360120000000  0.5413540000000 1.0
C      1  0.5907570000000  0.4856120000000  0.5503780000000 1.0
C      1  0.5907510000000  0.5143790000000  0.5503900000000 1.0
C      1  0.4694730000000  0.5156120000000  0.5446710000000 1.0
C      1  0.4695690000000  0.4843150000000  0.5446610000000 1.0
C      1  0.4417460000000  0.4753950000000  0.5389060000000 1.0
C      1  0.4417550000000  0.5246380000000  0.5389060000000 1.0
C      1  0.4362820000000  0.4439530000000  0.4907380000000 1.0
C      1  0.4362770000000  0.5560460000000  0.4907150000000 1.0
C      1  0.5024070000000  0.5697500000000  0.4601100000000 1.0
C      1  0.5024100000000  0.4302620000000  0.4601220000000 1.0
C      1  0.5687300000000  0.4856540000000  0.4603120000000 1.0
C      1  0.5687390000000  0.5143310000000  0.4603090000000 1.0
C      1  0.4393210000000  0.4725350000000  0.4904220000000 1.0
C      1  0.4393620000000  0.5274830000000  0.4904520000000 1.0
C      1  0.4593020000000  0.4286060000000  0.4853700000000 1.0
C      1  0.4592870000000  0.5713980000000  0.4853420000000 1.0
C      1  0.4284880000000  0.4855000000000  0.5148580000000 1.0
C      1  0.4285220000000  0.5145580000000  0.5148750000000 1.0
C      1  0.4884540000000  0.4690580000000  0.5246030000000 1.0
C      1  0.4885190000000  0.5308600000000  0.5246150000000 1.0
C      1  0.5114970000000  0.5384710000000  0.5589470000000 1.0
C      1  0.5115260000000  0.4615240000000  0.5591580000000 1.0
C      1  0.5596720000000  0.4836650000000  0.5096240000000 1.0
C      1  0.5596630000000  0.5163490000000  0.5096280000000 1.0
C      1  0.5170310000000  0.4428670000000  0.4368800000000 1.0
C      1  0.5170460000000  0.5571240000000  0.4368950000000 1.0
C      1  0.5289630000000  0.5159960000000  0.5498070000000 1.0
C      1  0.5289790000000  0.4840170000000  0.5498400000000 1.0
C      1  0.4915790000000  0.4852100000000  0.4453570000000 1.0
C      1  0.4915880000000  0.5148140000000  0.4453430000000 1.0
C      1  0.5027770000000  0.5686620000000  0.5128810000000 1.0
C      1  0.5027720000000  0.4313820000000  0.5128810000000 1.0
C      1  0.4669180000000  0.5308750000000  0.4505950000000 1.0
C      1  0.4669000000000  0.4690870000000  0.4505620000000 1.0
C      1  0.5254590000000  0.4665940000000  0.4791170000000 1.0
C      1  0.5254710000000  0.5334000000000  0.4791270000000 1.0
C      1  0.5169320000000  0.4374480000000  0.4867220000000 1.0
C      1  0.5169240000000  0.5625200000000  0.4867310000000 1.0
C      1  0.5324760000000  0.4790230000000  0.5210510000000 1.0
C      1  0.5324510000000  0.5209970000000  0.5210480000000 1.0
C      1  0.5803390000000  0.5283000000000  0.5272060000000 1.0
C      1  0.5803280000000  0.4716990000000  0.5271990000000 1.0
C      1  0.5164730000000  0.4702530000000  0.4497680000000 1.0
C      1  0.5165030000000  0.5297500000000  0.4497680000000 1.0
C      1  0.4418420000000  0.5152520000000  0.4608140000000 1.0
C      1  0.4417890000000  0.4847630000000  0.4607710000000 1.0
C      1  0.5063780000000  0.5178190000000  0.5015170000000 1.0
C      1  0.5064240000000  0.4821730000000  0.5014510000000 1.0
C      1  0.4757990000000  0.4209860000000  0.5085490000000 1.0
C      1  0.4757810000000  0.5790520000000  0.5085190000000 1.0
C      1  0.4849960000000  0.4701140000000  0.5665780000000 1.0
C      1  0.4849200000000  0.5298140000000  0.5666090000000 1.0
C      1  0.5547590000000  0.5273410000000  0.4822600000000 1.0
C      1  0.5547420000000  0.4726650000000  0.4822600000000 1.0
C      1  0.4737150000000  0.5610120000000  0.4615120000000 1.0
C      1  0.4736970000000  0.4389770000000  0.4615160000000 1.0
END
