TITL C-3985254-1270-893 -0.000349480467534346 125000 -314.655564980479 0 0 60 (C1) n - 1
REM
REM in /home/nfs/bkarasulu/CARBON/AIRSS/Generating-Clusters/TERSOFF/Higher-Symm/Only-C60
REM
REM
REM
REM
REM
REM ./C.cell (28575a23ae977d3b5fae324c64b13b57)
REM
REM compiler GCC version 9.2.1 20190827 (Red Hat 9.2.1-1)
REM options -cpp -mtune=generic -march=x86-64 -g -O0 -fpre-include=/usr/include/finclude/math-vector-fortran.h
REM seed 1869367918 -697634740 -849663677 1068869439 -1505215625 -68645409 -102763539 583438644 356758699 1374141068 1350950141 1060614346 -752798319 -1674987174 -2111180401 1659148297 1912828362 1815162694 607529932 -1571754168 -1394031496 716336215 -2124605169 -596991320 -906218895 -832747107 756864480 664444875 -656303128 -178921027 -61199649 -1091142989 936097558
REM
CELL 1.54180   50.00000   50.00000   50.00000   90.00000   90.00000   90.00000
LATT -1
SFAC C  
C      1  0.4797300000000  0.5674040000000  0.5137740000000 1.0
C      1  0.4979420000000  0.5672930000000  0.4827880000000 1.0
C      1  0.5248980000000  0.5675910000000  0.5062640000000 1.0
C      1  0.4399460000000  0.4910570000000  0.4996180000000 1.0
C      1  0.5305410000000  0.4937640000000  0.4477560000000 1.0
C      1  0.5304810000000  0.4937800000000  0.5534700000000 1.0
C      1  0.5645620000000  0.5136780000000  0.5116960000000 1.0
C      1  0.4578060000000  0.5142070000000  0.5496750000000 1.0
C      1  0.4775490000000  0.5162660000000  0.4366850000000 1.0
C      1  0.5012130000000  0.4659090000000  0.5279550000000 1.0
C      1  0.4825670000000  0.4680900000000  0.4815610000000 1.0
C      1  0.5098250000000  0.4719380000000  0.4978510000000 1.0
C      1  0.4395640000000  0.5348800000000  0.5354260000000 1.0
C      1  0.4995960000000  0.5375990000000  0.4312250000000 1.0
C      1  0.5612760000000  0.5359670000000  0.5335700000000 1.0
C      1  0.4807300000000  0.5545000000000  0.4537290000000 1.0
C      1  0.5530050000000  0.5536090000000  0.5061940000000 1.0
C      1  0.4668070000000  0.5541530000000  0.5407010000000 1.0
C      1  0.4513540000000  0.4954570000000  0.5738930000000 1.0
C      1  0.4599800000000  0.4975210000000  0.4185050000000 1.0
C      1  0.5875590000000  0.4932790000000  0.5048430000000 1.0
C      1  0.4745900000000  0.4712990000000  0.5385890000000 1.0
C      1  0.4816230000000  0.4708280000000  0.4527870000000 1.0
C      1  0.5449180000000  0.4704060000000  0.5042670000000 1.0
C      1  0.5390420000000  0.5425980000000  0.4613900000000 1.0
C      1  0.5147250000000  0.5440820000000  0.5514990000000 1.0
C      1  0.4447800000000  0.5418110000000  0.4858640000000 1.0
C      1  0.5378030000000  0.4972120000000  0.5207800000000 1.0
C      1  0.4637810000000  0.4961600000000  0.5235840000000 1.0
C      1  0.4975340000000  0.4970520000000  0.4530480000000 1.0
C      1  0.5662710000000  0.4806300000000  0.4858630000000 1.0
C      1  0.4781140000000  0.4816680000000  0.5667210000000 1.0
C      1  0.4544430000000  0.4811930000000  0.4444230000000 1.0
C      1  0.5140220000000  0.4381840000000  0.4596460000000 1.0
C      1  0.5317070000000  0.4336950000000  0.5331400000000 1.0
C      1  0.4575620000000  0.4379430000000  0.5100030000000 1.0
C      1  0.5070040000000  0.4172650000000  0.4809070000000 1.0
C      1  0.5124910000000  0.4158830000000  0.5168550000000 1.0
C      1  0.4786670000000  0.4170370000000  0.5036110000000 1.0
C      1  0.4872590000000  0.5326150000000  0.5600760000000 1.0
C      1  0.4531240000000  0.5318100000000  0.4580470000000 1.0
C      1  0.5602060000000  0.5313290000000  0.4804130000000 1.0
C      1  0.4579750000000  0.4632310000000  0.4943770000000 1.0
C      1  0.5230560000000  0.4655680000000  0.4688680000000 1.0
C      1  0.5216990000000  0.4592880000000  0.5482010000000 1.0
C      1  0.4322630000000  0.5240300000000  0.5071440000000 1.0
C      1  0.5275230000000  0.5265350000000  0.4385660000000 1.0
C      1  0.5398560000000  0.5269740000000  0.5540860000000 1.0
C      1  0.5138030000000  0.5410360000000  0.4757360000000 1.0
C      1  0.5153780000000  0.5440370000000  0.5223590000000 1.0
C      1  0.4697920000000  0.5418020000000  0.5006890000000 1.0
C      1  0.4818010000000  0.5151820000000  0.5076610000000 1.0
C      1  0.5009860000000  0.5134520000000  0.4794480000000 1.0
C      1  0.5160000000000  0.5162510000000  0.5104290000000 1.0
C      1  0.4574150000000  0.4477300000000  0.5369530000000 1.0
C      1  0.4931110000000  0.4465520000000  0.4404450000000 1.0
C      1  0.5523750000000  0.4458940000000  0.5175720000000 1.0
C      1  0.4445450000000  0.5005690000000  0.4659470000000 1.0
C      1  0.5558130000000  0.5010610000000  0.4675810000000 1.0
C      1  0.5000100000000  0.5021640000000  0.5652460000000 1.0
END
