TITL C-3985254-1270-192 -0.00119877398929939 125000 -300.840689855805 0 0 60 (C5) n - 1
REM
REM in /home/nfs/bkarasulu/CARBON/AIRSS/Generating-Clusters/TERSOFF/Higher-Symm/Only-C60
REM
REM
REM
REM
REM
REM ./C.cell (28575a23ae977d3b5fae324c64b13b57)
REM
REM compiler GCC version 9.2.1 20190827 (Red Hat 9.2.1-1)
REM options -cpp -mtune=generic -march=x86-64 -g -O0 -fpre-include=/usr/include/finclude/math-vector-fortran.h
REM seed 2032348015 -69472240 1812092267 -470315511 1124153579 -1534121076 -1331340179 -1687181436 1177923086 -1470163133 457174488 1572824587 -1470886117 248827255 -966767879 1848002875 455472954 254323258 1669923168 -1927857392 590478716 -1537137785 408490882 400808958 1306085422 982373837 -1424734953 -580402437 1699577283 -2055861909 1154463450 583236865 -1694754206
REM
CELL 1.54180   50.00000   50.00000   50.00000   90.00000   90.00000   90.00000
LATT -1
SFAC C  
C      1  0.5211810000000  0.4408770000000  0.5456410000000 1.0
C      1  0.5499570000000  0.4408760000000  0.4939590000000 1.0
C      1  0.5096920000000  0.4408750000000  0.4506230000000 1.0
C      1  0.4560350000000  0.4408810000000  0.4755360000000 1.0
C      1  0.4631400000000  0.4408750000000  0.5342410000000 1.0
C      1  0.4862280000000  0.5287470000000  0.5617990000000 1.0
C      1  0.5545310000000  0.5287190000000  0.5321800000000 1.0
C      1  0.5474610000000  0.5287200000000  0.4580860000000 1.0
C      1  0.4748040000000  0.5287190000000  0.4419160000000 1.0
C      1  0.4369640000000  0.5287770000000  0.5059760000000 1.0
C      1  0.4317700000000  0.4808000000000  0.5146260000000 1.0
C      1  0.4928340000000  0.4807730000000  0.5694420000000 1.0
C      1  0.5638150000000  0.4807730000000  0.5283020000000 1.0
C      1  0.5466420000000  0.4807760000000  0.4480660000000 1.0
C      1  0.4650170000000  0.4807720000000  0.4395950000000 1.0
C      1  0.5184910000000  0.4680490000000  0.4358900000000 1.0
C      1  0.4447410000000  0.4680530000000  0.4625980000000 1.0
C      1  0.4473950000000  0.4680120000000  0.5410430000000 1.0
C      1  0.5227520000000  0.4680260000000  0.5627190000000 1.0
C      1  0.5666870000000  0.4680560000000  0.4977890000000 1.0
C      1  0.5637320000000  0.4884740000000  0.4756620000000 1.0
C      1  0.4965500000000  0.4884740000000  0.4318530000000 1.0
C      1  0.4341150000000  0.4884660000000  0.4822260000000 1.0
C      1  0.4627090000000  0.4884190000000  0.5573260000000 1.0
C      1  0.5429230000000  0.4884430000000  0.5531390000000 1.0
C      1  0.4601720000000  0.4512690000000  0.5047550000000 1.0
C      1  0.4922110000000  0.4512580000000  0.5393430000000 1.0
C      1  0.5350090000000  0.4512540000000  0.5195720000000 1.0
C      1  0.5294300000000  0.4512550000000  0.4727510000000 1.0
C      1  0.4831780000000  0.4512630000000  0.4635940000000 1.0
C      1  0.4563650000000  0.5647580000000  0.4953100000000 1.0
C      1  0.4820600000000  0.5647780000000  0.5400330000000 1.0
C      1  0.5325330000000  0.5647640000000  0.5294460000000 1.0
C      1  0.5380380000000  0.5647770000000  0.4781680000000 1.0
C      1  0.4909830000000  0.5647630000000  0.4570630000000 1.0
C      1  0.5249030000000  0.4787200000000  0.5100830000000 1.0
C      1  0.5172920000000  0.4787220000000  0.4794210000000 1.0
C      1  0.4857800000000  0.4787290000000  0.4772050000000 1.0
C      1  0.4739030000000  0.4787600000000  0.5064550000000 1.0
C      1  0.4980800000000  0.4787230000000  0.5268050000000 1.0
C      1  0.4551470000000  0.5509070000000  0.5265490000000 1.0
C      1  0.5113590000000  0.5509190000000  0.5508720000000 1.0
C      1  0.5518810000000  0.5509050000000  0.5048970000000 1.0
C      1  0.5207020000000  0.5509070000000  0.4521780000000 1.0
C      1  0.4608990000000  0.5509000000000  0.4655380000000 1.0
C      1  0.5335780000000  0.5220530000000  0.5548760000000 1.0
C      1  0.5625800000000  0.5220800000000  0.4850140000000 1.0
C      1  0.5050940000000  0.5220690000000  0.4358570000000 1.0
C      1  0.4405640000000  0.5220670000000  0.4753210000000 1.0
C      1  0.4581750000000  0.5220260000000  0.5489050000000 1.0
C      1  0.5042460000000  0.5049890000000  0.5506800000000 1.0
C      1  0.5495370000000  0.5049890000000  0.5115860000000 1.0
C      1  0.5263300000000  0.5049850000000  0.4564650000000 1.0
C      1  0.4667430000000  0.5050050000000  0.4614930000000 1.0
C      1  0.4531010000000  0.5050290000000  0.5196420000000 1.0
C      1  0.4843460000000  0.5203770000000  0.4819240000000 1.0
C      1  0.4779520000000  0.5204330000000  0.5092250000000 1.0
C      1  0.5020080000000  0.5203960000000  0.5238310000000 1.0
C      1  0.5233070000000  0.5203670000000  0.5054020000000 1.0
C      1  0.5123490000000  0.5203720000000  0.4795060000000 1.0
END
