TITL C-3985250-725-217 2.09660649093985e-08 125000 -340.615841914635 0 0 60 (D2) n - 1
REM
REM in /home/nfs/bkarasulu/CARBON/AIRSS/Generating-Clusters/TERSOFF/Higher-Symm/Only-C60
REM
REM
REM
REM
REM
REM ./C.cell (28575a23ae977d3b5fae324c64b13b57)
REM
REM compiler GCC version 9.2.1 20190827 (Red Hat 9.2.1-1)
REM options -cpp -mtune=generic -march=x86-64 -g -O0 -fpre-include=/usr/include/finclude/math-vector-fortran.h
REM seed 1807976741 -1928101085 -1797139840 -1674623400 1481147250 -1660440799 1432392156 -30294267 1168175872 -476083560 -867803063 195760905 1807093973 -869226586 2135842595 452403890 -918094508 1600063139 792796866 -1228734237 40587310 -1755598130 1738269197 -1855054429 -2027827824 -871907407 1157208910 304206579 -512941160 1005149313 156587830 -660558310 2038443623
REM
CELL 1.54180   50.00000   50.00000   50.00000   90.00000   90.00000   90.00000
LATT -1
SFAC C  
C      1  0.4842530000000  0.5035110000000  0.5744700000000 1.0
C      1  0.5157470000000  0.5035110000000  0.4255300000000 1.0
C      1  0.5157470000000  0.4964890000000  0.5744700000000 1.0
C      1  0.4842530000000  0.4964890000000  0.4255300000000 1.0
C      1  0.5227010000000  0.4791350000000  0.4985470000000 1.0
C      1  0.4772990000000  0.4791350000000  0.5014530000000 1.0
C      1  0.4772990000000  0.5208650000000  0.4985470000000 1.0
C      1  0.5227010000000  0.5208650000000  0.5014530000000 1.0
C      1  0.5507800000000  0.4526920000000  0.4806350000000 1.0
C      1  0.4492200000000  0.4526920000000  0.5193650000000 1.0
C      1  0.4492190000000  0.5473080000000  0.4806350000000 1.0
C      1  0.5507810000000  0.5473080000000  0.5193650000000 1.0
C      1  0.5231010000000  0.4273040000000  0.5340990000000 1.0
C      1  0.4768990000000  0.4273040000000  0.4659010000000 1.0
C      1  0.4768990000000  0.5726960000000  0.5340990000000 1.0
C      1  0.5231010000000  0.5726960000000  0.4659010000000 1.0
C      1  0.5211810000000  0.5333000000000  0.4332600000000 1.0
C      1  0.4788190000000  0.5333000000000  0.5667400000000 1.0
C      1  0.4788190000000  0.4667000000000  0.4332600000000 1.0
C      1  0.5211810000000  0.4667000000000  0.5667400000000 1.0
C      1  0.4729340000000  0.4809320000000  0.5576920000000 1.0
C      1  0.5270660000000  0.4809320000000  0.4423080000000 1.0
C      1  0.5270660000000  0.5190680000000  0.5576920000000 1.0
C      1  0.4729340000000  0.5190680000000  0.4423080000000 1.0
C      1  0.5017500000000  0.4320100000000  0.4846990000000 1.0
C      1  0.4982500000000  0.4320100000000  0.5153010000000 1.0
C      1  0.4982500000000  0.5679900000000  0.4846990000000 1.0
C      1  0.5017500000000  0.5679900000000  0.5153010000000 1.0
C      1  0.4998900000000  0.4621040000000  0.5209350000000 1.0
C      1  0.5001100000000  0.4621040000000  0.4790650000000 1.0
C      1  0.5001100000000  0.5378960000000  0.5209350000000 1.0
C      1  0.4998900000000  0.5378960000000  0.4790650000000 1.0
C      1  0.4968340000000  0.5335410000000  0.4505320000000 1.0
C      1  0.5031660000000  0.5335410000000  0.5494680000000 1.0
C      1  0.5031660000000  0.4664590000000  0.4505320000000 1.0
C      1  0.4968340000000  0.4664590000000  0.5494680000000 1.0
C      1  0.4688560000000  0.5694370000000  0.4759090000000 1.0
C      1  0.5311440000000  0.5694370000000  0.5240910000000 1.0
C      1  0.5311440000000  0.4305630000000  0.4759090000000 1.0
C      1  0.4688560000000  0.4305630000000  0.5240910000000 1.0
C      1  0.4425080000000  0.5348090000000  0.5303240000000 1.0
C      1  0.5574920000000  0.5348090000000  0.4696760000000 1.0
C      1  0.5574920000000  0.4651910000000  0.5303240000000 1.0
C      1  0.4425080000000  0.4651910000000  0.4696760000000 1.0
C      1  0.4576470000000  0.5174480000000  0.4684820000000 1.0
C      1  0.5423530000000  0.5174480000000  0.5315180000000 1.0
C      1  0.5423530000000  0.4825520000000  0.4684820000000 1.0
C      1  0.4576470000000  0.4825520000000  0.5315180000000 1.0
C      1  0.4613580000000  0.5501760000000  0.5476480000000 1.0
C      1  0.5386420000000  0.5501760000000  0.4523520000000 1.0
C      1  0.5386420000000  0.4498240000000  0.5476480000000 1.0
C      1  0.4613580000000  0.4498240000000  0.4523520000000 1.0
C      1  0.5667970000000  0.5482490000000  0.4944980000000 1.0
C      1  0.4332030000000  0.5482490000000  0.5055020000000 1.0
C      1  0.4332030000000  0.4517510000000  0.4944980000000 1.0
C      1  0.5667970000000  0.4517510000000  0.5055020000000 1.0
C      1  0.5435150000000  0.4886960000000  0.5190830000000 1.0
C      1  0.4564850000000  0.4886960000000  0.4809170000000 1.0
C      1  0.4564850000000  0.5113040000000  0.5190830000000 1.0
C      1  0.5435150000000  0.5113040000000  0.4809170000000 1.0
END
