TITL C-3985254-1270-1515 -9.60627991409761e-08 125000 -320.942893825219 0 0 60 (S10) n - 1
REM
REM in /home/nfs/bkarasulu/CARBON/AIRSS/Generating-Clusters/TERSOFF/Higher-Symm/Only-C60
REM
REM
REM
REM
REM
REM ./C.cell (28575a23ae977d3b5fae324c64b13b57)
REM
REM compiler GCC version 9.2.1 20190827 (Red Hat 9.2.1-1)
REM options -cpp -mtune=generic -march=x86-64 -g -O0 -fpre-include=/usr/include/finclude/math-vector-fortran.h
REM seed 1111612648 1412528498 -1249100333 178967383 -1520996779 -1172053591 782537283 3523129 2000899956 -531369023 -1444920669 436846363 13376173 -1728966344 -971911931 -1089118269 -458697073 140892304 -169030292 -1126272772 -1989448740 -633959311 385987365 1966266209 1430288333 900855015 1828522093 1407208390 1973076620 -1886921189 1852181764 1130268704 -1930239202
REM
CELL 1.54180   50.00000   50.00000   50.00000   90.00000   90.00000   90.00000
LATT -1
SFAC C  
C      1  0.4659920000000  0.5231540000000  0.5097810000000 1.0
C      1  0.4588780000000  0.4987430000000  0.4902190000000 1.0
C      1  0.4674700000000  0.4748120000000  0.5097810000000 1.0
C      1  0.4884880000000  0.4605020000000  0.4902190000000 1.0
C      1  0.5139030000000  0.4612790000000  0.5097810000000 1.0
C      1  0.5340080000000  0.4768460000000  0.4902190000000 1.0
C      1  0.5411220000000  0.5012570000000  0.5097810000000 1.0
C      1  0.5325300000000  0.5251880000000  0.4902190000000 1.0
C      1  0.5115120000000  0.5394980000000  0.5097810000000 1.0
C      1  0.4860970000000  0.5387210000000  0.4902190000000 1.0
C      1  0.4758370000000  0.4942080000000  0.5590730000000 1.0
C      1  0.4838570000000  0.4811110000000  0.4409270000000 1.0
C      1  0.4980420000000  0.4752300000000  0.5590740000000 1.0
C      1  0.5129760000000  0.4788090000000  0.4409270000000 1.0
C      1  0.5229530000000  0.4904840000000  0.5590740000000 1.0
C      1  0.5241630000000  0.5057920000000  0.4409270000000 1.0
C      1  0.5161430000000  0.5188890000000  0.5590730000000 1.0
C      1  0.5019580000000  0.5247700000000  0.4409260000000 1.0
C      1  0.4870240000000  0.5211910000000  0.5590730000000 1.0
C      1  0.4770470000000  0.5095160000000  0.4409260000000 1.0
C      1  0.5391550000000  0.4835850000000  0.5363180000000 1.0
C      1  0.5413260000000  0.5097350000000  0.4636830000000 1.0
C      1  0.5277110000000  0.5321670000000  0.5363170000000 1.0
C      1  0.5035120000000  0.5423110000000  0.4636820000000 1.0
C      1  0.4779710000000  0.5362950000000  0.5363170000000 1.0
C      1  0.4608450000000  0.5164150000000  0.4636820000000 1.0
C      1  0.4586740000000  0.4902650000000  0.5363170000000 1.0
C      1  0.4722890000000  0.4678330000000  0.4636830000000 1.0
C      1  0.4964880000000  0.4576890000000  0.5363180000000 1.0
C      1  0.5220290000000  0.4637050000000  0.4636830000000 1.0
C      1  0.4573170000000  0.5645880000000  0.5131850000000 1.0
C      1  0.4275050000000  0.5271650000000  0.4868150000000 1.0
C      1  0.4253840000000  0.4793650000000  0.5131850000000 1.0
C      1  0.4517630000000  0.4394480000000  0.4868150000000 1.0
C      1  0.4965670000000  0.4226590000000  0.5131850000000 1.0
C      1  0.5426830000000  0.4354120000000  0.4868150000000 1.0
C      1  0.5724950000000  0.4728350000000  0.5131850000000 1.0
C      1  0.5746160000000  0.5206350000000  0.4868150000000 1.0
C      1  0.5482370000000  0.5605520000000  0.5131850000000 1.0
C      1  0.5034330000000  0.5773410000000  0.4868150000000 1.0
C      1  0.5260150000000  0.5622840000000  0.4681590000000 1.0
C      1  0.4844370000000  0.5656810000000  0.5318400000000 1.0
C      1  0.4488030000000  0.5439890000000  0.4681590000000 1.0
C      1  0.4327250000000  0.5054950000000  0.5318400000000 1.0
C      1  0.4423440000000  0.4649020000000  0.4681600000000 1.0
C      1  0.4739850000000  0.4377160000000  0.5318410000000 1.0
C      1  0.5155630000000  0.4343190000000  0.4681600000000 1.0
C      1  0.5511970000000  0.4560110000000  0.5318410000000 1.0
C      1  0.5672750000000  0.4945050000000  0.4681600000000 1.0
C      1  0.5576560000000  0.5350980000000  0.5318400000000 1.0
C      1  0.4465040000000  0.4502420000000  0.5161620000000 1.0
C      1  0.4859680000000  0.4283000000000  0.4838390000000 1.0
C      1  0.5307920000000  0.4337460000000  0.5161620000000 1.0
C      1  0.5638550000000  0.4644980000000  0.4838390000000 1.0
C      1  0.5725270000000  0.5088110000000  0.5161620000000 1.0
C      1  0.5534960000000  0.5497580000000  0.4838380000000 1.0
C      1  0.5140320000000  0.5717000000000  0.5161610000000 1.0
C      1  0.4692080000000  0.5662540000000  0.4838380000000 1.0
C      1  0.4361450000000  0.5355020000000  0.5161610000000 1.0
C      1  0.4274730000000  0.4911890000000  0.4838380000000 1.0
END
