TITL C-3985254-1270-2072 -0.00245414210035428 125000 -339.208687409235 0 0 60 (D6d) n - 1
REM
REM in /home/nfs/bkarasulu/CARBON/AIRSS/Generating-Clusters/TERSOFF/Higher-Symm/Only-C60
REM
REM
REM
REM
REM
REM ./C.cell (28575a23ae977d3b5fae324c64b13b57)
REM
REM compiler GCC version 9.2.1 20190827 (Red Hat 9.2.1-1)
REM options -cpp -mtune=generic -march=x86-64 -g -O0 -fpre-include=/usr/include/finclude/math-vector-fortran.h
REM seed 367288611 1215879722 -790133254 1596196433 900423862 1179816973 1470011697 -1483425326 903732698 -2071307723 1242817266 695541858 -925277715 1484258265 177979857 707653618 1887397510 979698236 -855478633 -403141578 -23570479 1723385125 -150559110 177363006 -1944763610 -759785178 1833585829 983869232 -1730863558 -1649001872 251953334 2055648183 443329724
REM
CELL 1.54180   50.00000   50.00000   50.00000   90.00000   90.00000   90.00000
LATT -1
SFAC C  
C      1  0.4457570000000  0.5231300000000  0.4530070000000 1.0
C      1  0.5542200000000  0.5435580000000  0.4708400000000 1.0
C      1  0.4457730000000  0.5522940000000  0.4965500000000 1.0
C      1  0.5542400000000  0.5469930000000  0.5231300000000 1.0
C      1  0.4457790000000  0.5291610000000  0.5435600000000 1.0
C      1  0.5542250000000  0.5034500000000  0.5522920000000 1.0
C      1  0.4457560000000  0.4768700000000  0.5469930000000 1.0
C      1  0.5542190000000  0.4564420000000  0.5291600000000 1.0
C      1  0.4457750000000  0.4477070000000  0.5034500000000 1.0
C      1  0.5542420000000  0.4530070000000  0.4768700000000 1.0
C      1  0.4457800000000  0.4708390000000  0.4564410000000 1.0
C      1  0.5542260000000  0.4965490000000  0.4477070000000 1.0
C      1  0.4768300000000  0.4735570000000  0.5537210000000 1.0
C      1  0.5231570000000  0.4502340000000  0.5333040000000 1.0
C      1  0.4768400000000  0.4402500000000  0.5039620000000 1.0
C      1  0.5231700000000  0.4462790000000  0.4735570000000 1.0
C      1  0.4768430000000  0.4666960000000  0.4502330000000 1.0
C      1  0.5231600000000  0.4960380000000  0.4402500000000 1.0
C      1  0.4768290000000  0.5264440000000  0.4462800000000 1.0
C      1  0.5231560000000  0.5497670000000  0.4666950000000 1.0
C      1  0.4768400000000  0.5597500000000  0.4960380000000 1.0
C      1  0.5231700000000  0.5537210000000  0.5264440000000 1.0
C      1  0.4768430000000  0.5333050000000  0.5497670000000 1.0
C      1  0.5231600000000  0.5039620000000  0.5597490000000 1.0
C      1  0.5666050000000  0.4488120000000  0.5034080000000 1.0
C      1  0.4334210000000  0.4539280000000  0.4773130000000 1.0
C      1  0.5666120000000  0.4714920000000  0.4573740000000 1.0
C      1  0.4333970000000  0.4965920000000  0.4488140000000 1.0
C      1  0.5665800000000  0.5226860000000  0.4539300000000 1.0
C      1  0.4333880000000  0.5426250000000  0.4714930000000 1.0
C      1  0.5666030000000  0.5511870000000  0.4965920000000 1.0
C      1  0.4334200000000  0.5460720000000  0.5226870000000 1.0
C      1  0.5666110000000  0.5285080000000  0.5426250000000 1.0
C      1  0.4333960000000  0.5034090000000  0.5511860000000 1.0
C      1  0.5665810000000  0.4773140000000  0.5460710000000 1.0
C      1  0.4333870000000  0.4573750000000  0.5285060000000 1.0
C      1  0.4873660000000  0.4957240000000  0.4355730000000 1.0
C      1  0.5126250000000  0.5285140000000  0.4420710000000 1.0
C      1  0.4873620000000  0.5536630000000  0.4640880000000 1.0
C      1  0.5126340000000  0.5644270000000  0.4957240000000 1.0
C      1  0.4873750000000  0.5579290000000  0.5285140000000 1.0
C      1  0.5126380000000  0.5359130000000  0.5536630000000 1.0
C      1  0.4873660000000  0.5042760000000  0.5644280000000 1.0
C      1  0.5126250000000  0.4714870000000  0.5579280000000 1.0
C      1  0.4873620000000  0.4463370000000  0.5359130000000 1.0
C      1  0.5126340000000  0.4355730000000  0.5042760000000 1.0
C      1  0.4873750000000  0.4420710000000  0.4714860000000 1.0
C      1  0.5126380000000  0.4640870000000  0.4463360000000 1.0
C      1  0.5196570000000  0.5237400000000  0.4841160000000 1.0
C      1  0.4803480000000  0.5284990000000  0.4981070000000 1.0
C      1  0.5196530000000  0.5256260000000  0.5126150000000 1.0
C      1  0.4803440000000  0.5158850000000  0.5237400000000 1.0
C      1  0.5196550000000  0.5018940000000  0.5285000000000 1.0
C      1  0.4803480000000  0.4873860000000  0.5256230000000 1.0
C      1  0.5196560000000  0.4762580000000  0.5158850000000 1.0
C      1  0.4803460000000  0.4715000000000  0.5018930000000 1.0
C      1  0.5196520000000  0.4743750000000  0.4873850000000 1.0
C      1  0.4803440000000  0.4841160000000  0.4762600000000 1.0
C      1  0.5196540000000  0.4981060000000  0.4714990000000 1.0
C      1  0.4803480000000  0.5126130000000  0.4743760000000 1.0
END
