TITL C-3985249-2594-13 1.34773727624275e-07 125000 -355.41142953671 0 0 60 (C1) n - 1
REM
REM in /home/nfs/bkarasulu/CARBON/AIRSS/Generating-Clusters/TERSOFF/Higher-Symm/Only-C60
REM
REM
REM
REM
REM
REM ./C.cell (28575a23ae977d3b5fae324c64b13b57)
REM
REM compiler GCC version 9.2.1 20190827 (Red Hat 9.2.1-1)
REM options -cpp -mtune=generic -march=x86-64 -g -O0 -fpre-include=/usr/include/finclude/math-vector-fortran.h
REM seed -553306549 -290853857 625102006 -382899895 2097980025 -1725095887 -525171708 1582638340 1256853971 1357056062 -1972667732 -1345784608 171410294 -914151388 -1398986766 1010176845 -1773444789 -1396123424 -404940571 415524288 424103965 -2127318145 -1929021745 232652753 -775295429 -714452093 799902928 -1305110472 494054776 1336898659 -686947285 1785216953 2050657511
REM
CELL 1.54180   50.00000   50.00000   50.00000   90.00000   90.00000   90.00000
LATT -1
SFAC C  
C      1  0.4784500000000  0.4894340000000  0.5158900000000 1.0
C      1  0.4955850000000  0.4891730000000  0.4731930000000 1.0
C      1  0.5261900000000  0.4897470000000  0.5107150000000 1.0
C      1  0.5404250000000  0.4632710000000  0.5154610000000 1.0
C      1  0.4692160000000  0.4608900000000  0.5230030000000 1.0
C      1  0.4920630000000  0.4606990000000  0.4621710000000 1.0
C      1  0.4790400000000  0.4985090000000  0.4331570000000 1.0
C      1  0.5702310000000  0.4998150000000  0.5165970000000 1.0
C      1  0.4523420000000  0.4981470000000  0.5508370000000 1.0
C      1  0.4884700000000  0.5322410000000  0.5629820000000 1.0
C      1  0.4511950000000  0.5330030000000  0.4587880000000 1.0
C      1  0.5600230000000  0.5324520000000  0.4785650000000 1.0
C      1  0.5379180000000  0.5667050000000  0.5114990000000 1.0
C      1  0.4708840000000  0.5669410000000  0.5273800000000 1.0
C      1  0.4912900000000  0.5667590000000  0.4608660000000 1.0
C      1  0.4953060000000  0.4400360000000  0.5124670000000 1.0
C      1  0.4804270000000  0.4419350000000  0.4828100000000 1.0
C      1  0.5259280000000  0.4432060000000  0.4995440000000 1.0
C      1  0.5548270000000  0.4859700000000  0.4507580000000 1.0
C      1  0.5152510000000  0.4867930000000  0.5719220000000 1.0
C      1  0.4283210000000  0.4880250000000  0.4772830000000 1.0
C      1  0.4948620000000  0.4650040000000  0.5636710000000 1.0
C      1  0.4429780000000  0.4662490000000  0.4613280000000 1.0
C      1  0.5609200000000  0.4649170000000  0.4722490000000 1.0
C      1  0.5368050000000  0.4453040000000  0.4711860000000 1.0
C      1  0.5096980000000  0.4460300000000  0.5449590000000 1.0
C      1  0.4505140000000  0.4450120000000  0.4825660000000 1.0
C      1  0.4981280000000  0.5298060000000  0.5194030000000 1.0
C      1  0.4841360000000  0.5301510000000  0.4888870000000 1.0
C      1  0.5174500000000  0.5296660000000  0.4918280000000 1.0
C      1  0.5107530000000  0.5127030000000  0.5574790000000 1.0
C      1  0.4442520000000  0.5131200000000  0.4806560000000 1.0
C      1  0.5445700000000  0.5120650000000  0.4619520000000 1.0
C      1  0.4348210000000  0.5033370000000  0.5263380000000 1.0
C      1  0.5092930000000  0.5021880000000  0.4313710000000 1.0
C      1  0.5561900000000  0.5041530000000  0.5438770000000 1.0
C      1  0.5243300000000  0.5275440000000  0.4430480000000 1.0
C      1  0.5368790000000  0.5283960000000  0.5497790000000 1.0
C      1  0.4383410000000  0.5287230000000  0.5075220000000 1.0
C      1  0.5227910000000  0.5005200000000  0.4824320000000 1.0
C      1  0.5039530000000  0.5006350000000  0.5286610000000 1.0
C      1  0.4728220000000  0.5016840000000  0.4886830000000 1.0
C      1  0.4620940000000  0.5207550000000  0.5663980000000 1.0
C      1  0.4616080000000  0.5218390000000  0.4340900000000 1.0
C      1  0.5769750000000  0.5226990000000  0.4999640000000 1.0
C      1  0.4431660000000  0.4552950000000  0.5096120000000 1.0
C      1  0.5177810000000  0.4540460000000  0.4500690000000 1.0
C      1  0.5386610000000  0.4558220000000  0.5435430000000 1.0
C      1  0.5434740000000  0.4800370000000  0.5599760000000 1.0
C      1  0.4266490000000  0.4800080000000  0.5075480000000 1.0
C      1  0.5287530000000  0.4778580000000  0.4351800000000 1.0
C      1  0.5369030000000  0.5523910000000  0.4851570000000 1.0
C      1  0.4940870000000  0.5525810000000  0.5396030000000 1.0
C      1  0.4688280000000  0.5531070000000  0.4753120000000 1.0
C      1  0.5664280000000  0.4724520000000  0.5027910000000 1.0
C      1  0.4674040000000  0.4711770000000  0.5520530000000 1.0
C      1  0.4692910000000  0.4722730000000  0.4450130000000 1.0
C      1  0.4551710000000  0.5558960000000  0.5050420000000 1.0
C      1  0.5183100000000  0.5551830000000  0.4584960000000 1.0
C      1  0.5265490000000  0.5556260000000  0.5363900000000 1.0
END
