TITL C-3985259-1859-729 -0.000273826675189671 125000 -363.042247725369 0 0 60 (D6d) n - 1
REM
REM in /home/nfs/bkarasulu/CARBON/AIRSS/Generating-Clusters/TERSOFF/Higher-Symm/Only-C60
REM
REM
REM
REM
REM
REM ./C.cell (28575a23ae977d3b5fae324c64b13b57)
REM
REM compiler GCC version 9.2.1 20190827 (Red Hat 9.2.1-1)
REM options -cpp -mtune=generic -march=x86-64 -g -O0 -fpre-include=/usr/include/finclude/math-vector-fortran.h
REM seed -395521425 -1502873091 -1931024665 2030847538 -723923223 -267123160 -1140142665 1366292341 678595299 1564167194 1575829901 1559927402 -521377318 447901357 1557907022 2093222339 -1924981948 1783478354 1689259152 -799098950 1885679066 634541905 382030751 -1462814597 180525844 -1518680550 1908003624 542120721 77101873 -1209584112 -78815084 1274035368 1874222210
REM
CELL 1.54180   50.00000   50.00000   50.00000   90.00000   90.00000   90.00000
LATT -1
SFAC C  
C      1  0.4852880000000  0.4915730000000  0.5549730000000 1.0
C      1  0.5402330000000  0.4915690000000  0.5402420000000 1.0
C      1  0.5549660000000  0.4915720000000  0.4852680000000 1.0
C      1  0.5147260000000  0.4915710000000  0.4450280000000 1.0
C      1  0.4597610000000  0.4915710000000  0.4597540000000 1.0
C      1  0.4450280000000  0.4915690000000  0.5147340000000 1.0
C      1  0.4852760000000  0.5084320000000  0.4450250000000 1.0
C      1  0.5402380000000  0.5084300000000  0.4597600000000 1.0
C      1  0.5549600000000  0.5084250000000  0.5147380000000 1.0
C      1  0.5147300000000  0.5084420000000  0.5549690000000 1.0
C      1  0.4597630000000  0.5084220000000  0.5402440000000 1.0
C      1  0.4450290000000  0.5084240000000  0.4852620000000 1.0
C      1  0.5510430000000  0.5338120000000  0.4489710000000 1.0
C      1  0.4813470000000  0.5338160000000  0.4302710000000 1.0
C      1  0.4302880000000  0.5338060000000  0.4812880000000 1.0
C      1  0.4489650000000  0.5338030000000  0.5510400000000 1.0
C      1  0.5186760000000  0.5338240000000  0.5697210000000 1.0
C      1  0.5697030000000  0.5338040000000  0.5187230000000 1.0
C      1  0.5510270000000  0.4661850000000  0.5510400000000 1.0
C      1  0.4813820000000  0.4661920000000  0.5697350000000 1.0
C      1  0.4302830000000  0.4661890000000  0.5187050000000 1.0
C      1  0.4489620000000  0.4661920000000  0.4489570000000 1.0
C      1  0.5186630000000  0.4661890000000  0.4302750000000 1.0
C      1  0.5697080000000  0.4661890000000  0.4812980000000 1.0
C      1  0.4923240000000  0.4359510000000  0.5287690000000 1.0
C      1  0.5210740000000  0.4359440000000  0.5210310000000 1.0
C      1  0.5287500000000  0.4359490000000  0.4922630000000 1.0
C      1  0.5076750000000  0.4359550000000  0.4712310000000 1.0
C      1  0.4789230000000  0.4359600000000  0.4789660000000 1.0
C      1  0.4712460000000  0.4359570000000  0.5077370000000 1.0
C      1  0.4923230000000  0.5640480000000  0.4712320000000 1.0
C      1  0.5210750000000  0.5640480000000  0.4789680000000 1.0
C      1  0.5287510000000  0.5640470000000  0.5077370000000 1.0
C      1  0.5076750000000  0.5640560000000  0.5287680000000 1.0
C      1  0.4789230000000  0.5640420000000  0.5210320000000 1.0
C      1  0.4712470000000  0.5640410000000  0.4922630000000 1.0
C      1  0.4429250000000  0.5599120000000  0.4846400000000 1.0
C      1  0.4581640000000  0.5599100000000  0.5417530000000 1.0
C      1  0.5152400000000  0.5599290000000  0.5571060000000 1.0
C      1  0.5570730000000  0.5599120000000  0.5153590000000 1.0
C      1  0.5418330000000  0.5599180000000  0.4582490000000 1.0
C      1  0.4847630000000  0.5599210000000  0.4428920000000 1.0
C      1  0.4429230000000  0.4400840000000  0.5153580000000 1.0
C      1  0.4581650000000  0.4400870000000  0.4582450000000 1.0
C      1  0.5152400000000  0.4400840000000  0.4428930000000 1.0
C      1  0.5570720000000  0.4400810000000  0.4846440000000 1.0
C      1  0.5418320000000  0.4400770000000  0.5417500000000 1.0
C      1  0.4847700000000  0.4400840000000  0.5571100000000 1.0
C      1  0.5073670000000  0.4803370000000  0.4724990000000 1.0
C      1  0.4798670000000  0.4803350000000  0.4798670000000 1.0
C      1  0.4724980000000  0.4803340000000  0.5073690000000 1.0
C      1  0.4926310000000  0.4803360000000  0.5275000000000 1.0
C      1  0.5201280000000  0.4803380000000  0.5201310000000 1.0
C      1  0.5274980000000  0.4803390000000  0.4926310000000 1.0
C      1  0.5073660000000  0.5196650000000  0.5274970000000 1.0
C      1  0.4798660000000  0.5196620000000  0.5201300000000 1.0
C      1  0.4724960000000  0.5196620000000  0.4926290000000 1.0
C      1  0.4926290000000  0.5196630000000  0.4724970000000 1.0
C      1  0.5201280000000  0.5196650000000  0.4798670000000 1.0
C      1  0.5274960000000  0.5196650000000  0.5073670000000 1.0
END
