TITL C-3985252-168-357 0.000179410426961374 125000 -301.241552060564 0 0 60 (C1) n - 1
REM
REM in /home/nfs/bkarasulu/CARBON/AIRSS/Generating-Clusters/TERSOFF/Higher-Symm/Only-C60
REM
REM
REM
REM
REM
REM ./C.cell (28575a23ae977d3b5fae324c64b13b57)
REM
REM compiler GCC version 9.2.1 20190827 (Red Hat 9.2.1-1)
REM options -cpp -mtune=generic -march=x86-64 -g -O0 -fpre-include=/usr/include/finclude/math-vector-fortran.h
REM seed -1221638936 -1869857241 -540542124 754362328 1043958786 -1987256854 -1329497781 1858964907 1274327400 -1754464541 1494116289 -1544023846 1080517404 -1758220184 -258677669 1376253534 -1850117168 1374821085 550473501 -869963805 1581573212 -1656425674 -971248389 -1756974244 -1655042142 2045111330 481615889 -1167034782 -1035804428 222233180 -1904904570 795583400 -909247642
REM
CELL 1.54180   50.00000   50.00000   50.00000   90.00000   90.00000   90.00000
LATT -1
SFAC C  
C      1  0.5413810000000  0.5032590000000  0.5180950000000 1.0
C      1  0.5104980000000  0.5384340000000  0.5069710000000 1.0
C      1  0.5156200000000  0.5147890000000  0.5266590000000 1.0
C      1  0.4680980000000  0.5170100000000  0.4862910000000 1.0
C      1  0.5409200000000  0.4976170000000  0.4888730000000 1.0
C      1  0.4609720000000  0.4947280000000  0.5066840000000 1.0
C      1  0.4817790000000  0.5419850000000  0.4961140000000 1.0
C      1  0.5049490000000  0.4663540000000  0.4920310000000 1.0
C      1  0.4850440000000  0.4755210000000  0.5130420000000 1.0
C      1  0.4922110000000  0.5071680000000  0.4659520000000 1.0
C      1  0.5149110000000  0.4893340000000  0.4773290000000 1.0
C      1  0.4978080000000  0.4903960000000  0.5348670000000 1.0
C      1  0.4387000000000  0.5298990000000  0.5012560000000 1.0
C      1  0.4912660000000  0.4455270000000  0.5257660000000 1.0
C      1  0.5255580000000  0.4903380000000  0.4467940000000 1.0
C      1  0.5617110000000  0.5263620000000  0.5116940000000 1.0
C      1  0.4387150000000  0.4774500000000  0.4978830000000 1.0
C      1  0.5573710000000  0.4720360000000  0.4950250000000 1.0
C      1  0.4958100000000  0.4458360000000  0.4734900000000 1.0
C      1  0.4916480000000  0.5523700000000  0.4688200000000 1.0
C      1  0.5100870000000  0.5632490000000  0.5268340000000 1.0
C      1  0.4762810000000  0.4963860000000  0.5542960000000 1.0
C      1  0.5250630000000  0.5112210000000  0.5589330000000 1.0
C      1  0.4798590000000  0.4945280000000  0.4420290000000 1.0
C      1  0.4351650000000  0.4953330000000  0.4500460000000 1.0
C      1  0.4599990000000  0.4385070000000  0.4953150000000 1.0
C      1  0.5053820000000  0.4525800000000  0.4315780000000 1.0
C      1  0.5655160000000  0.4964710000000  0.5517660000000 1.0
C      1  0.4355620000000  0.4925280000000  0.5448870000000 1.0
C      1  0.5697460000000  0.5025360000000  0.4587500000000 1.0
C      1  0.5390220000000  0.4343450000000  0.4932050000000 1.0
C      1  0.4537790000000  0.5730900000000  0.5196390000000 1.0
C      1  0.5408040000000  0.5655390000000  0.4966150000000 1.0
C      1  0.5057850000000  0.4590960000000  0.5682220000000 1.0
C      1  0.5000440000000  0.5446270000000  0.5631010000000 1.0
C      1  0.5003230000000  0.5385180000000  0.4299360000000 1.0
C      1  0.5325450000000  0.5513320000000  0.5490910000000 1.0
C      1  0.5521960000000  0.5239530000000  0.5622480000000 1.0
C      1  0.5511920000000  0.5526950000000  0.5215690000000 1.0
C      1  0.4717630000000  0.5415000000000  0.4407830000000 1.0
C      1  0.5199010000000  0.4401040000000  0.4545490000000 1.0
C      1  0.4820130000000  0.4484510000000  0.5541470000000 1.0
C      1  0.4565360000000  0.5119150000000  0.4360910000000 1.0
C      1  0.5531540000000  0.4793040000000  0.4496670000000 1.0
C      1  0.4549770000000  0.4674110000000  0.5494020000000 1.0
C      1  0.4343390000000  0.5587890000000  0.5035390000000 1.0
C      1  0.5502070000000  0.4502650000000  0.4671730000000 1.0
C      1  0.4447770000000  0.4545590000000  0.5173330000000 1.0
C      1  0.4799110000000  0.4653890000000  0.4391820000000 1.0
C      1  0.4409650000000  0.4725180000000  0.4689670000000 1.0
C      1  0.4639080000000  0.4498030000000  0.4629430000000 1.0
C      1  0.5226120000000  0.4787800000000  0.5527880000000 1.0
C      1  0.4722940000000  0.5313280000000  0.5480230000000 1.0
C      1  0.5168120000000  0.5244480000000  0.4501640000000 1.0
C      1  0.5485960000000  0.4727670000000  0.5305510000000 1.0
C      1  0.4482320000000  0.5149790000000  0.5293130000000 1.0
C      1  0.5563490000000  0.5236810000000  0.4782160000000 1.0
C      1  0.5250830000000  0.4508980000000  0.5142510000000 1.0
C      1  0.4773460000000  0.5557330000000  0.5260340000000 1.0
C      1  0.5269060000000  0.5444300000000  0.4751880000000 1.0
END
