TITL C-3985250-725-1028 0.00160994868064691 125000 -286.60114081719 0 0 60 (C5) n - 1
REM
REM in /home/nfs/bkarasulu/CARBON/AIRSS/Generating-Clusters/TERSOFF/Higher-Symm/Only-C60
REM
REM
REM
REM
REM
REM ./C.cell (28575a23ae977d3b5fae324c64b13b57)
REM
REM compiler GCC version 9.2.1 20190827 (Red Hat 9.2.1-1)
REM options -cpp -mtune=generic -march=x86-64 -g -O0 -fpre-include=/usr/include/finclude/math-vector-fortran.h
REM seed -126446264 -1260133251 -881361565 -408564741 345201268 977646372 55821548 1775039343 -681028781 -1939903038 524039221 -790131023 502709911 1209396007 1020821585 2013780529 -1035145061 536405795 789933999 1319106700 585232734 2127485433 214812988 1589627150 -1475999577 407974675 -2089681880 -394608631 2067569638 -887132129 -1638858981 262724021 -1890421522
REM
CELL 1.54180   50.00000   50.00000   50.00000   90.00000   90.00000   90.00000
LATT -1
SFAC C  
C      1  0.5697760000000  0.5351250000000  0.4780310000000 1.0
C      1  0.5424550000000  0.5351260000000  0.5595730000000 1.0
C      1  0.4564590000000  0.5351240000000  0.5587860000000 1.0
C      1  0.4306370000000  0.5351240000000  0.4767560000000 1.0
C      1  0.5006700000000  0.5351290000000  0.4268520000000 1.0
C      1  0.4534920000000  0.5550270000000  0.4668940000000 1.0
C      1  0.5171150000000  0.5550250000000  0.4455380000000 1.0
C      1  0.5570840000000  0.5550180000000  0.4994470000000 1.0
C      1  0.5181650000000  0.5550220000000  0.5541190000000 1.0
C      1  0.4541420000000  0.5550270000000  0.5340010000000 1.0
C      1  0.4491810000000  0.4407360000000  0.5131720000000 1.0
C      1  0.4717690000000  0.4407350000000  0.4557370000000 1.0
C      1  0.5333710000000  0.4407350000000  0.4594730000000 1.0
C      1  0.5488550000000  0.4407350000000  0.5192170000000 1.0
C      1  0.4968220000000  0.4407350000000  0.5524040000000 1.0
C      1  0.5610390000000  0.4859570000000  0.4587920000000 1.0
C      1  0.5580570000000  0.4859610000000  0.5453140000000 1.0
C      1  0.4748240000000  0.4859510000000  0.5692120000000 1.0
C      1  0.4263940000000  0.4859370000000  0.4974090000000 1.0
C      1  0.4797040000000  0.4859450000000  0.4292010000000 1.0
C      1  0.4741920000000  0.4892720000000  0.4953440000000 1.0
C      1  0.4964500000000  0.4892730000000  0.4740160000000 1.0
C      1  0.5236180000000  0.4892670000000  0.4886000000000 1.0
C      1  0.5181420000000  0.4892690000000  0.5189380000000 1.0
C      1  0.4875950000000  0.4892690000000  0.5231050000000 1.0
C      1  0.5086980000000  0.4968320000000  0.5751730000000 1.0
C      1  0.4311890000000  0.4968380000000  0.5315180000000 1.0
C      1  0.4487800000000  0.4968320000000  0.4442800000000 1.0
C      1  0.5371390000000  0.4968290000000  0.4340740000000 1.0
C      1  0.5741720000000  0.4968250000000  0.5149740000000 1.0
C      1  0.5246810000000  0.5149560000000  0.4554800000000 1.0
C      1  0.5499770000000  0.5149530000000  0.5097100000000 1.0
C      1  0.5062150000000  0.5149540000000  0.5505310000000 1.0
C      1  0.4538740000000  0.5149540000000  0.5215370000000 1.0
C      1  0.4652550000000  0.5149530000000  0.4627930000000 1.0
C      1  0.4663090000000  0.4371720000000  0.5369070000000 1.0
C      1  0.4544910000000  0.4371700000000  0.4793640000000 1.0
C      1  0.5055630000000  0.4371750000000  0.4503340000000 1.0
C      1  0.5489430000000  0.4371670000000  0.4899460000000 1.0
C      1  0.5246910000000  0.4371750000000  0.5434520000000 1.0
C      1  0.5391690000000  0.5216380000000  0.4808060000000 1.0
C      1  0.5303650000000  0.5216340000000  0.5313150000000 1.0
C      1  0.4796080000000  0.5216250000000  0.5385570000000 1.0
C      1  0.4570320000000  0.5216290000000  0.4925090000000 1.0
C      1  0.4938510000000  0.5216370000000  0.4568150000000 1.0
C      1  0.4256320000000  0.5038480000000  0.4710730000000 1.0
C      1  0.5045640000000  0.5038310000000  0.4203340000000 1.0
C      1  0.5771640000000  0.5038400000000  0.4797120000000 1.0
C      1  0.5431380000000  0.5038430000000  0.5671200000000 1.0
C      1  0.4494990000000  0.5038440000000  0.5617790000000 1.0
C      1  0.4728400000000  0.5500690000000  0.5084710000000 1.0
C      1  0.4835510000000  0.5500670000000  0.4767890000000 1.0
C      1  0.5169820000000  0.5500660000000  0.4771810000000 1.0
C      1  0.5269500000000  0.5500660000000  0.5090920000000 1.0
C      1  0.4996750000000  0.5500680000000  0.5284430000000 1.0
C      1  0.4798130000000  0.4693980000000  0.5449600000000 1.0
C      1  0.4510010000000  0.4693990000000  0.4946940000000 1.0
C      1  0.4899050000000  0.4694000000000  0.4517580000000 1.0
C      1  0.5427560000000  0.4693950000000  0.4754960000000 1.0
C      1  0.5365200000000  0.4693980000000  0.5330930000000 1.0
END
