TITL C-3985254-1270-557 -3.55185100164405e-07 125000 -322.831686596832 0 0 60 (C1) n - 1
REM
REM in /home/nfs/bkarasulu/CARBON/AIRSS/Generating-Clusters/TERSOFF/Higher-Symm/Only-C60
REM
REM
REM
REM
REM
REM ./C.cell (28575a23ae977d3b5fae324c64b13b57)
REM
REM compiler GCC version 9.2.1 20190827 (Red Hat 9.2.1-1)
REM options -cpp -mtune=generic -march=x86-64 -g -O0 -fpre-include=/usr/include/finclude/math-vector-fortran.h
REM seed 357297389 -514043019 -1983520625 -1825936493 -84994575 -553599093 -275240096 -111149790 -381655295 -186088357 1604726344 -1401805860 1404186249 1614635763 -30425455 -788736820 -1632756834 902070286 845136929 368321812 1670776008 -1851290992 -927014645 1325442919 1721886977 1970036975 -1273957580 -1802741682 1911572816 -1910247224 589431548 -1581888855 604253677
REM
CELL 1.54180   50.00000   50.00000   50.00000   90.00000   90.00000   90.00000
LATT -1
SFAC C  
C      1  0.5253410000000  0.5119260000000  0.5696920000000 1.0
C      1  0.5689490000000  0.5345600000000  0.4747030000000 1.0
C      1  0.4967880000000  0.5122450000000  0.5601320000000 1.0
C      1  0.4925890000000  0.4780400000000  0.5206160000000 1.0
C      1  0.4903330000000  0.4477040000000  0.5177830000000 1.0
C      1  0.4388790000000  0.5346910000000  0.4967150000000 1.0
C      1  0.4700440000000  0.4932570000000  0.5031150000000 1.0
C      1  0.5202830000000  0.4851570000000  0.5033810000000 1.0
C      1  0.5263740000000  0.4557810000000  0.4697280000000 1.0
C      1  0.5576130000000  0.5613440000000  0.4816150000000 1.0
C      1  0.4917060000000  0.4496160000000  0.4710910000000 1.0
C      1  0.5323710000000  0.4794010000000  0.5338760000000 1.0
C      1  0.4412590000000  0.4640290000000  0.4941120000000 1.0
C      1  0.5618890000000  0.5140550000000  0.4998310000000 1.0
C      1  0.4546020000000  0.4969920000000  0.4710610000000 1.0
C      1  0.4829260000000  0.4583350000000  0.4429920000000 1.0
C      1  0.4825490000000  0.5700140000000  0.4851240000000 1.0
C      1  0.4440260000000  0.4818970000000  0.5194250000000 1.0
C      1  0.4621610000000  0.4825540000000  0.4454870000000 1.0
C      1  0.5314660000000  0.4743980000000  0.4468990000000 1.0
C      1  0.4682400000000  0.5209500000000  0.5674070000000 1.0
C      1  0.4609080000000  0.4421460000000  0.4884910000000 1.0
C      1  0.5504420000000  0.5242430000000  0.5275420000000 1.0
C      1  0.5079600000000  0.5377480000000  0.4515970000000 1.0
C      1  0.5176400000000  0.5749610000000  0.5259860000000 1.0
C      1  0.4949610000000  0.5636430000000  0.5448870000000 1.0
C      1  0.4870760000000  0.5278040000000  0.4865910000000 1.0
C      1  0.5265270000000  0.4501960000000  0.5459510000000 1.0
C      1  0.5173710000000  0.5328320000000  0.4818590000000 1.0
C      1  0.4642370000000  0.4280590000000  0.5204680000000 1.0
C      1  0.4964700000000  0.4410290000000  0.5587320000000 1.0
C      1  0.4515280000000  0.5282480000000  0.5432460000000 1.0
C      1  0.4350080000000  0.5134490000000  0.5207080000000 1.0
C      1  0.5422320000000  0.4622900000000  0.4968180000000 1.0
C      1  0.5266440000000  0.4196850000000  0.5015720000000 1.0
C      1  0.4855280000000  0.4978320000000  0.4290740000000 1.0
C      1  0.4943620000000  0.4833150000000  0.4791600000000 1.0
C      1  0.4807870000000  0.4185960000000  0.5464150000000 1.0
C      1  0.4971110000000  0.5324650000000  0.5374010000000 1.0
C      1  0.4622100000000  0.5564480000000  0.5044950000000 1.0
C      1  0.4488990000000  0.4664080000000  0.5467610000000 1.0
C      1  0.5259450000000  0.5424120000000  0.5261790000000 1.0
C      1  0.4920900000000  0.4851660000000  0.5490300000000 1.0
C      1  0.5425290000000  0.4994910000000  0.4590470000000 1.0
C      1  0.5660670000000  0.4825650000000  0.4973020000000 1.0
C      1  0.5073930000000  0.4737810000000  0.4280410000000 1.0
C      1  0.5567570000000  0.5232770000000  0.4466130000000 1.0
C      1  0.4569020000000  0.5436150000000  0.4508910000000 1.0
C      1  0.5439650000000  0.5027490000000  0.5484590000000 1.0
C      1  0.4438920000000  0.5245020000000  0.4695580000000 1.0
C      1  0.4748140000000  0.5264020000000  0.5167200000000 1.0
C      1  0.4933410000000  0.5078840000000  0.4577340000000 1.0
C      1  0.5335790000000  0.5393980000000  0.4359860000000 1.0
C      1  0.5290560000000  0.5591210000000  0.4864070000000 1.0
C      1  0.5408110000000  0.4397210000000  0.5179710000000 1.0
C      1  0.5103340000000  0.5796760000000  0.4966670000000 1.0
C      1  0.4763540000000  0.4648860000000  0.5620190000000 1.0
C      1  0.5010220000000  0.4317370000000  0.4953050000000 1.0
C      1  0.5339430000000  0.5081490000000  0.4866450000000 1.0
C      1  0.4829180000000  0.5571320000000  0.4568860000000 1.0
END
