TITL C-3985253-1688-563 -7.19418358908329e-05 125000 -326.889115049779 0 0 60 (C1) n - 1
REM
REM in /home/nfs/bkarasulu/CARBON/AIRSS/Generating-Clusters/TERSOFF/Higher-Symm/Only-C60
REM
REM
REM
REM
REM
REM ./C.cell (28575a23ae977d3b5fae324c64b13b57)
REM
REM compiler GCC version 9.2.1 20190827 (Red Hat 9.2.1-1)
REM options -cpp -mtune=generic -march=x86-64 -g -O0 -fpre-include=/usr/include/finclude/math-vector-fortran.h
REM seed 1353298627 1506924523 1346054247 763961825 1983898539 -1415587757 855494412 21568378 -1517748832 1823150420 171743640 -1061749499 -209496027 -414007776 -783834469 -1661126508 315963139 -1178954692 -701390796 1711075043 -504831243 2061655873 204448866 -1991863860 1904131389 1757246791 1302295186 1596715898 615356562 1924561004 1973618383 1025641622 221209117
REM
CELL 1.54180   50.00000   50.00000   50.00000   90.00000   90.00000   90.00000
LATT -1
SFAC C  
C      1  0.5587170000000  0.4870150000000  0.4493630000000 1.0
C      1  0.4942770000000  0.5265250000000  0.4363820000000 1.0
C      1  0.4701740000000  0.5301380000000  0.5612020000000 1.0
C      1  0.4922070000000  0.4229280000000  0.5109890000000 1.0
C      1  0.4651290000000  0.5248100000000  0.5327780000000 1.0
C      1  0.5769310000000  0.4791670000000  0.4711270000000 1.0
C      1  0.4409270000000  0.5045200000000  0.4889690000000 1.0
C      1  0.4688290000000  0.5611170000000  0.5009990000000 1.0
C      1  0.4811550000000  0.4701660000000  0.4413610000000 1.0
C      1  0.4509020000000  0.5436650000000  0.5161240000000 1.0
C      1  0.5251810000000  0.4842680000000  0.5497160000000 1.0
C      1  0.5157660000000  0.5522330000000  0.4980880000000 1.0
C      1  0.4754610000000  0.4814520000000  0.5493410000000 1.0
C      1  0.4450520000000  0.4359440000000  0.4847060000000 1.0
C      1  0.4871150000000  0.4392880000000  0.4550720000000 1.0
C      1  0.4719450000000  0.5175700000000  0.4822880000000 1.0
C      1  0.4699060000000  0.5476240000000  0.4728530000000 1.0
C      1  0.5089860000000  0.4371540000000  0.5385610000000 1.0
C      1  0.4703340000000  0.4488110000000  0.5235080000000 1.0
C      1  0.5283080000000  0.5287030000000  0.5130730000000 1.0
C      1  0.5367310000000  0.4566820000000  0.5375520000000 1.0
C      1  0.5349590000000  0.4683710000000  0.4461290000000 1.0
C      1  0.5373640000000  0.5470780000000  0.5392030000000 1.0
C      1  0.4737870000000  0.4278340000000  0.4804430000000 1.0
C      1  0.4329070000000  0.4802490000000  0.5066410000000 1.0
C      1  0.4373680000000  0.4536720000000  0.4632380000000 1.0
C      1  0.5677810000000  0.5362910000000  0.4990660000000 1.0
C      1  0.5667500000000  0.4832660000000  0.4992220000000 1.0
C      1  0.4447530000000  0.5380540000000  0.4577190000000 1.0
C      1  0.4765960000000  0.4771130000000  0.4921030000000 1.0
C      1  0.5502800000000  0.4597740000000  0.5114930000000 1.0
C      1  0.5270040000000  0.4599860000000  0.4930140000000 1.0
C      1  0.5114210000000  0.5006230000000  0.5233570000000 1.0
C      1  0.5124520000000  0.4988880000000  0.5760670000000 1.0
C      1  0.5164430000000  0.5284800000000  0.5789500000000 1.0
C      1  0.4431870000000  0.5066130000000  0.4537390000000 1.0
C      1  0.4308150000000  0.5301260000000  0.5006480000000 1.0
C      1  0.5093440000000  0.4843610000000  0.4465380000000 1.0
C      1  0.5496370000000  0.5029280000000  0.5569780000000 1.0
C      1  0.4978870000000  0.4546340000000  0.5019700000000 1.0
C      1  0.4784460000000  0.4973670000000  0.5218570000000 1.0
C      1  0.4452250000000  0.4531400000000  0.5087490000000 1.0
C      1  0.4931920000000  0.5495510000000  0.4550450000000 1.0
C      1  0.5609950000000  0.5537720000000  0.5212390000000 1.0
C      1  0.5194390000000  0.5108510000000  0.4370520000000 1.0
C      1  0.4990760000000  0.4641420000000  0.5544920000000 1.0
C      1  0.5219970000000  0.4915950000000  0.4945670000000 1.0
C      1  0.5426710000000  0.5465760000000  0.4569230000000 1.0
C      1  0.4956470000000  0.5669620000000  0.5136550000000 1.0
C      1  0.4564870000000  0.4759280000000  0.4625260000000 1.0
C      1  0.5181170000000  0.5555160000000  0.4692280000000 1.0
C      1  0.5080690000000  0.5608760000000  0.5422020000000 1.0
C      1  0.4984670000000  0.4963030000000  0.4754820000000 1.0
C      1  0.5496570000000  0.5115120000000  0.4896640000000 1.0
C      1  0.4951340000000  0.5451000000000  0.5658630000000 1.0
C      1  0.4716850000000  0.5045920000000  0.4359610000000 1.0
C      1  0.4682840000000  0.5015390000000  0.5702920000000 1.0
C      1  0.5334390000000  0.4491320000000  0.4670150000000 1.0
C      1  0.5426170000000  0.5308040000000  0.5635650000000 1.0
C      1  0.5465870000000  0.5166220000000  0.4540550000000 1.0
END
