TITL C-3985246-2097-57 1.14184296029702e-06 125000 -318.955790516563 0 0 60 (C4) n - 1
REM
REM in /home/nfs/bkarasulu/CARBON/AIRSS/Generating-Clusters/TERSOFF/Higher-Symm/Only-C60
REM
REM
REM
REM
REM
REM ./C.cell (28575a23ae977d3b5fae324c64b13b57)
REM
REM compiler GCC version 9.2.1 20190827 (Red Hat 9.2.1-1)
REM options -cpp -mtune=generic -march=x86-64 -g -O0 -fpre-include=/usr/include/finclude/math-vector-fortran.h
REM seed -1043560788 -1895017515 1934097659 -260890187 430367050 -956537087 -624715481 -661162604 -929820305 -1598711427 1606446158 939102026 -350117990 1043810379 -391692246 -1215223186 -691411459 -126414179 -2046633458 633532355 1296881593 1717374985 1354289313 1926222430 -1827580834 498923861 -720553839 -1576739609 1743170883 -1122415072 -2134509050 714660383 1728213463
REM
CELL 1.54180   50.00000   50.00000   50.00000   90.00000   90.00000   90.00000
LATT -1
SFAC C  
C      1  0.4999520000000  0.4665140000000  0.5464710000000 1.0
C      1  0.4983590000000  0.4394330000000  0.5286960000000 1.0
C      1  0.5058040000000  0.4308540000000  0.4945200000000 1.0
C      1  0.4999540000000  0.4535530000000  0.4665310000000 1.0
C      1  0.4983550000000  0.4713120000000  0.4394390000000 1.0
C      1  0.5057880000000  0.5054870000000  0.4308460000000 1.0
C      1  0.4999410000000  0.5334860000000  0.4535300000000 1.0
C      1  0.4983420000000  0.5605660000000  0.4713040000000 1.0
C      1  0.5057880000000  0.5691470000000  0.5054800000000 1.0
C      1  0.4999460000000  0.5464470000000  0.5334690000000 1.0
C      1  0.4983520000000  0.5286870000000  0.5605610000000 1.0
C      1  0.5057940000000  0.4945140000000  0.5691540000000 1.0
C      1  0.4471660000000  0.5212550000000  0.5490570000000 1.0
C      1  0.4343360000000  0.4959500000000  0.5416640000000 1.0
C      1  0.4481890000000  0.4702910000000  0.5433670000000 1.0
C      1  0.4471720000000  0.4509380000000  0.5212670000000 1.0
C      1  0.4343400000000  0.4583330000000  0.4959620000000 1.0
C      1  0.4481910000000  0.4566340000000  0.4703030000000 1.0
C      1  0.4471670000000  0.4787320000000  0.4509470000000 1.0
C      1  0.4343320000000  0.5040350000000  0.4583400000000 1.0
C      1  0.4481790000000  0.5296960000000  0.4566360000000 1.0
C      1  0.4471590000000  0.5490500000000  0.4787370000000 1.0
C      1  0.4343300000000  0.5416510000000  0.5040420000000 1.0
C      1  0.4481830000000  0.5433540000000  0.5297010000000 1.0
C      1  0.4748330000000  0.5081670000000  0.4178580000000 1.0
C      1  0.4719080000000  0.5298440000000  0.4395580000000 1.0
C      1  0.4689970000000  0.5692180000000  0.4804670000000 1.0
C      1  0.4748330000000  0.5821330000000  0.5081710000000 1.0
C      1  0.4719160000000  0.5604260000000  0.5298400000000 1.0
C      1  0.4690080000000  0.5195280000000  0.5692210000000 1.0
C      1  0.4748410000000  0.4918270000000  0.5821440000000 1.0
C      1  0.4719200000000  0.4701490000000  0.5604440000000 1.0
C      1  0.4690150000000  0.4307740000000  0.5195360000000 1.0
C      1  0.4748520000000  0.4178610000000  0.4918310000000 1.0
C      1  0.4719280000000  0.4395680000000  0.4701620000000 1.0
C      1  0.4690080000000  0.4804650000000  0.4307810000000 1.0
C      1  0.5565820000000  0.5631480000000  0.5050390000000 1.0
C      1  0.5547730000000  0.5409010000000  0.5295130000000 1.0
C      1  0.5508740000000  0.5251830000000  0.5582150000000 1.0
C      1  0.5565890000000  0.4949560000000  0.5631530000000 1.0
C      1  0.5547810000000  0.4704710000000  0.5409230000000 1.0
C      1  0.5508790000000  0.4417840000000  0.5251870000000 1.0
C      1  0.5565970000000  0.4368660000000  0.4949560000000 1.0
C      1  0.5547810000000  0.4591120000000  0.4704830000000 1.0
C      1  0.5508760000000  0.4748290000000  0.4417810000000 1.0
C      1  0.5565820000000  0.5050580000000  0.4368430000000 1.0
C      1  0.5547710000000  0.5295420000000  0.4590730000000 1.0
C      1  0.5508640000000  0.5582280000000  0.4748090000000 1.0
C      1  0.5262920000000  0.4258810000000  0.5332060000000 1.0
C      1  0.5329410000000  0.4169370000000  0.4927620000000 1.0
C      1  0.5290140000000  0.4441150000000  0.4610740000000 1.0
C      1  0.5262870000000  0.4668010000000  0.4258830000000 1.0
C      1  0.5329200000000  0.5072440000000  0.4169240000000 1.0
C      1  0.5289980000000  0.5389490000000  0.4440830000000 1.0
C      1  0.5262720000000  0.5741250000000  0.4667920000000 1.0
C      1  0.5329210000000  0.5830710000000  0.5072360000000 1.0
C      1  0.5290030000000  0.5558920000000  0.5389240000000 1.0
C      1  0.5262840000000  0.5332050000000  0.5741150000000 1.0
C      1  0.5329290000000  0.4927640000000  0.5830730000000 1.0
C      1  0.5290110000000  0.4610570000000  0.5559150000000 1.0
END
