TITL C-3985259-1859-946 -0.000274658657086561 125000 -337.805499062909 0 0 60 (C1) n - 1
REM
REM in /home/nfs/bkarasulu/CARBON/AIRSS/Generating-Clusters/TERSOFF/Higher-Symm/Only-C60
REM
REM
REM
REM
REM
REM ./C.cell (28575a23ae977d3b5fae324c64b13b57)
REM
REM compiler GCC version 9.2.1 20190827 (Red Hat 9.2.1-1)
REM options -cpp -mtune=generic -march=x86-64 -g -O0 -fpre-include=/usr/include/finclude/math-vector-fortran.h
REM seed -2036663960 185678040 -1053501214 1414630609 -1964310332 1728734068 1128393426 -1603601347 218790762 1183326681 1928083646 -1491878646 -1451270635 -765493651 -2063505243 -671198967 1514191660 -459505390 673546972 734528103 -739438865 1477999226 2124134012 877966342 1042128852 2145684331 54514338 -1473310989 1163363255 1997092627 -226076298 -447869151 -1033703346
REM
CELL 1.54180   50.00000   50.00000   50.00000   90.00000   90.00000   90.00000
LATT -1
SFAC C  
C      1  0.5227930000000  0.5376620000000  0.5117420000000 1.0
C      1  0.4752560000000  0.5373950000000  0.5078760000000 1.0
C      1  0.5015890000000  0.5374990000000  0.4835820000000 1.0
C      1  0.5472950000000  0.5155940000000  0.5550960000000 1.0
C      1  0.4258200000000  0.5137500000000  0.5121240000000 1.0
C      1  0.5230890000000  0.5177070000000  0.4345430000000 1.0
C      1  0.5454130000000  0.5341830000000  0.4497420000000 1.0
C      1  0.5226880000000  0.5350770000000  0.5633230000000 1.0
C      1  0.4279080000000  0.5329900000000  0.4864000000000 1.0
C      1  0.4746840000000  0.4348540000000  0.4820660000000 1.0
C      1  0.5282080000000  0.4351240000000  0.4866710000000 1.0
C      1  0.4973920000000  0.4356010000000  0.5308150000000 1.0
C      1  0.4755000000000  0.4782070000000  0.4663070000000 1.0
C      1  0.5423270000000  0.4780430000000  0.4962850000000 1.0
C      1  0.4830040000000  0.4791410000000  0.5364730000000 1.0
C      1  0.5105460000000  0.4846530000000  0.5724520000000 1.0
C      1  0.4302100000000  0.4819220000000  0.4727020000000 1.0
C      1  0.5579120000000  0.4836890000000  0.4536060000000 1.0
C      1  0.5333410000000  0.4642330000000  0.5223270000000 1.0
C      1  0.4641740000000  0.4645220000000  0.5169310000000 1.0
C      1  0.5028420000000  0.4653310000000  0.4611990000000 1.0
C      1  0.4197320000000  0.4836240000000  0.5006700000000 1.0
C      1  0.5373310000000  0.4878600000000  0.4324080000000 1.0
C      1  0.5398790000000  0.4864040000000  0.5677200000000 1.0
C      1  0.5269700000000  0.5120470000000  0.5285170000000 1.0
C      1  0.4588030000000  0.5117810000000  0.5052700000000 1.0
C      1  0.5133270000000  0.5131200000000  0.4667090000000 1.0
C      1  0.5509930000000  0.5468950000000  0.4988340000000 1.0
C      1  0.4805950000000  0.5474020000000  0.5370010000000 1.0
C      1  0.4728400000000  0.5468970000000  0.4639180000000 1.0
C      1  0.4334930000000  0.5130930000000  0.4637810000000 1.0
C      1  0.5647800000000  0.5139870000000  0.4620070000000 1.0
C      1  0.5008260000000  0.5157500000000  0.5724540000000 1.0
C      1  0.4346520000000  0.4693730000000  0.5240470000000 1.0
C      1  0.5116260000000  0.4707040000000  0.4320130000000 1.0
C      1  0.5531890000000  0.4694000000000  0.5452920000000 1.0
C      1  0.5666590000000  0.4966700000000  0.5355550000000 1.0
C      1  0.4364190000000  0.4974070000000  0.5392170000000 1.0
C      1  0.4971500000000  0.4987350000000  0.4268380000000 1.0
C      1  0.4648240000000  0.5000000000000  0.5465480000000 1.0
C      1  0.4749820000000  0.4991430000000  0.4458890000000 1.0
C      1  0.5615680000000  0.4980110000000  0.5066340000000 1.0
C      1  0.4530130000000  0.5506910000000  0.4886370000000 1.0
C      1  0.5329750000000  0.5497300000000  0.4728380000000 1.0
C      1  0.5111660000000  0.5496830000000  0.5383580000000 1.0
C      1  0.5239540000000  0.4372470000000  0.5170620000000 1.0
C      1  0.4733570000000  0.4374540000000  0.5118170000000 1.0
C      1  0.5030320000000  0.4378840000000  0.4708760000000 1.0
C      1  0.4941230000000  0.4593450000000  0.5577210000000 1.0
C      1  0.4522060000000  0.4575670000000  0.4654670000000 1.0
C      1  0.5536280000000  0.4579840000000  0.4753320000000 1.0
C      1  0.5117940000000  0.4863830000000  0.5247600000000 1.0
C      1  0.4702560000000  0.4860410000000  0.4961050000000 1.0
C      1  0.5176650000000  0.4862510000000  0.4782880000000 1.0
C      1  0.4765130000000  0.5235920000000  0.5569850000000 1.0
C      1  0.4590230000000  0.5218420000000  0.4510940000000 1.0
C      1  0.5666090000000  0.5211340000000  0.4908800000000 1.0
C      1  0.4767930000000  0.5699800000000  0.4462010000000 1.0
C      1  0.5653070000000  0.5697590000000  0.5097550000000 1.0
C      1  0.4659580000000  0.5719500000000  0.5442380000000 1.0
END
