TITL C-3985257-5396-48 0.00333241144388241 125000 -279.564474239965 0 0 60 (C4) n - 1
REM
REM in /home/nfs/bkarasulu/CARBON/AIRSS/Generating-Clusters/TERSOFF/Higher-Symm/Only-C60
REM
REM
REM
REM
REM
REM ./C.cell (28575a23ae977d3b5fae324c64b13b57)
REM
REM compiler GCC version 9.2.1 20190827 (Red Hat 9.2.1-1)
REM options -cpp -mtune=generic -march=x86-64 -g -O0 -fpre-include=/usr/include/finclude/math-vector-fortran.h
REM seed -1319998549 -1219173720 -2040659064 -1062632557 -2007114950 -1828218268 1500598157 1741708726 1992621791 -1057062674 -535162802 -146861546 140020742 1244851252 -1741049306 167381773 -958765375 -1631955267 -902646652 1450308391 -1076128673 -1405406804 1323892541 327914908 -129338980 -1042174607 -800927065 -516940888 -2070780863 1949421024 630304290 -432174941 -1469405552
REM
CELL 1.54180   50.00000   50.00000   50.00000   90.00000   90.00000   90.00000
LATT -1
SFAC C  
C      1  0.5475050000000  0.4934300000000  0.4362000000000 1.0
C      1  0.5743360000000  0.4862640000000  0.4676710000000 1.0
C      1  0.5775230000000  0.4829030000000  0.5093240000000 1.0
C      1  0.5638040000000  0.4934590000000  0.5474950000000 1.0
C      1  0.5323470000000  0.4862830000000  0.5743620000000 1.0
C      1  0.4906740000000  0.4828880000000  0.5775120000000 1.0
C      1  0.4525050000000  0.4934390000000  0.5638240000000 1.0
C      1  0.4256390000000  0.4862620000000  0.5323300000000 1.0
C      1  0.4224640000000  0.4828950000000  0.4906710000000 1.0
C      1  0.4361910000000  0.4934620000000  0.4524970000000 1.0
C      1  0.4676540000000  0.4862830000000  0.4256370000000 1.0
C      1  0.5093460000000  0.4828930000000  0.4224860000000 1.0
C      1  0.4623780000000  0.4690990000000  0.5496550000000 1.0
C      1  0.4441680000000  0.4622150000000  0.5250840000000 1.0
C      1  0.4432840000000  0.4590540000000  0.4922580000000 1.0
C      1  0.4503390000000  0.4691170000000  0.4623710000000 1.0
C      1  0.4748970000000  0.4622210000000  0.4441520000000 1.0
C      1  0.5077230000000  0.4590520000000  0.4433020000000 1.0
C      1  0.5376220000000  0.4691020000000  0.4503420000000 1.0
C      1  0.5558320000000  0.4622110000000  0.4749150000000 1.0
C      1  0.5567170000000  0.4590500000000  0.5077430000000 1.0
C      1  0.5496640000000  0.4691150000000  0.5376330000000 1.0
C      1  0.5251050000000  0.4622250000000  0.5558540000000 1.0
C      1  0.4922790000000  0.4590480000000  0.5566910000000 1.0
C      1  0.4878140000000  0.4784520000000  0.6060950000000 1.0
C      1  0.4356570000000  0.4920930000000  0.5874140000000 1.0
C      1  0.3993540000000  0.4824120000000  0.5439040000000 1.0
C      1  0.3938840000000  0.4784720000000  0.4878100000000 1.0
C      1  0.4125950000000  0.4921510000000  0.4356590000000 1.0
C      1  0.4560910000000  0.4824440000000  0.3993400000000 1.0
C      1  0.5121860000000  0.4784600000000  0.3938990000000 1.0
C      1  0.5643450000000  0.4921020000000  0.4125870000000 1.0
C      1  0.6006460000000  0.4824150000000  0.4560990000000 1.0
C      1  0.6061150000000  0.4784760000000  0.5121910000000 1.0
C      1  0.5874060000000  0.4921560000000  0.5643430000000 1.0
C      1  0.5439090000000  0.4824510000000  0.6006630000000 1.0
C      1  0.5259820000000  0.5149680000000  0.5629550000000 1.0
C      1  0.4917450000000  0.5114850000000  0.5652400000000 1.0
C      1  0.4604080000000  0.5204870000000  0.5504340000000 1.0
C      1  0.4370410000000  0.5149600000000  0.5259810000000 1.0
C      1  0.4347500000000  0.5114910000000  0.4917510000000 1.0
C      1  0.4495850000000  0.5204940000000  0.4604290000000 1.0
C      1  0.4740250000000  0.5149700000000  0.4370460000000 1.0
C      1  0.5082570000000  0.5114770000000  0.4347530000000 1.0
C      1  0.5395880000000  0.5204850000000  0.4495700000000 1.0
C      1  0.5629520000000  0.5149550000000  0.4740210000000 1.0
C      1  0.5652420000000  0.5114850000000  0.5082490000000 1.0
C      1  0.5504110000000  0.5204950000000  0.5395710000000 1.0
C      1  0.4407150000000  0.5428580000000  0.4948120000000 1.0
C      1  0.4558400000000  0.5546690000000  0.4694620000000 1.0
C      1  0.4750290000000  0.5495370000000  0.4439620000000 1.0
C      1  0.5051980000000  0.5428570000000  0.4407520000000 1.0
C      1  0.5305290000000  0.5546640000000  0.4558580000000 1.0
C      1  0.5560620000000  0.5495110000000  0.4750290000000 1.0
C      1  0.5592920000000  0.5428570000000  0.5051890000000 1.0
C      1  0.5441740000000  0.5546700000000  0.5305420000000 1.0
C      1  0.5249680000000  0.5495380000000  0.5560360000000 1.0
C      1  0.4948050000000  0.5428500000000  0.5592440000000 1.0
C      1  0.4694630000000  0.5546690000000  0.5441310000000 1.0
C      1  0.4439450000000  0.5495150000000  0.5249720000000 1.0
END
