TITL C-3985245-9316-1087 0.00257236587491568 125000 -358.582207081788 0 0 60 (C6) n - 1
REM
REM in /home/nfs/bkarasulu/CARBON/AIRSS/Generating-Clusters/TERSOFF/Higher-Symm/Only-C60
REM
REM
REM
REM
REM
REM ./C.cell (28575a23ae977d3b5fae324c64b13b57)
REM
REM compiler GCC version 9.2.1 20190827 (Red Hat 9.2.1-1)
REM options -cpp -mtune=generic -march=x86-64 -g -O0 -fpre-include=/usr/include/finclude/math-vector-fortran.h
REM seed -1989273151 -1733185313 1525442220 -1045504981 -1799440533 -832102183 -609217908 1892627871 1995789345 -287386038 1918639079 1527901381 -576569280 1355415570 -637289354 856966383 -1754830878 -61267785 603528226 -493316255 1067032507 2107764167 1589839771 593302152 -723332732 603300936 -1104557132 1190748725 -1436922877 -127718277 692896254 394980775 2068208284
REM
CELL 1.54180   50.00000   50.00000   50.00000   90.00000   90.00000   90.00000
LATT -1
SFAC C  
C      1  0.4938370000000  0.4861830000000  0.5554300000000 1.0
C      1  0.4939050000000  0.4450700000000  0.5157800000000 1.0
C      1  0.4936980000000  0.4589220000000  0.4603230000000 1.0
C      1  0.4938370000000  0.5138170000000  0.4445700000000 1.0
C      1  0.4939050000000  0.5549300000000  0.4842200000000 1.0
C      1  0.4936980000000  0.5410780000000  0.5396770000000 1.0
C      1  0.5325410000000  0.5229870000000  0.5606460000000 1.0
C      1  0.5327460000000  0.4590180000000  0.5502110000000 1.0
C      1  0.5327550000000  0.4359620000000  0.4896710000000 1.0
C      1  0.5325410000000  0.4770130000000  0.4393540000000 1.0
C      1  0.5327460000000  0.5409820000000  0.4497890000000 1.0
C      1  0.5327550000000  0.5640380000000  0.5103290000000 1.0
C      1  0.4429250000000  0.4750600000000  0.5163920000000 1.0
C      1  0.4428240000000  0.4733130000000  0.4865980000000 1.0
C      1  0.4428630000000  0.4982750000000  0.4702010000000 1.0
C      1  0.4429250000000  0.5249400000000  0.4836080000000 1.0
C      1  0.4428240000000  0.5266870000000  0.5134020000000 1.0
C      1  0.4428630000000  0.5017250000000  0.5297990000000 1.0
C      1  0.4972570000000  0.5067560000000  0.4721890000000 1.0
C      1  0.4973060000000  0.5274500000000  0.4919400000000 1.0
C      1  0.4971820000000  0.5207120000000  0.5197300000000 1.0
C      1  0.4972570000000  0.4932440000000  0.5278110000000 1.0
C      1  0.4973060000000  0.4725500000000  0.5080600000000 1.0
C      1  0.4971820000000  0.4792880000000  0.4802700000000 1.0
C      1  0.4745080000000  0.5616460000000  0.4636050000000 1.0
C      1  0.4743630000000  0.5623360000000  0.5351480000000 1.0
C      1  0.4743860000000  0.5006480000000  0.5715440000000 1.0
C      1  0.4745080000000  0.4383540000000  0.5363950000000 1.0
C      1  0.4743630000000  0.4376640000000  0.4648520000000 1.0
C      1  0.4743860000000  0.4993520000000  0.4284560000000 1.0
C      1  0.5066620000000  0.5382230000000  0.4358610000000 1.0
C      1  0.5066440000000  0.5746920000000  0.5010380000000 1.0
C      1  0.5064240000000  0.5364030000000  0.5651690000000 1.0
C      1  0.5066620000000  0.4617770000000  0.5641390000000 1.0
C      1  0.5066440000000  0.4253080000000  0.4989620000000 1.0
C      1  0.5064240000000  0.4635970000000  0.4348310000000 1.0
C      1  0.5749870000000  0.5299720000000  0.5055800000000 1.0
C      1  0.5745690000000  0.5101170000000  0.5286950000000 1.0
C      1  0.5749700000000  0.4801570000000  0.5231640000000 1.0
C      1  0.5749870000000  0.4700280000000  0.4944200000000 1.0
C      1  0.5745690000000  0.4898830000000  0.4713050000000 1.0
C      1  0.5749700000000  0.5198430000000  0.4768360000000 1.0
C      1  0.4875110000000  0.5842330000000  0.5210050000000 1.0
C      1  0.4873610000000  0.5238980000000  0.5834940000000 1.0
C      1  0.4875970000000  0.4396630000000  0.5624650000000 1.0
C      1  0.4875110000000  0.4157670000000  0.4789950000000 1.0
C      1  0.4873610000000  0.4761020000000  0.4165060000000 1.0
C      1  0.4875970000000  0.5603370000000  0.4375350000000 1.0
C      1  0.4478590000000  0.5033420000000  0.5590090000000 1.0
C      1  0.4479500000000  0.4505700000000  0.5324530000000 1.0
C      1  0.4478240000000  0.4471600000000  0.4734480000000 1.0
C      1  0.4478590000000  0.4966580000000  0.4409910000000 1.0
C      1  0.4479500000000  0.5494300000000  0.4675470000000 1.0
C      1  0.4478240000000  0.5528400000000  0.5265520000000 1.0
C      1  0.5422680000000  0.5229990000000  0.4721290000000 1.0
C      1  0.5422790000000  0.5356740000000  0.5059830000000 1.0
C      1  0.5420000000000  0.5126760000000  0.5338530000000 1.0
C      1  0.5422680000000  0.4770010000000  0.5278710000000 1.0
C      1  0.5422790000000  0.4643260000000  0.4940170000000 1.0
C      1  0.5419990000000  0.4873240000000  0.4661470000000 1.0
END
