TITL C-3985245-9316-908 -0.00503719044066072 125000 -324.208956218398 0 0 60 (C1) n - 1
REM
REM in /home/nfs/bkarasulu/CARBON/AIRSS/Generating-Clusters/TERSOFF/Higher-Symm/Only-C60
REM
REM
REM
REM
REM
REM ./C.cell (28575a23ae977d3b5fae324c64b13b57)
REM
REM compiler GCC version 9.2.1 20190827 (Red Hat 9.2.1-1)
REM options -cpp -mtune=generic -march=x86-64 -g -O0 -fpre-include=/usr/include/finclude/math-vector-fortran.h
REM seed 1873225215 -1432289278 1283704843 887200308 -375834356 -529390621 -1803925423 -1890760175 1701706680 -325735013 -74915150 1256966916 -429022746 -883609479 1611786709 -1738938690 -1291038442 -1714498353 -2074409395 106977613 1102906327 -1260648759 -1190173849 2089701570 -1401785086 -269890625 867427839 -99508990 1692403934 -329786359 -2146890944 -1727523618 -820285719
REM
CELL 1.54180   50.00000   50.00000   50.00000   90.00000   90.00000   90.00000
LATT -1
SFAC C  
C      1  0.5733000000000  0.4953930000000  0.5083900000000 1.0
C      1  0.5029290000000  0.5359630000000  0.5595430000000 1.0
C      1  0.5190770000000  0.5051690000000  0.4575980000000 1.0
C      1  0.5465230000000  0.5040310000000  0.4417010000000 1.0
C      1  0.4936010000000  0.4342000000000  0.5091940000000 1.0
C      1  0.5387170000000  0.4720000000000  0.4385110000000 1.0
C      1  0.4988040000000  0.4179160000000  0.4846720000000 1.0
C      1  0.4550990000000  0.5107340000000  0.4546690000000 1.0
C      1  0.4539080000000  0.5422340000000  0.4925830000000 1.0
C      1  0.5037830000000  0.4815170000000  0.4400490000000 1.0
C      1  0.4747750000000  0.5435840000000  0.5118860000000 1.0
C      1  0.4861210000000  0.4978570000000  0.4996660000000 1.0
C      1  0.4383810000000  0.5167890000000  0.4975690000000 1.0
C      1  0.5122770000000  0.5739720000000  0.4699630000000 1.0
C      1  0.4808060000000  0.5115830000000  0.4735970000000 1.0
C      1  0.5393220000000  0.4577980000000  0.5132900000000 1.0
C      1  0.4663240000000  0.4907160000000  0.5654340000000 1.0
C      1  0.4877920000000  0.5453710000000  0.4399700000000 1.0
C      1  0.5340630000000  0.5499670000000  0.4711880000000 1.0
C      1  0.5222480000000  0.5339410000000  0.5127970000000 1.0
C      1  0.5323560000000  0.5059830000000  0.5084730000000 1.0
C      1  0.5307650000000  0.4930430000000  0.4827370000000 1.0
C      1  0.4247940000000  0.4665180000000  0.4728880000000 1.0
C      1  0.5504910000000  0.4832880000000  0.5256530000000 1.0
C      1  0.4649800000000  0.4396520000000  0.5212060000000 1.0
C      1  0.4899970000000  0.4679140000000  0.5006260000000 1.0
C      1  0.4632900000000  0.5304720000000  0.4340830000000 1.0
C      1  0.4720640000000  0.4718050000000  0.4400940000000 1.0
C      1  0.4410980000000  0.4846800000000  0.4462400000000 1.0
C      1  0.4843490000000  0.5695680000000  0.4574390000000 1.0
C      1  0.5349180000000  0.4628720000000  0.4840250000000 1.0
C      1  0.4355320000000  0.4475580000000  0.5020560000000 1.0
C      1  0.5064270000000  0.4592510000000  0.4768720000000 1.0
C      1  0.5158800000000  0.4459150000000  0.5270120000000 1.0
C      1  0.4723930000000  0.5398590000000  0.5550530000000 1.0
C      1  0.5685470000000  0.5267700000000  0.5126980000000 1.0
C      1  0.5132220000000  0.5121190000000  0.5755430000000 1.0
C      1  0.5030430000000  0.4628780000000  0.5474640000000 1.0
C      1  0.5241270000000  0.5461070000000  0.5394800000000 1.0
C      1  0.5207200000000  0.4809370000000  0.5637530000000 1.0
C      1  0.4539230000000  0.5147240000000  0.5535070000000 1.0
C      1  0.5474710000000  0.5144520000000  0.5638390000000 1.0
C      1  0.4655270000000  0.4584740000000  0.4680270000000 1.0
C      1  0.5598480000000  0.5337210000000  0.4810010000000 1.0
C      1  0.4453940000000  0.4766400000000  0.5216140000000 1.0
C      1  0.4673570000000  0.5608170000000  0.5351430000000 1.0
C      1  0.5493760000000  0.4856190000000  0.5545950000000 1.0
C      1  0.5570080000000  0.4620730000000  0.4642520000000 1.0
C      1  0.4820980000000  0.5150730000000  0.5224050000000 1.0
C      1  0.5671010000000  0.5105370000000  0.4625080000000 1.0
C      1  0.4931850000000  0.4364710000000  0.4616120000000 1.0
C      1  0.4576980000000  0.5638170000000  0.4719060000000 1.0
C      1  0.5531740000000  0.5352310000000  0.5413240000000 1.0
C      1  0.4706820000000  0.4661080000000  0.5450240000000 1.0
C      1  0.4877060000000  0.4967600000000  0.5843180000000 1.0
C      1  0.5042140000000  0.5315560000000  0.4633270000000 1.0
C      1  0.5750700000000  0.4859270000000  0.4777760000000 1.0
C      1  0.4484210000000  0.4843910000000  0.4874690000000 1.0
C      1  0.4368320000000  0.5065810000000  0.5285800000000 1.0
C      1  0.5010740000000  0.5431080000000  0.4961050000000 1.0
END
