TITL C-3985247-764-818 -5.05965997368013e-07 125000 -340.049095731876 0 0 60 (D2h) n - 1
REM
REM in /home/nfs/bkarasulu/CARBON/AIRSS/Generating-Clusters/TERSOFF/Higher-Symm/Only-C60
REM
REM
REM
REM
REM
REM ./C.cell (28575a23ae977d3b5fae324c64b13b57)
REM
REM compiler GCC version 9.2.1 20190827 (Red Hat 9.2.1-1)
REM options -cpp -mtune=generic -march=x86-64 -g -O0 -fpre-include=/usr/include/finclude/math-vector-fortran.h
REM seed 1014924311 -732333042 -731585010 1741614245 -1850723549 2003075625 -1871735830 1089925403 1550196126 -324649384 1303766088 -772553993 -1697636811 329545006 1457227533 -37685502 -189918814 -1972931768 802731017 1780439199 862730645 1467994053 -1332310370 1520339467 1880218496 344961672 1059339454 -225727422 -911413803 -1959963285 706281308 649385958 -1939496757
REM
CELL 1.54180   50.00000   50.00000   50.00000   90.00000   90.00000   90.00000
LATT -1
SFAC C  
C      1  0.5154760000000  0.5252030000000  0.4157600000000 1.0
C      1  0.4407290000000  0.5245840000000  0.4503080000000 1.0
C      1  0.4185430000000  0.5251510000000  0.5285650000000 1.0
C      1  0.4845240000000  0.5252030000000  0.5842400000000 1.0
C      1  0.5592710000000  0.5245840000000  0.5496920000000 1.0
C      1  0.5814570000000  0.5251520000000  0.4714350000000 1.0
C      1  0.4845240000000  0.5252020000000  0.4157600000000 1.0
C      1  0.5592710000000  0.5245840000000  0.4503080000000 1.0
C      1  0.5814570000000  0.5251510000000  0.5285650000000 1.0
C      1  0.5154760000000  0.5252020000000  0.5842400000000 1.0
C      1  0.4407290000000  0.5245840000000  0.5496920000000 1.0
C      1  0.4185430000000  0.5251510000000  0.4714350000000 1.0
C      1  0.5365660000000  0.5443870000000  0.4619710000000 1.0
C      1  0.4834060000000  0.5477640000000  0.4388250000000 1.0
C      1  0.4371900000000  0.5475620000000  0.4852470000000 1.0
C      1  0.4634340000000  0.5443870000000  0.5380290000000 1.0
C      1  0.5165940000000  0.5477640000000  0.5611750000000 1.0
C      1  0.5628100000000  0.5475620000000  0.5147530000000 1.0
C      1  0.4634340000000  0.5443870000000  0.4619710000000 1.0
C      1  0.5165940000000  0.5477650000000  0.4388250000000 1.0
C      1  0.5628100000000  0.5475620000000  0.4852480000000 1.0
C      1  0.5365660000000  0.5443870000000  0.5380290000000 1.0
C      1  0.4834060000000  0.5477650000000  0.5611750000000 1.0
C      1  0.4371900000000  0.5475620000000  0.5147520000000 1.0
C      1  0.5300480000000  0.5000000000000  0.4187550000000 1.0
C      1  0.4476840000000  0.5000000000000  0.4369840000000 1.0
C      1  0.4115580000000  0.5000000000000  0.5147030000000 1.0
C      1  0.4699520000000  0.5000010000000  0.5812450000000 1.0
C      1  0.5523160000000  0.5000000000000  0.5630160000000 1.0
C      1  0.5884420000000  0.5000000000000  0.4852970000000 1.0
C      1  0.4699520000000  0.5000000000000  0.4187550000000 1.0
C      1  0.5523170000000  0.5000000000000  0.4369830000000 1.0
C      1  0.5884410000000  0.5000000000000  0.5147030000000 1.0
C      1  0.5300480000000  0.5000000000000  0.5812450000000 1.0
C      1  0.4476830000000  0.5000000000000  0.5630170000000 1.0
C      1  0.4115590000000  0.5000000000000  0.4852970000000 1.0
C      1  0.5365660000000  0.4556130000000  0.5380280000000 1.0
C      1  0.5628100000000  0.4524380000000  0.4852470000000 1.0
C      1  0.5165940000000  0.4522360000000  0.4388250000000 1.0
C      1  0.4634340000000  0.4556130000000  0.4619710000000 1.0
C      1  0.4371900000000  0.4524380000000  0.5147530000000 1.0
C      1  0.4834060000000  0.4522360000000  0.5611760000000 1.0
C      1  0.4634340000000  0.4556130000000  0.5380300000000 1.0
C      1  0.4371910000000  0.4524380000000  0.4852480000000 1.0
C      1  0.4834060000000  0.4522350000000  0.4388260000000 1.0
C      1  0.5365670000000  0.4556130000000  0.4619700000000 1.0
C      1  0.5628100000000  0.4524380000000  0.5147520000000 1.0
C      1  0.5165940000000  0.4522340000000  0.5611740000000 1.0
C      1  0.5592710000000  0.4754160000000  0.5496920000000 1.0
C      1  0.5814570000000  0.4748490000000  0.4714350000000 1.0
C      1  0.5154770000000  0.4747980000000  0.4157590000000 1.0
C      1  0.4407290000000  0.4754150000000  0.4503080000000 1.0
C      1  0.4185430000000  0.4748490000000  0.5285650000000 1.0
C      1  0.4845230000000  0.4747980000000  0.5842410000000 1.0
C      1  0.4407290000000  0.4754160000000  0.5496930000000 1.0
C      1  0.4185430000000  0.4748480000000  0.4714360000000 1.0
C      1  0.4845250000000  0.4747970000000  0.4157610000000 1.0
C      1  0.5592710000000  0.4754160000000  0.4503080000000 1.0
C      1  0.5814570000000  0.4748480000000  0.5285640000000 1.0
C      1  0.5154750000000  0.4747970000000  0.5842390000000 1.0
END
