TITL C-3985252-168-40 -0.000198644919112275 125000 -342.751846843405 0 0 60 (C1) n - 1
REM
REM in /home/nfs/bkarasulu/CARBON/AIRSS/Generating-Clusters/TERSOFF/Higher-Symm/Only-C60
REM
REM
REM
REM
REM
REM ./C.cell (28575a23ae977d3b5fae324c64b13b57)
REM
REM compiler GCC version 9.2.1 20190827 (Red Hat 9.2.1-1)
REM options -cpp -mtune=generic -march=x86-64 -g -O0 -fpre-include=/usr/include/finclude/math-vector-fortran.h
REM seed 1277611848 -132087066 926137659 1816574060 -1239515554 639759443 -630057899 275014569 497720617 934488358 -204910227 -1592856250 -290415979 -1719255267 -1388837122 10188089 -537159627 1352093705 1042530066 -1665162302 182843097 -192645950 -983281569 -1378406711 -975985274 1233299440 10567406 -1362787023 -1888441820 -1682127867 327047602 -172919320 -80737768
REM
CELL 1.54180   50.00000   50.00000   50.00000   90.00000   90.00000   90.00000
LATT -1
SFAC C  
C      1  0.4944530000000  0.4410690000000  0.4572570000000 1.0
C      1  0.4522260000000  0.5334210000000  0.4575590000000 1.0
C      1  0.5527230000000  0.5244330000000  0.4579210000000 1.0
C      1  0.4887800000000  0.5723950000000  0.4752560000000 1.0
C      1  0.5677040000000  0.4722050000000  0.4730710000000 1.0
C      1  0.4412520000000  0.4547950000000  0.4737800000000 1.0
C      1  0.5202270000000  0.4776230000000  0.4844670000000 1.0
C      1  0.4705650000000  0.4918050000000  0.4861220000000 1.0
C      1  0.5076390000000  0.5279190000000  0.4853860000000 1.0
C      1  0.4749560000000  0.4635550000000  0.4981940000000 1.0
C      1  0.4819310000000  0.5375420000000  0.4976590000000 1.0
C      1  0.5419380000000  0.4947880000000  0.4973170000000 1.0
C      1  0.4304990000000  0.4572040000000  0.5013420000000 1.0
C      1  0.4924050000000  0.5780350000000  0.5043920000000 1.0
C      1  0.5704250000000  0.4631610000000  0.5011700000000 1.0
C      1  0.5418840000000  0.4800160000000  0.4325440000000 1.0
C      1  0.4606280000000  0.4727560000000  0.4330000000000 1.0
C      1  0.4963490000000  0.5479930000000  0.4337640000000 1.0
C      1  0.5269840000000  0.5186630000000  0.5033150000000 1.0
C      1  0.5038770000000  0.4633010000000  0.5021200000000 1.0
C      1  0.4681400000000  0.5134300000000  0.5041520000000 1.0
C      1  0.4618270000000  0.5404760000000  0.5401060000000 1.0
C      1  0.5378880000000  0.5033060000000  0.5408130000000 1.0
C      1  0.5109980000000  0.4817030000000  0.5390500000000 1.0
C      1  0.5639310000000  0.5035500000000  0.4768500000000 1.0
C      1  0.4703970000000  0.4413200000000  0.4768510000000 1.0
C      1  0.4639130000000  0.5528130000000  0.4774180000000 1.0
C      1  0.5295990000000  0.4305290000000  0.4969590000000 1.0
C      1  0.4266130000000  0.5121680000000  0.4980150000000 1.0
C      1  0.5461700000000  0.5558580000000  0.5000400000000 1.0
C      1  0.4741250000000  0.5271950000000  0.4377420000000 1.0
C      1  0.5352900000000  0.5092690000000  0.4385260000000 1.0
C      1  0.4893440000000  0.4642200000000  0.4385170000000 1.0
C      1  0.5397650000000  0.5501750000000  0.4701320000000 1.0
C      1  0.5245950000000  0.4394370000000  0.4676650000000 1.0
C      1  0.4365990000000  0.5092770000000  0.4687330000000 1.0
C      1  0.5565910000000  0.4792730000000  0.5246920000000 1.0
C      1  0.4525540000000  0.4636320000000  0.5207850000000 1.0
C      1  0.4868730000000  0.5545880000000  0.5238570000000 1.0
C      1  0.5110540000000  0.5610340000000  0.4576660000000 1.0
C      1  0.5470390000000  0.4597210000000  0.4549470000000 1.0
C      1  0.4413050000000  0.4791850000000  0.4559520000000 1.0
C      1  0.4505480000000  0.4867420000000  0.5389220000000 1.0
C      1  0.5108180000000  0.5478770000000  0.5410740000000 1.0
C      1  0.5446810000000  0.4579290000000  0.5466380000000 1.0
C      1  0.5089570000000  0.4648120000000  0.5845550000000 1.0
C      1  0.4629400000000  0.5105060000000  0.5801070000000 1.0
C      1  0.5210040000000  0.5208320000000  0.5836860000000 1.0
C      1  0.4800370000000  0.5001950000000  0.4580720000000 1.0
C      1  0.5093680000000  0.5159830000000  0.4575330000000 1.0
C      1  0.5082720000000  0.4832740000000  0.4574180000000 1.0
C      1  0.5344890000000  0.5355030000000  0.5273500000000 1.0
C      1  0.5190330000000  0.4489760000000  0.5255040000000 1.0
C      1  0.4465510000000  0.5138450000000  0.5248320000000 1.0
C      1  0.5370100000000  0.4707690000000  0.5748000000000 1.0
C      1  0.4659190000000  0.4866030000000  0.5642820000000 1.0
C      1  0.5028660000000  0.5386330000000  0.5683030000000 1.0
C      1  0.5393450000000  0.5012770000000  0.5710020000000 1.0
C      1  0.4933300000000  0.4764920000000  0.5623940000000 1.0
C      1  0.4727810000000  0.5349150000000  0.5684260000000 1.0
END
