TITL C-3985254-1270-1558 -6.73830363026923e-07 125000 -343.056662798915 0 0 60 (D5) n - 1
REM
REM in /home/nfs/bkarasulu/CARBON/AIRSS/Generating-Clusters/TERSOFF/Higher-Symm/Only-C60
REM
REM
REM
REM
REM
REM ./C.cell (28575a23ae977d3b5fae324c64b13b57)
REM
REM compiler GCC version 9.2.1 20190827 (Red Hat 9.2.1-1)
REM options -cpp -mtune=generic -march=x86-64 -g -O0 -fpre-include=/usr/include/finclude/math-vector-fortran.h
REM seed 1466624972 366537710 -851334690 1625771215 1044029360 270627905 1301759324 -1089481035 -323160941 -513367994 -1043881047 776988907 -1677782729 -456649853 440790532 1701076637 -55932031 -148360119 1448109263 -2142906268 -772871113 -935549432 475949774 -1533748128 1548767101 593136240 1469644435 -1240445577 1013020076 -997942873 -213899078 -1245641997 -928218522
REM
CELL 1.54180   50.00000   50.00000   50.00000   90.00000   90.00000   90.00000
LATT -1
SFAC C  
C      1  0.4819060000000  0.4789760000000  0.5160650000000 1.0
C      1  0.5144060000000  0.4762950000000  0.5160570000000 1.0
C      1  0.5269990000000  0.5063760000000  0.5160550000000 1.0
C      1  0.5022820000000  0.5276480000000  0.5160610000000 1.0
C      1  0.4744130000000  0.5107130000000  0.5160670000000 1.0
C      1  0.5180940000000  0.4789760000000  0.4839350000000 1.0
C      1  0.4855940000000  0.4762950000000  0.4839430000000 1.0
C      1  0.4730010000000  0.5063760000000  0.4839450000000 1.0
C      1  0.4977180000000  0.5276480000000  0.4839390000000 1.0
C      1  0.5255870000000  0.5107130000000  0.4839330000000 1.0
C      1  0.4960620000000  0.4330050000000  0.4849950000000 1.0
C      1  0.5624980000000  0.4755520000000  0.4849960000000 1.0
C      1  0.5425640000000  0.5518840000000  0.4849960000000 1.0
C      1  0.4638080000000  0.5565130000000  0.4849950000000 1.0
C      1  0.4350680000000  0.4830430000000  0.4849940000000 1.0
C      1  0.5039380000000  0.4330050000000  0.5150050000000 1.0
C      1  0.4375020000000  0.4755520000000  0.5150040000000 1.0
C      1  0.4574360000000  0.5518840000000  0.5150040000000 1.0
C      1  0.5361920000000  0.5565130000000  0.5150050000000 1.0
C      1  0.5649320000000  0.4830430000000  0.5150060000000 1.0
C      1  0.5402510000000  0.4555440000000  0.4796490000000 1.0
C      1  0.5547210000000  0.5245450000000  0.4796470000000 1.0
C      1  0.4935660000000  0.5596270000000  0.4796480000000 1.0
C      1  0.4413060000000  0.5123060000000  0.4796500000000 1.0
C      1  0.4701590000000  0.4479830000000  0.4796510000000 1.0
C      1  0.4597490000000  0.4555440000000  0.5203510000000 1.0
C      1  0.4452790000000  0.5245450000000  0.5203530000000 1.0
C      1  0.5064340000000  0.5596270000000  0.5203520000000 1.0
C      1  0.5586940000000  0.5123060000000  0.5203500000000 1.0
C      1  0.5298410000000  0.4479830000000  0.5203490000000 1.0
C      1  0.5486160000000  0.5372830000000  0.5345300000000 1.0
C      1  0.4795640000000  0.5577590000000  0.5345290000000 1.0
C      1  0.4387520000000  0.4984110000000  0.5345290000000 1.0
C      1  0.4825840000000  0.4412600000000  0.5345290000000 1.0
C      1  0.5504820000000  0.4652840000000  0.5345300000000 1.0
C      1  0.4513840000000  0.5372830000000  0.4654700000000 1.0
C      1  0.5204360000000  0.5577590000000  0.4654710000000 1.0
C      1  0.5612480000000  0.4984110000000  0.4654710000000 1.0
C      1  0.5174160000000  0.4412600000000  0.4654710000000 1.0
C      1  0.4495180000000  0.4652840000000  0.4654700000000 1.0
C      1  0.5340380000000  0.4724860000000  0.4289200000000 1.0
C      1  0.5366850000000  0.5238690000000  0.4289200000000 1.0
C      1  0.4886360000000  0.5422650000000  0.4289200000000 1.0
C      1  0.4562920000000  0.5022520000000  0.4289190000000 1.0
C      1  0.4843520000000  0.4591260000000  0.4289190000000 1.0
C      1  0.4659620000000  0.4724860000000  0.5710800000000 1.0
C      1  0.4633150000000  0.5238690000000  0.5710800000000 1.0
C      1  0.5113640000000  0.5422650000000  0.5710800000000 1.0
C      1  0.5437080000000  0.5022520000000  0.5710810000000 1.0
C      1  0.5156480000000  0.4591260000000  0.5710810000000 1.0
C      1  0.5375060000000  0.4756130000000  0.5596780000000 1.0
C      1  0.5347830000000  0.5281340000000  0.5596780000000 1.0
C      1  0.4839910000000  0.5417740000000  0.5596770000000 1.0
C      1  0.4553230000000  0.4976830000000  0.5596770000000 1.0
C      1  0.4883970000000  0.4567930000000  0.5596780000000 1.0
C      1  0.4624940000000  0.4756130000000  0.4403220000000 1.0
C      1  0.4652170000000  0.5281340000000  0.4403220000000 1.0
C      1  0.5160090000000  0.5417740000000  0.4403230000000 1.0
C      1  0.5446770000000  0.4976830000000  0.4403230000000 1.0
C      1  0.5116030000000  0.4567930000000  0.4403220000000 1.0
END
