TITL C-3985245-9316-1100 2.72441919855505e-05 125000 -310.753215313956 0 0 60 (C1) n - 1
REM
REM in /home/nfs/bkarasulu/CARBON/AIRSS/Generating-Clusters/TERSOFF/Higher-Symm/Only-C60
REM
REM
REM
REM
REM
REM ./C.cell (28575a23ae977d3b5fae324c64b13b57)
REM
REM compiler GCC version 9.2.1 20190827 (Red Hat 9.2.1-1)
REM options -cpp -mtune=generic -march=x86-64 -g -O0 -fpre-include=/usr/include/finclude/math-vector-fortran.h
REM seed 2094329263 1369707222 1068384474 592401801 -980833429 -1926777874 566566406 1791242794 1832194591 -134191102 -1311697802 -1441184945 -694772606 -2002147852 297762236 785924516 1670299982 -495906039 -1739008115 -639795808 -1059089373 -39838403 700481493 1083607270 -2017709212 322010354 -2021971144 -1649366562 1439834308 -428435410 1577211785 1881838642 367303932
REM
CELL 1.54180   50.00000   50.00000   50.00000   90.00000   90.00000   90.00000
LATT -1
SFAC C  
C      1  0.4560020000000  0.4531210000000  0.5114390000000 1.0
C      1  0.4850910000000  0.5319820000000  0.4249270000000 1.0
C      1  0.4891300000000  0.4411880000000  0.5463080000000 1.0
C      1  0.5113740000000  0.4380590000000  0.5224640000000 1.0
C      1  0.5560730000000  0.4607050000000  0.5055740000000 1.0
C      1  0.4603250000000  0.4558580000000  0.4522780000000 1.0
C      1  0.5052130000000  0.4669330000000  0.5522990000000 1.0
C      1  0.5201870000000  0.5088990000000  0.4691410000000 1.0
C      1  0.4901090000000  0.4997960000000  0.4601650000000 1.0
C      1  0.5276390000000  0.5374590000000  0.4737770000000 1.0
C      1  0.5180170000000  0.5280910000000  0.5073730000000 1.0
C      1  0.5191660000000  0.4700080000000  0.4848260000000 1.0
C      1  0.5347160000000  0.5219870000000  0.5343540000000 1.0
C      1  0.4636340000000  0.5273670000000  0.5311730000000 1.0
C      1  0.4519180000000  0.4799850000000  0.5509170000000 1.0
C      1  0.5122130000000  0.5568330000000  0.4579050000000 1.0
C      1  0.4840200000000  0.5060170000000  0.5441310000000 1.0
C      1  0.5620520000000  0.4923690000000  0.5044990000000 1.0
C      1  0.4770800000000  0.4969630000000  0.4891440000000 1.0
C      1  0.5522040000000  0.4981900000000  0.5325100000000 1.0
C      1  0.5591320000000  0.4909430000000  0.4501940000000 1.0
C      1  0.4847720000000  0.5231270000000  0.5058360000000 1.0
C      1  0.4451280000000  0.4964570000000  0.4950140000000 1.0
C      1  0.5376350000000  0.4531300000000  0.5282450000000 1.0
C      1  0.4249740000000  0.5404080000000  0.4967880000000 1.0
C      1  0.4358300000000  0.5417460000000  0.5233090000000 1.0
C      1  0.4819020000000  0.4659380000000  0.5037490000000 1.0
C      1  0.4671540000000  0.4830090000000  0.4453550000000 1.0
C      1  0.5536580000000  0.4465260000000  0.4799000000000 1.0
C      1  0.5181690000000  0.5067240000000  0.5555840000000 1.0
C      1  0.4703470000000  0.5531240000000  0.5473020000000 1.0
C      1  0.4415490000000  0.5269080000000  0.4760540000000 1.0
C      1  0.4961300000000  0.5480640000000  0.5641100000000 1.0
C      1  0.5017420000000  0.4405690000000  0.4916080000000 1.0
C      1  0.4981670000000  0.5049150000000  0.4274500000000 1.0
C      1  0.5362550000000  0.4749760000000  0.5518970000000 1.0
C      1  0.4731580000000  0.4975780000000  0.5741300000000 1.0
C      1  0.5447090000000  0.5683310000000  0.4965680000000 1.0
C      1  0.4661060000000  0.5476530000000  0.4701450000000 1.0
C      1  0.5123060000000  0.4775820000000  0.4317160000000 1.0
C      1  0.4595040000000  0.4521300000000  0.5410490000000 1.0
C      1  0.5588070000000  0.5237690000000  0.4619890000000 1.0
C      1  0.5001410000000  0.5212650000000  0.5794690000000 1.0
C      1  0.4832900000000  0.5526580000000  0.4947430000000 1.0
C      1  0.4456280000000  0.5011680000000  0.5278500000000 1.0
C      1  0.5295280000000  0.4298710000000  0.4782330000000 1.0
C      1  0.5420610000000  0.4886810000000  0.4775750000000 1.0
C      1  0.5089690000000  0.5548720000000  0.5309960000000 1.0
C      1  0.5676630000000  0.5216980000000  0.4909540000000 1.0
C      1  0.5140190000000  0.4925800000000  0.5085770000000 1.0
C      1  0.5624670000000  0.5465370000000  0.5059320000000 1.0
C      1  0.4362210000000  0.4533200000000  0.4679560000000 1.0
C      1  0.4853560000000  0.5505290000000  0.4470830000000 1.0
C      1  0.4781700000000  0.5708700000000  0.5224640000000 1.0
C      1  0.5147330000000  0.5694390000000  0.5012310000000 1.0
C      1  0.4945740000000  0.4824300000000  0.5287190000000 1.0
C      1  0.5089960000000  0.4611020000000  0.4557170000000 1.0
C      1  0.4853160000000  0.4409450000000  0.4594940000000 1.0
C      1  0.5642070000000  0.4603500000000  0.4558840000000 1.0
C      1  0.4353640000000  0.4662670000000  0.4939260000000 1.0
END
