TITL C-3985246-2097-58 -1.75984979488946e-07 125000 -336.84495299929 0 0 60 (S4) n - 1
REM
REM in /home/nfs/bkarasulu/CARBON/AIRSS/Generating-Clusters/TERSOFF/Higher-Symm/Only-C60
REM
REM
REM
REM
REM
REM ./C.cell (28575a23ae977d3b5fae324c64b13b57)
REM
REM compiler GCC version 9.2.1 20190827 (Red Hat 9.2.1-1)
REM options -cpp -mtune=generic -march=x86-64 -g -O0 -fpre-include=/usr/include/finclude/math-vector-fortran.h
REM seed -1632830417 1478036382 -1588868368 66672301 -656283678 580478903 1775278638 -2111257353 2016567038 -1067221104 1756260889 -1364692289 -1644457543 -176553059 1296432822 91853446 1021069562 -584156459 973843416 1070643942 -1020679237 -2126141098 324551425 517048310 540981288 -1016783928 320866250 -1406414203 -1883098646 1736240978 2071461318 -1178338891 -1682911513
REM
CELL 1.54180   50.00000   50.00000   50.00000   90.00000   90.00000   90.00000
LATT -1
SFAC C  
C      1  0.4676020000000  0.5333200000000  0.4486680000000 1.0
C      1  0.5323980000000  0.5513320000000  0.5333200000000 1.0
C      1  0.4676020000000  0.4666800000000  0.5513320000000 1.0
C      1  0.5323980000000  0.4486680000000  0.4666800000000 1.0
C      1  0.5519110000000  0.5597820000000  0.5097280000000 1.0
C      1  0.4480890000000  0.4902720000000  0.5597820000000 1.0
C      1  0.5519110000000  0.4402180000000  0.4902720000000 1.0
C      1  0.4480890000000  0.5097280000000  0.4402180000000 1.0
C      1  0.5069050000000  0.4440520000000  0.4513900000000 1.0
C      1  0.4930950000000  0.5486100000000  0.4440520000000 1.0
C      1  0.5069050000000  0.5559480000000  0.5486100000000 1.0
C      1  0.4930950000000  0.4513900000000  0.5559480000000 1.0
C      1  0.4833750000000  0.5672760000000  0.5320920000000 1.0
C      1  0.5166250000000  0.4679080000000  0.5672760000000 1.0
C      1  0.4833750000000  0.4327240000000  0.4679080000000 1.0
C      1  0.5166250000000  0.5320920000000  0.4327240000000 1.0
C      1  0.4858970000000  0.4860790000000  0.4717580000000 1.0
C      1  0.5141030000000  0.5282420000000  0.4860790000000 1.0
C      1  0.4858970000000  0.5139210000000  0.5282420000000 1.0
C      1  0.5141030000000  0.4717580000000  0.5139210000000 1.0
C      1  0.5180300000000  0.5562800000000  0.4769200000000 1.0
C      1  0.4819710000000  0.5230800000000  0.5562800000000 1.0
C      1  0.5180290000000  0.4437200000000  0.5230800000000 1.0
C      1  0.4819700000000  0.4769200000000  0.4437200000000 1.0
C      1  0.5483880000000  0.4964770000000  0.5372260000000 1.0
C      1  0.4516120000000  0.4627750000000  0.4964770000000 1.0
C      1  0.5483880000000  0.5035230000000  0.4627740000000 1.0
C      1  0.4516120000000  0.5372260000000  0.5035230000000 1.0
C      1  0.5262950000000  0.5039600000000  0.4419110000000 1.0
C      1  0.4737050000000  0.5580890000000  0.5039600000000 1.0
C      1  0.5262950000000  0.4960400000000  0.5580890000000 1.0
C      1  0.4737050000000  0.4419110000000  0.4960400000000 1.0
C      1  0.4603360000000  0.4870030000000  0.4285570000000 1.0
C      1  0.5396640000000  0.5714430000000  0.4870030000000 1.0
C      1  0.4603360000000  0.5129970000000  0.5714430000000 1.0
C      1  0.5396630000000  0.4285570000000  0.5129970000000 1.0
C      1  0.4901240000000  0.5667030000000  0.4752070000000 1.0
C      1  0.5098760000000  0.5247930000000  0.5667030000000 1.0
C      1  0.4901240000000  0.4332970000000  0.5247930000000 1.0
C      1  0.5098760000000  0.4752070000000  0.4332970000000 1.0
C      1  0.4908980000000  0.5154560000000  0.4697210000000 1.0
C      1  0.5091020000000  0.5302790000000  0.5154560000000 1.0
C      1  0.4908980000000  0.4845440000000  0.5302790000000 1.0
C      1  0.5091020000000  0.4697210000000  0.4845440000000 1.0
C      1  0.4464270000000  0.4482010000000  0.5403380000000 1.0
C      1  0.5535730000000  0.4596620000000  0.4482010000000 1.0
C      1  0.4464270000000  0.5518000000000  0.4596620000000 1.0
C      1  0.5535730000000  0.5403380000000  0.5517990000000 1.0
C      1  0.4587830000000  0.5102880000000  0.5131620000000 1.0
C      1  0.5412170000000  0.4868380000000  0.5102880000000 1.0
C      1  0.4587830000000  0.4897120000000  0.4868380000000 1.0
C      1  0.5412170000000  0.5131620000000  0.4897120000000 1.0
C      1  0.4336190000000  0.5355010000000  0.4805210000000 1.0
C      1  0.5663810000000  0.5194790000000  0.5355010000000 1.0
C      1  0.4336190000000  0.4644990000000  0.5194790000000 1.0
C      1  0.5663810000000  0.4805210000000  0.4644990000000 1.0
C      1  0.4379600000000  0.4933680000000  0.5308160000000 1.0
C      1  0.5620400000000  0.4691840000000  0.4933680000000 1.0
C      1  0.4379600000000  0.5066320000000  0.4691840000000 1.0
C      1  0.5620400000000  0.5308160000000  0.5066320000000 1.0
END
