TITL C-3985259-1859-874 1.36088536202505e-06 125000 -328.885604690908 0 0 60 (C6) n - 1
REM
REM in /home/nfs/bkarasulu/CARBON/AIRSS/Generating-Clusters/TERSOFF/Higher-Symm/Only-C60
REM
REM
REM
REM
REM
REM ./C.cell (28575a23ae977d3b5fae324c64b13b57)
REM
REM compiler GCC version 9.2.1 20190827 (Red Hat 9.2.1-1)
REM options -cpp -mtune=generic -march=x86-64 -g -O0 -fpre-include=/usr/include/finclude/math-vector-fortran.h
REM seed -1920305987 2018354470 -757306892 352262546 1539651110 1661045288 -1651904898 510096827 2142371725 832262367 -189102296 -903809681 1735095674 -580539879 1054908643 704139561 -879004137 -592604597 1838618628 -702728491 -827366942 1618013873 -238425589 431604303 2128254259 1739251263 -318062594 -1051199953 551555022 1470082769 1290033472 835663519 1830083830
REM
CELL 1.54180   50.00000   50.00000   50.00000   90.00000   90.00000   90.00000
LATT -1
SFAC C  
C      1  0.4576040000000  0.5639350000000  0.4660570000000 1.0
C      1  0.4576040000000  0.5613630000000  0.5383980000000 1.0
C      1  0.4576040000000  0.4974280000000  0.5723410000000 1.0
C      1  0.4576040000000  0.4360650000000  0.5339430000000 1.0
C      1  0.4576040000000  0.4386370000000  0.4616020000000 1.0
C      1  0.4576040000000  0.5025720000000  0.4276590000000 1.0
C      1  0.5423960000000  0.4360650000000  0.4660570000000 1.0
C      1  0.5423960000000  0.4386370000000  0.5383980000000 1.0
C      1  0.5423960000000  0.5025720000000  0.5723410000000 1.0
C      1  0.5423960000000  0.5639350000000  0.5339430000000 1.0
C      1  0.5423960000000  0.5613630000000  0.4616020000000 1.0
C      1  0.5423960000000  0.4974280000000  0.4276590000000 1.0
C      1  0.4978940000000  0.5556060000000  0.4356670000000 1.0
C      1  0.4978940000000  0.5835170000000  0.5159900000000 1.0
C      1  0.4978940000000  0.5279110000000  0.5803230000000 1.0
C      1  0.4978940000000  0.4443940000000  0.5643330000000 1.0
C      1  0.4978940000000  0.4164830000000  0.4840100000000 1.0
C      1  0.4978940000000  0.4720890000000  0.4196770000000 1.0
C      1  0.5021060000000  0.4443940000000  0.4356670000000 1.0
C      1  0.5021060000000  0.4164830000000  0.5159900000000 1.0
C      1  0.5021060000000  0.4720890000000  0.5803230000000 1.0
C      1  0.5021060000000  0.5556060000000  0.5643330000000 1.0
C      1  0.5021060000000  0.5835170000000  0.4840100000000 1.0
C      1  0.5021060000000  0.5279110000000  0.4196770000000 1.0
C      1  0.5254220000000  0.4787390000000  0.4419610000000 1.0
C      1  0.5254220000000  0.5396330000000  0.4525670000000 1.0
C      1  0.5254220000000  0.5608940000000  0.5106070000000 1.0
C      1  0.5254220000000  0.5212610000000  0.5580390000000 1.0
C      1  0.5254220000000  0.4603670000000  0.5474330000000 1.0
C      1  0.5254220000000  0.4391060000000  0.4893930000000 1.0
C      1  0.4745780000000  0.5212610000000  0.4419610000000 1.0
C      1  0.4745780000000  0.4603670000000  0.4525670000000 1.0
C      1  0.4745780000000  0.4391060000000  0.5106070000000 1.0
C      1  0.4745780000000  0.4787390000000  0.5580390000000 1.0
C      1  0.4745780000000  0.5396330000000  0.5474330000000 1.0
C      1  0.4745780000000  0.5608940000000  0.4893930000000 1.0
C      1  0.4796600000000  0.4696630000000  0.5052000000000 1.0
C      1  0.4796600000000  0.4803280000000  0.4763270000000 1.0
C      1  0.4796600000000  0.5106650000000  0.4711270000000 1.0
C      1  0.4796600000000  0.5303370000000  0.4948000000000 1.0
C      1  0.4796600000000  0.5196720000000  0.5236730000000 1.0
C      1  0.4796600000000  0.4893350000000  0.5288730000000 1.0
C      1  0.5203400000000  0.5303370000000  0.5052000000000 1.0
C      1  0.5203400000000  0.5196720000000  0.4763270000000 1.0
C      1  0.5203400000000  0.4893350000000  0.4711270000000 1.0
C      1  0.5203400000000  0.4696630000000  0.4948000000000 1.0
C      1  0.5203400000000  0.4803280000000  0.5236730000000 1.0
C      1  0.5203400000000  0.5106650000000  0.5288730000000 1.0
C      1  0.5324750000000  0.5522870000000  0.5578200000000 1.0
C      1  0.5324750000000  0.4760700000000  0.5741920000000 1.0
C      1  0.5324750000000  0.4237830000000  0.5163720000000 1.0
C      1  0.5324750000000  0.4477130000000  0.4421800000000 1.0
C      1  0.5324750000000  0.5239300000000  0.4258080000000 1.0
C      1  0.5324750000000  0.5762170000000  0.4836280000000 1.0
C      1  0.4675250000000  0.4477130000000  0.5578200000000 1.0
C      1  0.4675250000000  0.5239300000000  0.5741920000000 1.0
C      1  0.4675250000000  0.5762170000000  0.5163720000000 1.0
C      1  0.4675250000000  0.5522870000000  0.4421800000000 1.0
C      1  0.4675250000000  0.4760700000000  0.4258080000000 1.0
C      1  0.4675250000000  0.4237830000000  0.4836280000000 1.0
END
