TITL C-3985253-1688-309 -4.20246486774725e-07 125000 -302.902240703694 0 0 60 (C5) n - 1
REM
REM in /home/nfs/bkarasulu/CARBON/AIRSS/Generating-Clusters/TERSOFF/Higher-Symm/Only-C60
REM
REM
REM
REM
REM
REM ./C.cell (28575a23ae977d3b5fae324c64b13b57)
REM
REM compiler GCC version 9.2.1 20190827 (Red Hat 9.2.1-1)
REM options -cpp -mtune=generic -march=x86-64 -g -O0 -fpre-include=/usr/include/finclude/math-vector-fortran.h
REM seed 541449328 808594147 -1357541288 -916702234 -1771877638 -897276927 -1887601027 -241578412 2123966325 -1000989552 1780473624 -1543881678 1923987840 1708382868 1986984454 -1424642877 847287562 -78988762 419390084 -1624901288 2058470187 665880551 1589694416 -232514785 1060760987 -1331819683 2000909180 1077146141 -766543094 -1864335816 -1879215555 -573451086 -1368130148
REM
CELL 1.54180   50.00000   50.00000   50.00000   90.00000   90.00000   90.00000
LATT -1
SFAC C  
C      1  0.4458140000000  0.4903040000000  0.4709360000000 1.0
C      1  0.4458140000000  0.4693620000000  0.5002410000000 1.0
C      1  0.4458140000000  0.4907610000000  0.5292130000000 1.0
C      1  0.4458140000000  0.5249280000000  0.5178140000000 1.0
C      1  0.4458140000000  0.5246450000000  0.4817970000000 1.0
C      1  0.5541860000000  0.4903040000000  0.4709360000000 1.0
C      1  0.5541860000000  0.4693620000000  0.5002410000000 1.0
C      1  0.5541860000000  0.4907610000000  0.5292130000000 1.0
C      1  0.5541860000000  0.5249280000000  0.5178140000000 1.0
C      1  0.5541860000000  0.5246450000000  0.4817970000000 1.0
C      1  0.5874060000000  0.4916550000000  0.5256680000000 1.0
C      1  0.5874060000000  0.5218330000000  0.5158680000000 1.0
C      1  0.5874060000000  0.5218380000000  0.4841390000000 1.0
C      1  0.5874060000000  0.4916640000000  0.4743290000000 1.0
C      1  0.5874060000000  0.4730100000000  0.4999950000000 1.0
C      1  0.4125940000000  0.4916550000000  0.5256680000000 1.0
C      1  0.4125940000000  0.5218330000000  0.5158680000000 1.0
C      1  0.4125940000000  0.5218380000000  0.4841390000000 1.0
C      1  0.4125940000000  0.4916640000000  0.4743290000000 1.0
C      1  0.4125940000000  0.4730100000000  0.4999950000000 1.0
C      1  0.4628940000000  0.4798090000000  0.5537620000000 1.0
C      1  0.4628940000000  0.5448910000000  0.5358160000000 1.0
C      1  0.4628940000000  0.5479350000000  0.4683740000000 1.0
C      1  0.4628940000000  0.4847340000000  0.4446380000000 1.0
C      1  0.4628940000000  0.4426300000000  0.4974110000000 1.0
C      1  0.5371060000000  0.4798090000000  0.5537620000000 1.0
C      1  0.5371060000000  0.5448910000000  0.5358160000000 1.0
C      1  0.5371060000000  0.5479350000000  0.4683740000000 1.0
C      1  0.5371060000000  0.4847340000000  0.4446380000000 1.0
C      1  0.5371060000000  0.4426300000000  0.4974110000000 1.0
C      1  0.4842170000000  0.5278560000000  0.4983890000000 1.0
C      1  0.4842170000000  0.5070760000000  0.4730090000000 1.0
C      1  0.4842170000000  0.4765160000000  0.4849300000000 1.0
C      1  0.4842170000000  0.4784110000000  0.5176770000000 1.0
C      1  0.4842170000000  0.5101410000000  0.5259950000000 1.0
C      1  0.5157830000000  0.5278560000000  0.4983890000000 1.0
C      1  0.5157830000000  0.5070760000000  0.4730090000000 1.0
C      1  0.5157830000000  0.4765160000000  0.4849300000000 1.0
C      1  0.5157830000000  0.4784110000000  0.5176770000000 1.0
C      1  0.5157830000000  0.5101410000000  0.5259950000000 1.0
C      1  0.5165450000000  0.4347840000000  0.5191120000000 1.0
C      1  0.5165450000000  0.4980230000000  0.5679300000000 1.0
C      1  0.5165450000000  0.5639950000000  0.5228710000000 1.0
C      1  0.5165450000000  0.5415280000000  0.4462050000000 1.0
C      1  0.5165450000000  0.4616710000000  0.4438810000000 1.0
C      1  0.4834550000000  0.4347840000000  0.5191120000000 1.0
C      1  0.4834550000000  0.4980230000000  0.5679300000000 1.0
C      1  0.4834550000000  0.5639950000000  0.5228710000000 1.0
C      1  0.4834550000000  0.5415280000000  0.4462050000000 1.0
C      1  0.4834550000000  0.4616710000000  0.4438810000000 1.0
C      1  0.5237950000000  0.5121020000000  0.4407550000000 1.0
C      1  0.5237950000000  0.4473950000000  0.4701830000000 1.0
C      1  0.5237950000000  0.4553860000000  0.5408160000000 1.0
C      1  0.5237950000000  0.5250320000000  0.5550430000000 1.0
C      1  0.5237950000000  0.5600850000000  0.4932020000000 1.0
C      1  0.4762050000000  0.5121020000000  0.4407550000000 1.0
C      1  0.4762050000000  0.4473950000000  0.4701830000000 1.0
C      1  0.4762050000000  0.4553860000000  0.5408160000000 1.0
C      1  0.4762050000000  0.5250320000000  0.5550430000000 1.0
C      1  0.4762050000000  0.5600850000000  0.4932020000000 1.0
END
