TITL C-3985253-1688-522 -4.1786388828897e-07 125000 -330.361076752034 0 0 60 (D5) n - 1
REM
REM in /home/nfs/bkarasulu/CARBON/AIRSS/Generating-Clusters/TERSOFF/Higher-Symm/Only-C60
REM
REM
REM
REM
REM
REM ./C.cell (28575a23ae977d3b5fae324c64b13b57)
REM
REM compiler GCC version 9.2.1 20190827 (Red Hat 9.2.1-1)
REM options -cpp -mtune=generic -march=x86-64 -g -O0 -fpre-include=/usr/include/finclude/math-vector-fortran.h
REM seed 2134782891 1041090226 321499903 -726630722 1668766473 -625933405 358673169 446383184 -1107813456 349548758 -390754285 641257828 -1180820214 1507185566 -690623703 -46879674 1419117316 -951067090 -763967212 -2029691293 -1772529935 -1551096390 -1310920089 -312607715 -640776661 170953913 1945838829 -381118586 1906216946 -1422808491 365520787 1162217352 574160408
REM
CELL 1.54180   50.00000   50.00000   50.00000   90.00000   90.00000   90.00000
LATT -1
SFAC C  
C      1  0.5230040000000  0.5113420000000  0.4188020000000 1.0
C      1  0.4963220000000  0.5253830000000  0.4188020000000 1.0
C      1  0.4747230000000  0.5043450000000  0.4188020000000 1.0
C      1  0.4880570000000  0.4773020000000  0.4188020000000 1.0
C      1  0.5178960000000  0.4816270000000  0.4188020000000 1.0
C      1  0.4769960000000  0.5113420000000  0.5811980000000 1.0
C      1  0.5036780000000  0.5253830000000  0.5811980000000 1.0
C      1  0.5252770000000  0.5043450000000  0.5811980000000 1.0
C      1  0.5119430000000  0.4773020000000  0.5811980000000 1.0
C      1  0.4821040000000  0.4816270000000  0.5811980000000 1.0
C      1  0.5151090000000  0.4787930000000  0.4691410000000 1.0
C      1  0.5248380000000  0.5078160000000  0.4691410000000 1.0
C      1  0.5002420000000  0.5260370000000  0.4691410000000 1.0
C      1  0.4753120000000  0.5082760000000  0.4691410000000 1.0
C      1  0.4845000000000  0.4790770000000  0.4691410000000 1.0
C      1  0.4848910000000  0.4787930000000  0.5308590000000 1.0
C      1  0.4751620000000  0.5078160000000  0.5308590000000 1.0
C      1  0.4997580000000  0.5260370000000  0.5308590000000 1.0
C      1  0.5246880000000  0.5082760000000  0.5308590000000 1.0
C      1  0.5155000000000  0.4790770000000  0.5308590000000 1.0
C      1  0.4356500000000  0.4951000000000  0.4654670000000 1.0
C      1  0.4847750000000  0.4372850000000  0.4654670000000 1.0
C      1  0.5549410000000  0.4661400000000  0.4654680000000 1.0
C      1  0.5491810000000  0.5417890000000  0.4654680000000 1.0
C      1  0.4754540000000  0.5596870000000  0.4654670000000 1.0
C      1  0.5643500000000  0.4951000000000  0.5345330000000 1.0
C      1  0.5152250000000  0.4372850000000  0.5345330000000 1.0
C      1  0.4450590000000  0.4661400000000  0.5345320000000 1.0
C      1  0.4508190000000  0.5417890000000  0.5345320000000 1.0
C      1  0.5245460000000  0.5596870000000  0.5345330000000 1.0
C      1  0.4591260000000  0.5189590000000  0.5579070000000 1.0
C      1  0.4693380000000  0.4669850000000  0.5579070000000 1.0
C      1  0.5219240000000  0.4606370000000  0.5579070000000 1.0
C      1  0.5442110000000  0.5086870000000  0.5579070000000 1.0
C      1  0.5054000000000  0.5447320000000  0.5579070000000 1.0
C      1  0.5408740000000  0.5189590000000  0.4420930000000 1.0
C      1  0.5306620000000  0.4669850000000  0.4420930000000 1.0
C      1  0.4780760000000  0.4606370000000  0.4420930000000 1.0
C      1  0.4557890000000  0.5086870000000  0.4420930000000 1.0
C      1  0.4946000000000  0.5447320000000  0.4420930000000 1.0
C      1  0.4694430000000  0.4546000000000  0.5145850000000 1.0
C      1  0.5337350000000  0.4569100000000  0.5145850000000 1.0
C      1  0.5514060000000  0.5187680000000  0.5145850000000 1.0
C      1  0.4980350000000  0.5546900000000  0.5145850000000 1.0
C      1  0.4473800000000  0.5150320000000  0.5145840000000 1.0
C      1  0.5305570000000  0.4546000000000  0.4854150000000 1.0
C      1  0.4662650000000  0.4569100000000  0.4854150000000 1.0
C      1  0.4485940000000  0.5187680000000  0.4854150000000 1.0
C      1  0.5019650000000  0.5546900000000  0.4854150000000 1.0
C      1  0.5526200000000  0.5150320000000  0.4854160000000 1.0
C      1  0.5294710000000  0.5619840000000  0.4742450000000 1.0
C      1  0.4501570000000  0.5471830000000  0.4742440000000 1.0
C      1  0.4397240000000  0.4671770000000  0.4742440000000 1.0
C      1  0.5125910000000  0.4325310000000  0.4742450000000 1.0
C      1  0.5680580000000  0.4911250000000  0.4742450000000 1.0
C      1  0.4705290000000  0.5619840000000  0.5257550000000 1.0
C      1  0.5498430000000  0.5471830000000  0.5257560000000 1.0
C      1  0.5602760000000  0.4671770000000  0.5257560000000 1.0
C      1  0.4874090000000  0.4325310000000  0.5257550000000 1.0
C      1  0.4319420000000  0.4911250000000  0.5257550000000 1.0
END
