TITL C-3985259-1859-826 -0.00404390043415394 125000 -339.523614127797 0 0 60 (C1) n - 1
REM
REM in /home/nfs/bkarasulu/CARBON/AIRSS/Generating-Clusters/TERSOFF/Higher-Symm/Only-C60
REM
REM
REM
REM
REM
REM ./C.cell (28575a23ae977d3b5fae324c64b13b57)
REM
REM compiler GCC version 9.2.1 20190827 (Red Hat 9.2.1-1)
REM options -cpp -mtune=generic -march=x86-64 -g -O0 -fpre-include=/usr/include/finclude/math-vector-fortran.h
REM seed -1925872988 366509406 1497178694 -1663378846 -932907203 2114242461 381284979 -578227768 -318653388 374901728 -51342994 1735872144 667765013 -413279815 -959840515 -50687621 -1712880458 -646581196 -534480530 -1144492324 -13242721 617531733 2081575391 413888282 -948370763 1092105861 2136365244 1463893854 459280509 1134387433 -133700337 816246460 -1556800104
REM
CELL 1.54180   50.00000   50.00000   50.00000   90.00000   90.00000   90.00000
LATT -1
SFAC C  
C      1  0.4848120000000  0.4912420000000  0.5585090000000 1.0
C      1  0.4729980000000  0.4426350000000  0.5519860000000 1.0
C      1  0.4572220000000  0.4962150000000  0.5406700000000 1.0
C      1  0.4830590000000  0.5153680000000  0.4910590000000 1.0
C      1  0.5233860000000  0.4965580000000  0.5153080000000 1.0
C      1  0.5683660000000  0.4894990000000  0.4933840000000 1.0
C      1  0.4935380000000  0.4572790000000  0.4599120000000 1.0
C      1  0.4451030000000  0.5231480000000  0.4749600000000 1.0
C      1  0.4582830000000  0.5500880000000  0.4784960000000 1.0
C      1  0.5226330000000  0.4566900000000  0.4993100000000 1.0
C      1  0.5274380000000  0.5190880000000  0.5654500000000 1.0
C      1  0.5133690000000  0.4936120000000  0.5711350000000 1.0
C      1  0.4173930000000  0.5264890000000  0.4641690000000 1.0
C      1  0.4481100000000  0.4468250000000  0.5346570000000 1.0
C      1  0.4834550000000  0.5439440000000  0.5442540000000 1.0
C      1  0.4834220000000  0.5569230000000  0.4636150000000 1.0
C      1  0.4611500000000  0.5043970000000  0.4556630000000 1.0
C      1  0.4803620000000  0.5181950000000  0.4306370000000 1.0
C      1  0.4813810000000  0.4870560000000  0.5024170000000 1.0
C      1  0.5455190000000  0.4802010000000  0.5276400000000 1.0
C      1  0.4570140000000  0.5253860000000  0.5303360000000 1.0
C      1  0.4465400000000  0.4553940000000  0.4637770000000 1.0
C      1  0.4661150000000  0.4303250000000  0.5091410000000 1.0
C      1  0.5413790000000  0.5231910000000  0.4691750000000 1.0
C      1  0.4927380000000  0.5438230000000  0.4379380000000 1.0
C      1  0.5208950000000  0.5010480000000  0.4795330000000 1.0
C      1  0.5314100000000  0.5538530000000  0.4662110000000 1.0
C      1  0.5569750000000  0.5184170000000  0.5628980000000 1.0
C      1  0.5381900000000  0.4578020000000  0.5454110000000 1.0
C      1  0.5635180000000  0.5190140000000  0.4877390000000 1.0
C      1  0.4421860000000  0.4815060000000  0.4517380000000 1.0
C      1  0.5253580000000  0.5283010000000  0.5180490000000 1.0
C      1  0.5706500000000  0.5169030000000  0.5366650000000 1.0
C      1  0.5192650000000  0.4485800000000  0.4487880000000 1.0
C      1  0.4787460000000  0.5216390000000  0.5662140000000 1.0
C      1  0.4433180000000  0.5111100000000  0.5039870000000 1.0
C      1  0.4958530000000  0.4624130000000  0.4897790000000 1.0
C      1  0.5434260000000  0.5187830000000  0.4387790000000 1.0
C      1  0.5012930000000  0.5770730000000  0.5075110000000 1.0
C      1  0.4966770000000  0.4887220000000  0.5275310000000 1.0
C      1  0.5215450000000  0.4427900000000  0.5255170000000 1.0
C      1  0.5144180000000  0.5357540000000  0.5442250000000 1.0
C      1  0.5045800000000  0.5352030000000  0.4976070000000 1.0
C      1  0.4796720000000  0.4639280000000  0.5695860000000 1.0
C      1  0.4696160000000  0.4436230000000  0.4516940000000 1.0
C      1  0.5068560000000  0.5608720000000  0.4823010000000 1.0
C      1  0.5280780000000  0.4682960000000  0.5705890000000 1.0
C      1  0.4781050000000  0.5672810000000  0.5232670000000 1.0
C      1  0.4943640000000  0.4901980000000  0.4584690000000 1.0
C      1  0.4428010000000  0.4768650000000  0.5151050000000 1.0
C      1  0.5025500000000  0.4942330000000  0.4275010000000 1.0
C      1  0.5327730000000  0.4923950000000  0.4330390000000 1.0
C      1  0.4492900000000  0.4535100000000  0.4932920000000 1.0
C      1  0.5413460000000  0.4678400000000  0.4508380000000 1.0
C      1  0.5563100000000  0.5316590000000  0.5142040000000 1.0
C      1  0.5482200000000  0.4689200000000  0.4818420000000 1.0
C      1  0.5238250000000  0.5455770000000  0.4358570000000 1.0
C      1  0.4552490000000  0.5630820000000  0.5049640000000 1.0
C      1  0.5736550000000  0.4887580000000  0.5239110000000 1.0
C      1  0.4941980000000  0.4304810000000  0.5317580000000 1.0
END
