TITL C-3985253-1688-724 -1.58933058414493e-07 125000 -276.370687666839 0 0 60 (C4h) n - 1
REM
REM in /home/nfs/bkarasulu/CARBON/AIRSS/Generating-Clusters/TERSOFF/Higher-Symm/Only-C60
REM
REM
REM
REM
REM
REM ./C.cell (28575a23ae977d3b5fae324c64b13b57)
REM
REM compiler GCC version 9.2.1 20190827 (Red Hat 9.2.1-1)
REM options -cpp -mtune=generic -march=x86-64 -g -O0 -fpre-include=/usr/include/finclude/math-vector-fortran.h
REM seed 553727209 261115657 -792852255 -443476333 775451605 1224229819 -1673926856 -943294515 1939873037 -585534280 858669979 -449970833 644469114 -1572012445 1058445438 1804900477 -1778346228 -1908314832 751318204 542721881 -1888470310 1912341597 -65327088 1653593222 413186590 -1174240418 987325034 1978708667 -1309683994 -1298094077 -918355294 975011536 99698975
REM
CELL 1.54180   50.00000   50.00000   50.00000   90.00000   90.00000   90.00000
LATT -1
SFAC C  
C      1  0.4633240000000  0.4995830000000  0.5253050000000 1.0
C      1  0.4633240000000  0.5253050000000  0.5004170000000 1.0
C      1  0.4633240000000  0.5004170000000  0.4746950000000 1.0
C      1  0.4633240000000  0.4746950000000  0.4995830000000 1.0
C      1  0.5359840000000  0.4995830000000  0.5253050000000 1.0
C      1  0.5359840000000  0.5253050000000  0.5004170000000 1.0
C      1  0.5359840000000  0.5004170000000  0.4746950000000 1.0
C      1  0.5359840000000  0.4746950000000  0.4995830000000 1.0
C      1  0.4644400000000  0.5319310000000  0.4590320000000 1.0
C      1  0.4644400000000  0.4590320000000  0.4680690000000 1.0
C      1  0.4644400000000  0.4680690000000  0.5409680000000 1.0
C      1  0.4644400000000  0.5409680000000  0.5319310000000 1.0
C      1  0.5348680000000  0.5319310000000  0.4590320000000 1.0
C      1  0.5348680000000  0.4590320000000  0.4680690000000 1.0
C      1  0.5348680000000  0.4680690000000  0.5409680000000 1.0
C      1  0.5348680000000  0.5409680000000  0.5319310000000 1.0
C      1  0.4836560000000  0.5453760000000  0.4822280000000 1.0
C      1  0.4836560000000  0.4822280000000  0.4546240000000 1.0
C      1  0.4836560000000  0.4546240000000  0.5177720000000 1.0
C      1  0.4836560000000  0.5177720000000  0.5453760000000 1.0
C      1  0.5156520000000  0.5453760000000  0.4822280000000 1.0
C      1  0.5156520000000  0.4822280000000  0.4546240000000 1.0
C      1  0.5156520000000  0.4546240000000  0.5177720000000 1.0
C      1  0.5156520000000  0.5177720000000  0.5453760000000 1.0
C      1  0.4832380000000  0.4268580000000  0.5011810000000 1.0
C      1  0.4832380000000  0.5011810000000  0.5731420000000 1.0
C      1  0.4832380000000  0.5731420000000  0.4988190000000 1.0
C      1  0.4832380000000  0.4988190000000  0.4268580000000 1.0
C      1  0.5160710000000  0.4268580000000  0.5011810000000 1.0
C      1  0.5160710000000  0.5011810000000  0.5731420000000 1.0
C      1  0.5160710000000  0.5731420000000  0.4988190000000 1.0
C      1  0.5160710000000  0.4988190000000  0.4268580000000 1.0
C      1  0.4749240000000  0.4719360000000  0.5690360000000 1.0
C      1  0.4749240000000  0.5690360000000  0.5280640000000 1.0
C      1  0.4749240000000  0.5280640000000  0.4309640000000 1.0
C      1  0.4749240000000  0.4309640000000  0.4719360000000 1.0
C      1  0.5243840000000  0.4719360000000  0.5690360000000 1.0
C      1  0.5243840000000  0.5690360000000  0.5280640000000 1.0
C      1  0.5243840000000  0.5280640000000  0.4309640000000 1.0
C      1  0.5243840000000  0.4309640000000  0.4719360000000 1.0
C      1  0.4130680000000  0.4750410000000  0.4947290000000 1.0
C      1  0.4130680000000  0.4947290000000  0.5249590000000 1.0
C      1  0.4130680000000  0.5249590000000  0.5052710000000 1.0
C      1  0.4130680000000  0.5052710000000  0.4750410000000 1.0
C      1  0.5862410000000  0.4750410000000  0.4947290000000 1.0
C      1  0.5862410000000  0.4947290000000  0.5249590000000 1.0
C      1  0.5862410000000  0.5249590000000  0.5052710000000 1.0
C      1  0.5862410000000  0.5052710000000  0.4750410000000 1.0
C      1  0.5638170000000  0.5215370000000  0.5321630000000 1.0
C      1  0.5638170000000  0.5321630000000  0.4784630000000 1.0
C      1  0.5638170000000  0.4784630000000  0.4678370000000 1.0
C      1  0.5638170000000  0.4678370000000  0.5215370000000 1.0
C      1  0.4354910000000  0.5215370000000  0.5321630000000 1.0
C      1  0.4354910000000  0.5321630000000  0.4784630000000 1.0
C      1  0.4354910000000  0.4784630000000  0.4678370000000 1.0
C      1  0.4354910000000  0.4678370000000  0.5215370000000 1.0
C      1  0.4996540000000  0.4565840000000  0.5754800000000 1.0
C      1  0.4996540000000  0.5434160000000  0.4245200000000 1.0
C      1  0.4996540000000  0.4245200000000  0.4565840000000 1.0
C      1  0.4996540000000  0.5754800000000  0.5434160000000 1.0
END
