TITL C-3985248-2097-161 -2.38642611679337e-07 125000 -306.561067349065 0 0 60 (D2) n - 1
REM
REM in /home/nfs/bkarasulu/CARBON/AIRSS/Generating-Clusters/TERSOFF/Higher-Symm/Only-C60
REM
REM
REM
REM
REM
REM ./C.cell (28575a23ae977d3b5fae324c64b13b57)
REM
REM compiler GCC version 9.2.1 20190827 (Red Hat 9.2.1-1)
REM options -cpp -mtune=generic -march=x86-64 -g -O0 -fpre-include=/usr/include/finclude/math-vector-fortran.h
REM seed 1820805583 -823767165 696686723 1164942329 366686250 1988450192 -640036683 1136718096 -336812581 -983846558 1663471028 -376532572 -727085958 -1701063737 1964675184 468736017 -2083498626 -891129834 -396014868 -1554308043 1774417653 -1407687385 1724559127 674356192 -142273725 -2076874473 -2080480034 1827190277 917046784 1102584026 -317130673 -628975006 -293278000
REM
CELL 1.54180   50.00000   50.00000   50.00000   90.00000   90.00000   90.00000
LATT -1
SFAC C  
C      1  0.5474740000000  0.5283760000000  0.4469900000000 1.0
C      1  0.4525260000000  0.5283760000000  0.5530100000000 1.0
C      1  0.5474740000000  0.4716240000000  0.5530100000000 1.0
C      1  0.4525260000000  0.4716240000000  0.4469900000000 1.0
C      1  0.5050530000000  0.5274510000000  0.4703200000000 1.0
C      1  0.4949470000000  0.5274510000000  0.5296800000000 1.0
C      1  0.5050530000000  0.4725490000000  0.5296800000000 1.0
C      1  0.4949470000000  0.4725490000000  0.4703200000000 1.0
C      1  0.5328940000000  0.4509580000000  0.5261320000000 1.0
C      1  0.4671060000000  0.4509580000000  0.4738680000000 1.0
C      1  0.5328940000000  0.5490420000000  0.4738680000000 1.0
C      1  0.4671060000000  0.5490420000000  0.5261320000000 1.0
C      1  0.4718380000000  0.5094180000000  0.5134860000000 1.0
C      1  0.5281620000000  0.5094180000000  0.4865140000000 1.0
C      1  0.4718380000000  0.4905820000000  0.4865140000000 1.0
C      1  0.5281620000000  0.4905820000000  0.5134860000000 1.0
C      1  0.4480660000000  0.5114860000000  0.4704250000000 1.0
C      1  0.5519340000000  0.5114860000000  0.5295750000000 1.0
C      1  0.4480660000000  0.4885140000000  0.5295750000000 1.0
C      1  0.5519340000000  0.4885140000000  0.4704250000000 1.0
C      1  0.5184530000000  0.4688160000000  0.4901020000000 1.0
C      1  0.4815470000000  0.4688160000000  0.5098980000000 1.0
C      1  0.5184530000000  0.5311840000000  0.5098980000000 1.0
C      1  0.4815470000000  0.5311840000000  0.4901020000000 1.0
C      1  0.4311630000000  0.4849990000000  0.4646910000000 1.0
C      1  0.5688370000000  0.4849990000000  0.5353090000000 1.0
C      1  0.4311630000000  0.5150010000000  0.5353090000000 1.0
C      1  0.5688370000000  0.5150010000000  0.4646910000000 1.0
C      1  0.4337340000000  0.4686180000000  0.5133820000000 1.0
C      1  0.5662660000000  0.4686180000000  0.4866180000000 1.0
C      1  0.4337340000000  0.5313820000000  0.4866180000000 1.0
C      1  0.5662660000000  0.5313820000000  0.5133820000000 1.0
C      1  0.5060300000000  0.4724360000000  0.4431810000000 1.0
C      1  0.4939700000000  0.4724360000000  0.5568190000000 1.0
C      1  0.5060300000000  0.5275640000000  0.5568190000000 1.0
C      1  0.4939700000000  0.5275640000000  0.4431810000000 1.0
C      1  0.5177670000000  0.4381730000000  0.4957730000000 1.0
C      1  0.4822330000000  0.4381730000000  0.5042270000000 1.0
C      1  0.5177670000000  0.5618270000000  0.5042270000000 1.0
C      1  0.4822330000000  0.5618270000000  0.4957730000000 1.0
C      1  0.4668500000000  0.5593390000000  0.4628150000000 1.0
C      1  0.5331500000000  0.5593390000000  0.5371850000000 1.0
C      1  0.4668500000000  0.4406610000000  0.5371850000000 1.0
C      1  0.5331500000000  0.4406610000000  0.4628150000000 1.0
C      1  0.5341730000000  0.5058500000000  0.4324220000000 1.0
C      1  0.4658270000000  0.5058500000000  0.5675780000000 1.0
C      1  0.5341730000000  0.4941500000000  0.5675780000000 1.0
C      1  0.4658270000000  0.4941500000000  0.4324220000000 1.0
C      1  0.5615330000000  0.4638030000000  0.5142710000000 1.0
C      1  0.4384670000000  0.4638030000000  0.4857290000000 1.0
C      1  0.5615330000000  0.5361970000000  0.4857290000000 1.0
C      1  0.4384670000000  0.5361970000000  0.5142710000000 1.0
C      1  0.4626280000000  0.4724990000000  0.5541280000000 1.0
C      1  0.5373720000000  0.4724990000000  0.4458720000000 1.0
C      1  0.4626280000000  0.5275010000000  0.4458720000000 1.0
C      1  0.5373720000000  0.5275010000000  0.5541280000000 1.0
C      1  0.5077260000000  0.4877240000000  0.5778410000000 1.0
C      1  0.4922740000000  0.4877240000000  0.4221590000000 1.0
C      1  0.5077260000000  0.5122760000000  0.4221590000000 1.0
C      1  0.4922740000000  0.5122760000000  0.5778410000000 1.0
END
