TITL C-3985259-1859-1054 -0.000268093499799481 125000 -310.055392516622 0 0 60 (C1) n - 1
REM
REM in /home/nfs/bkarasulu/CARBON/AIRSS/Generating-Clusters/TERSOFF/Higher-Symm/Only-C60
REM
REM
REM
REM
REM
REM ./C.cell (28575a23ae977d3b5fae324c64b13b57)
REM
REM compiler GCC version 9.2.1 20190827 (Red Hat 9.2.1-1)
REM options -cpp -mtune=generic -march=x86-64 -g -O0 -fpre-include=/usr/include/finclude/math-vector-fortran.h
REM seed 681642626 1432089960 -974101905 -1054737313 -683110061 -2015544130 -1711444437 998215640 -1789664115 1732948982 -671186562 142238848 -1837603408 1181676201 -911322468 -177232246 206391362 468570899 1318153605 -391356691 829594569 1796850387 59835272 89650402 261084081 -775806789 634549154 -437476969 -1121474657 -1649695107 -44213625 -1314462824 -115524117
REM
CELL 1.54180   50.00000   50.00000   50.00000   90.00000   90.00000   90.00000
LATT -1
SFAC C  
C      1  0.5125490000000  0.5818540000000  0.4849870000000 1.0
C      1  0.5130690000000  0.5827400000000  0.5165890000000 1.0
C      1  0.5044850000000  0.4245460000000  0.5353720000000 1.0
C      1  0.5044770000000  0.4245390000000  0.4646220000000 1.0
C      1  0.4969000000000  0.4726520000000  0.5586210000000 1.0
C      1  0.4969030000000  0.4726530000000  0.4413550000000 1.0
C      1  0.5491700000000  0.4484110000000  0.4650450000000 1.0
C      1  0.5491600000000  0.4484520000000  0.5349480000000 1.0
C      1  0.5338850000000  0.5265070000000  0.4836960000000 1.0
C      1  0.5338110000000  0.5266780000000  0.5164280000000 1.0
C      1  0.5587800000000  0.4727550000000  0.5158200000000 1.0
C      1  0.5587830000000  0.4727210000000  0.4841820000000 1.0
C      1  0.4458160000000  0.4766080000000  0.5311190000000 1.0
C      1  0.4458210000000  0.4766160000000  0.4688660000000 1.0
C      1  0.5050410000000  0.5292190000000  0.4731100000000 1.0
C      1  0.5049530000000  0.5292760000000  0.5269150000000 1.0
C      1  0.4872920000000  0.5349810000000  0.4355030000000 1.0
C      1  0.4872360000000  0.5349250000000  0.5645460000000 1.0
C      1  0.4722320000000  0.4850770000000  0.5157870000000 1.0
C      1  0.4722390000000  0.4850770000000  0.4842000000000 1.0
C      1  0.5278660000000  0.4338420000000  0.5156200000000 1.0
C      1  0.5278640000000  0.4338240000000  0.4843760000000 1.0
C      1  0.4482690000000  0.5315180000000  0.5324130000000 1.0
C      1  0.4482280000000  0.5314710000000  0.4675980000000 1.0
C      1  0.5187440000000  0.4465010000000  0.5545520000000 1.0
C      1  0.5187490000000  0.4464860000000  0.4454440000000 1.0
C      1  0.4768350000000  0.4365990000000  0.5276520000000 1.0
C      1  0.4768260000000  0.4365960000000  0.4723280000000 1.0
C      1  0.4905940000000  0.4655400000000  0.4715740000000 1.0
C      1  0.4905930000000  0.4655500000000  0.5284070000000 1.0
C      1  0.5668610000000  0.5007870000000  0.5460230000000 1.0
C      1  0.5669250000000  0.5007230000000  0.4539720000000 1.0
C      1  0.4812280000000  0.5710130000000  0.5179180000000 1.0
C      1  0.4812450000000  0.5709360000000  0.4816840000000 1.0
C      1  0.5172120000000  0.4674630000000  0.4844410000000 1.0
C      1  0.5172070000000  0.4674890000000  0.5155400000000 1.0
C      1  0.4966620000000  0.5536220000000  0.5419150000000 1.0
C      1  0.4968530000000  0.5536660000000  0.4581510000000 1.0
C      1  0.4644530000000  0.4881870000000  0.4431230000000 1.0
C      1  0.4644330000000  0.4881610000000  0.5568630000000 1.0
C      1  0.5106150000000  0.5186360000000  0.4279260000000 1.0
C      1  0.5105900000000  0.5186180000000  0.5720760000000 1.0
C      1  0.5174900000000  0.4941920000000  0.5578470000000 1.0
C      1  0.5175030000000  0.4941830000000  0.4421250000000 1.0
C      1  0.4508030000000  0.4489700000000  0.4848160000000 1.0
C      1  0.4508030000000  0.4489650000000  0.5151700000000 1.0
C      1  0.5364010000000  0.4936690000000  0.4687040000000 1.0
C      1  0.5363890000000  0.4937300000000  0.5312340000000 1.0
C      1  0.5369820000000  0.5607170000000  0.4828010000000 1.0
C      1  0.5371850000000  0.5608280000000  0.5155650000000 1.0
C      1  0.4636330000000  0.5189590000000  0.5551850000000 1.0
C      1  0.4636610000000  0.5189900000000  0.4448420000000 1.0
C      1  0.4534490000000  0.5596190000000  0.5256370000000 1.0
C      1  0.4534020000000  0.5595080000000  0.4744750000000 1.0
C      1  0.4825930000000  0.5149490000000  0.4851730000000 1.0
C      1  0.4825830000000  0.5149470000000  0.5147660000000 1.0
C      1  0.5615480000000  0.5273210000000  0.5323570000000 1.0
C      1  0.5617620000000  0.5271180000000  0.4679590000000 1.0
C      1  0.4311320000000  0.5149790000000  0.5149140000000 1.0
C      1  0.4312270000000  0.5148400000000  0.4851220000000 1.0
END
