TITL C-3985259-1859-207 -3.47768544633874e-07 125000 -309.987889920509 0 0 60 (C4h) n - 1
REM
REM in /home/nfs/bkarasulu/CARBON/AIRSS/Generating-Clusters/TERSOFF/Higher-Symm/Only-C60
REM
REM
REM
REM
REM
REM ./C.cell (28575a23ae977d3b5fae324c64b13b57)
REM
REM compiler GCC version 9.2.1 20190827 (Red Hat 9.2.1-1)
REM options -cpp -mtune=generic -march=x86-64 -g -O0 -fpre-include=/usr/include/finclude/math-vector-fortran.h
REM seed 86882340 -1125052204 645368149 2083771148 797995500 -1530224939 481188291 697806331 297336818 1916394555 1863563040 1110774459 1708218375 1847076100 -196292976 -1358870036 1839785426 -185412263 987667761 802964128 -1660826843 -10660354 -1317427583 300216577 -158204743 -1446954717 2030713270 175081015 -1917661336 -1961710075 338580066 -2048257705 443234715
REM
CELL 1.54180   50.00000   50.00000   50.00000   90.00000   90.00000   90.00000
LATT -1
SFAC C  
C      1  0.5171270000000  0.4932520000000  0.5786710000000 1.0
C      1  0.5171270000000  0.5786710000000  0.5067480000000 1.0
C      1  0.5171270000000  0.5067480000000  0.4213290000000 1.0
C      1  0.5171270000000  0.4213290000000  0.4932520000000 1.0
C      1  0.4821780000000  0.4932520000000  0.5786710000000 1.0
C      1  0.4821780000000  0.5786710000000  0.5067480000000 1.0
C      1  0.4821780000000  0.5067480000000  0.4213290000000 1.0
C      1  0.4821780000000  0.4213290000000  0.4932520000000 1.0
C      1  0.5546350000000  0.4932330000000  0.4603640000000 1.0
C      1  0.5546350000000  0.4603640000000  0.5067670000000 1.0
C      1  0.5546350000000  0.5067670000000  0.5396360000000 1.0
C      1  0.5546350000000  0.5396360000000  0.4932330000000 1.0
C      1  0.4446700000000  0.4932330000000  0.4603640000000 1.0
C      1  0.4446700000000  0.4603640000000  0.5067670000000 1.0
C      1  0.4446700000000  0.5067670000000  0.5396360000000 1.0
C      1  0.4446700000000  0.5396360000000  0.4932330000000 1.0
C      1  0.5145020000000  0.5583740000000  0.4640020000000 1.0
C      1  0.5145020000000  0.4640020000000  0.4416260000000 1.0
C      1  0.5145020000000  0.4416260000000  0.5359980000000 1.0
C      1  0.5145020000000  0.5359980000000  0.5583740000000 1.0
C      1  0.4848030000000  0.5583740000000  0.4640020000000 1.0
C      1  0.4848030000000  0.4640020000000  0.4416260000000 1.0
C      1  0.4848030000000  0.4416260000000  0.5359980000000 1.0
C      1  0.4848030000000  0.5359980000000  0.5583740000000 1.0
C      1  0.4726950000000  0.4442930000000  0.5093110000000 1.0
C      1  0.4726950000000  0.5093110000000  0.5557070000000 1.0
C      1  0.4726950000000  0.5557070000000  0.4906890000000 1.0
C      1  0.4726950000000  0.4906890000000  0.4442930000000 1.0
C      1  0.5266100000000  0.4442930000000  0.5093110000000 1.0
C      1  0.5266100000000  0.5093110000000  0.5557070000000 1.0
C      1  0.5266100000000  0.5557070000000  0.4906890000000 1.0
C      1  0.5266100000000  0.4906890000000  0.4442930000000 1.0
C      1  0.5488460000000  0.4649470000000  0.4758630000000 1.0
C      1  0.5488460000000  0.4758630000000  0.5350530000000 1.0
C      1  0.5488460000000  0.5350530000000  0.5241370000000 1.0
C      1  0.5488460000000  0.5241370000000  0.4649470000000 1.0
C      1  0.4504590000000  0.4649470000000  0.4758630000000 1.0
C      1  0.4504590000000  0.4758630000000  0.5350530000000 1.0
C      1  0.4504590000000  0.5350530000000  0.5241370000000 1.0
C      1  0.4504590000000  0.5241370000000  0.4649470000000 1.0
C      1  0.5156540000000  0.5248110000000  0.4977320000000 1.0
C      1  0.5156540000000  0.4977320000000  0.4751890000000 1.0
C      1  0.5156540000000  0.4751890000000  0.5022680000000 1.0
C      1  0.5156540000000  0.5022680000000  0.5248110000000 1.0
C      1  0.4836510000000  0.5248110000000  0.4977320000000 1.0
C      1  0.4836510000000  0.4977320000000  0.4751890000000 1.0
C      1  0.4836510000000  0.4751890000000  0.5022680000000 1.0
C      1  0.4836510000000  0.5022680000000  0.5248110000000 1.0
C      1  0.5278740000000  0.5402240000000  0.4451780000000 1.0
C      1  0.5278740000000  0.4451780000000  0.4597760000000 1.0
C      1  0.5278740000000  0.4597760000000  0.5548220000000 1.0
C      1  0.5278740000000  0.5548220000000  0.5402240000000 1.0
C      1  0.4714310000000  0.5402240000000  0.4451780000000 1.0
C      1  0.4714310000000  0.4451780000000  0.4597760000000 1.0
C      1  0.4714310000000  0.4597760000000  0.5548220000000 1.0
C      1  0.4714310000000  0.5548220000000  0.5402240000000 1.0
C      1  0.4996530000000  0.4273820000000  0.4652870000000 1.0
C      1  0.4996530000000  0.4652870000000  0.5726180000000 1.0
C      1  0.4996530000000  0.5726180000000  0.5347130000000 1.0
C      1  0.4996530000000  0.5347130000000  0.4273820000000 1.0
END
