TITL C-3985251-913-201 0.00144504814232224 125000 -323.84238764886 0 0 60 (C5) n - 1
REM
REM in /home/nfs/bkarasulu/CARBON/AIRSS/Generating-Clusters/TERSOFF/Higher-Symm/Only-C60
REM
REM
REM
REM
REM
REM ./C.cell (28575a23ae977d3b5fae324c64b13b57)
REM
REM compiler GCC version 9.2.1 20190827 (Red Hat 9.2.1-1)
REM options -cpp -mtune=generic -march=x86-64 -g -O0 -fpre-include=/usr/include/finclude/math-vector-fortran.h
REM seed 1789002853 -1056141005 2012313640 1520308621 1969283869 777517652 2059696655 307266237 -142452116 420815591 63586490 2011454228 -999053718 958922099 743664559 -1807566890 926363653 1305532014 1713316233 394774977 1027888166 1337189869 810941253 -1960033061 726187902 173834107 -2063064477 1890585251 4054929 -1828260502 1737927089 61786690 -662834603
REM
CELL 1.54180   50.00000   50.00000   50.00000   90.00000   90.00000   90.00000
LATT -1
SFAC C  
C      1  0.4912830000000  0.5166240000000  0.4183340000000 1.0
C      1  0.4912770000000  0.4274700000000  0.4589520000000 1.0
C      1  0.4912890000000  0.4385590000000  0.5563010000000 1.0
C      1  0.4912900000000  0.5345470000000  0.5758290000000 1.0
C      1  0.4912870000000  0.5827960000000  0.4905730000000 1.0
C      1  0.5322110000000  0.5095420000000  0.5486260000000 1.0
C      1  0.5322040000000  0.5491880000000  0.5059430000000 1.0
C      1  0.5322010000000  0.5208530000000  0.4550520000000 1.0
C      1  0.5322030000000  0.4636950000000  0.4662840000000 1.0
C      1  0.5322090000000  0.4567060000000  0.5241090000000 1.0
C      1  0.4597420000000  0.4418420000000  0.5555270000000 1.0
C      1  0.4597320000000  0.5348380000000  0.5724690000000 1.0
C      1  0.4597380000000  0.5796870000000  0.4892710000000 1.0
C      1  0.4597380000000  0.5144140000000  0.4208900000000 1.0
C      1  0.4597460000000  0.4292330000000  0.4618450000000 1.0
C      1  0.5484780000000  0.5394970000000  0.4779360000000 1.0
C      1  0.5484780000000  0.4912220000000  0.4556180000000 1.0
C      1  0.5484830000000  0.4550750000000  0.4946320000000 1.0
C      1  0.5484860000000  0.4810150000000  0.5410670000000 1.0
C      1  0.5484840000000  0.5331910000000  0.5307470000000 1.0
C      1  0.5105350000000  0.5339970000000  0.4358170000000 1.0
C      1  0.5105240000000  0.4494820000000  0.4478460000000 1.0
C      1  0.5105330000000  0.4347690000000  0.5319390000000 1.0
C      1  0.5105410000000  0.5102200000000  0.5719120000000 1.0
C      1  0.5105330000000  0.5715390000000  0.5124900000000 1.0
C      1  0.4472580000000  0.4634960000000  0.5382810000000 1.0
C      1  0.4472580000000  0.5251140000000  0.5465380000000 1.0
C      1  0.4472570000000  0.5520270000000  0.4904850000000 1.0
C      1  0.4472620000000  0.5070420000000  0.4475850000000 1.0
C      1  0.4472480000000  0.4523230000000  0.4771150000000 1.0
C      1  0.4956510000000  0.5647680000000  0.5360380000000 1.0
C      1  0.4956540000000  0.5542780000000  0.4495400000000 1.0
C      1  0.4956700000000  0.4687700000000  0.4327670000000 1.0
C      1  0.4956320000000  0.4264350000000  0.5088920000000 1.0
C      1  0.4956530000000  0.4857400000000  0.5727440000000 1.0
C      1  0.5719610000000  0.4891510000000  0.5234280000000 1.0
C      1  0.5719610000000  0.5189300000000  0.5175570000000 1.0
C      1  0.5719580000000  0.5225480000000  0.4874210000000 1.0
C      1  0.5719580000000  0.4950060000000  0.4746680000000 1.0
C      1  0.5719600000000  0.4743650000000  0.4969210000000 1.0
C      1  0.4541260000000  0.4943830000000  0.5440860000000 1.0
C      1  0.4541090000000  0.5401820000000  0.5189500000000 1.0
C      1  0.4541310000000  0.5304630000000  0.4676260000000 1.0
C      1  0.4540960000000  0.4786340000000  0.4610450000000 1.0
C      1  0.4541270000000  0.4563370000000  0.5082900000000 1.0
C      1  0.5140500000000  0.5107190000000  0.4767690000000 1.0
C      1  0.5140540000000  0.4812190000000  0.4826290000000 1.0
C      1  0.5140590000000  0.4776700000000  0.5124970000000 1.0
C      1  0.5140580000000  0.5049810000000  0.5251010000000 1.0
C      1  0.5140550000000  0.5254050000000  0.5030190000000 1.0
C      1  0.4923230000000  0.5556620000000  0.4781620000000 1.0
C      1  0.4923270000000  0.4964190000000  0.4403020000000 1.0
C      1  0.4923210000000  0.4421390000000  0.4849660000000 1.0
C      1  0.4923270000000  0.4678080000000  0.5503990000000 1.0
C      1  0.4923180000000  0.5379820000000  0.5461910000000 1.0
C      1  0.4823950000000  0.5304960000000  0.4984790000000 1.0
C      1  0.4823860000000  0.5079870000000  0.4705090000000 1.0
C      1  0.4823880000000  0.4744370000000  0.4832940000000 1.0
C      1  0.4823970000000  0.4762150000000  0.5191540000000 1.0
C      1  0.4823920000000  0.5108660000000  0.5285450000000 1.0
END
