TITL C-3985254-1270-349 -0.0001143518268813 125000 -338.115454065652 0 0 60 (C2v) n - 1
REM
REM in /home/nfs/bkarasulu/CARBON/AIRSS/Generating-Clusters/TERSOFF/Higher-Symm/Only-C60
REM
REM
REM
REM
REM
REM ./C.cell (28575a23ae977d3b5fae324c64b13b57)
REM
REM compiler GCC version 9.2.1 20190827 (Red Hat 9.2.1-1)
REM options -cpp -mtune=generic -march=x86-64 -g -O0 -fpre-include=/usr/include/finclude/math-vector-fortran.h
REM seed -2111731292 -2059397246 -758280255 938534477 -1097764992 -1713617039 -1241161014 -1569716321 1176612374 284722489 -701641005 400828841 1523829483 -640944321 -1271168413 -908430422 688932554 -165178494 -929396338 -1463025456 952277688 1446019547 -1573260197 -891091496 1977198505 2134431423 -1785055686 -1313674861 -1061643889 -868884291 291808851 763552416 -232430261
REM
CELL 1.54180   50.00000   50.00000   50.00000   90.00000   90.00000   90.00000
LATT -1
SFAC C  
C      1  0.4901700000000  0.4818050000000  0.5585130000000 1.0
C      1  0.4901690000000  0.5181950000000  0.4414840000000 1.0
C      1  0.4901700000000  0.4818050000000  0.4414870000000 1.0
C      1  0.4901700000000  0.5181950000000  0.5585150000000 1.0
C      1  0.4726460000000  0.4840340000000  0.4845930000000 1.0
C      1  0.4726460000000  0.5159660000000  0.5154070000000 1.0
C      1  0.4726460000000  0.4840340000000  0.5154070000000 1.0
C      1  0.4726460000000  0.5159660000000  0.4845930000000 1.0
C      1  0.4689110000000  0.4565340000000  0.4429730000000 1.0
C      1  0.4689130000000  0.5434640000000  0.5570230000000 1.0
C      1  0.4689110000000  0.4565350000000  0.5570260000000 1.0
C      1  0.4689130000000  0.5434640000000  0.4429780000000 1.0
C      1  0.5341790000000  0.5554900000000  0.5153220000000 1.0
C      1  0.5341790000000  0.4445100000000  0.4846780000000 1.0
C      1  0.5341790000000  0.5554900000000  0.4846780000000 1.0
C      1  0.5341790000000  0.4445100000000  0.5153220000000 1.0
C      1  0.4969290000000  0.5264510000000  0.4704260000000 1.0
C      1  0.4969290000000  0.4735490000000  0.5295740000000 1.0
C      1  0.4969290000000  0.5264510000000  0.5295740000000 1.0
C      1  0.4969290000000  0.4735490000000  0.4704260000000 1.0
C      1  0.4607380000000  0.5584720000000  0.4692980000000 1.0
C      1  0.4607390000000  0.4415300000000  0.5307000000000 1.0
C      1  0.4607380000000  0.5584710000000  0.5307010000000 1.0
C      1  0.4607400000000  0.4415300000000  0.4693000000000 1.0
C      1  0.4393310000000  0.4555210000000  0.4851080000000 1.0
C      1  0.4393310000000  0.5444790000000  0.5148920000000 1.0
C      1  0.4393310000000  0.4555210000000  0.5148920000000 1.0
C      1  0.4393310000000  0.5444790000000  0.4851080000000 1.0
C      1  0.5222070000000  0.4847260000000  0.4834590000000 1.0
C      1  0.5222070000000  0.5152740000000  0.5165410000000 1.0
C      1  0.5222070000000  0.4847260000000  0.5165410000000 1.0
C      1  0.5222070000000  0.5152740000000  0.4834590000000 1.0
C      1  0.5057160000000  0.5553040000000  0.5261160000000 1.0
C      1  0.5057160000000  0.4446960000000  0.4738840000000 1.0
C      1  0.5057160000000  0.5553040000000  0.4738840000000 1.0
C      1  0.5057160000000  0.4446960000000  0.5261160000000 1.0
C      1  0.5452200000000  0.4838110000000  0.4426540000000 1.0
C      1  0.5452200000000  0.5161890000000  0.5573460000000 1.0
C      1  0.5452200000000  0.4838110000000  0.5573460000000 1.0
C      1  0.5452200000000  0.5161890000000  0.4426540000000 1.0
C      1  0.5484850000000  0.4715330000000  0.5289370000000 1.0
C      1  0.5484850000000  0.5284670000000  0.4710630000000 1.0
C      1  0.5484850000000  0.4715330000000  0.4710630000000 1.0
C      1  0.5484850000000  0.5284670000000  0.5289370000000 1.0
C      1  0.4833390000000  0.4288080000000  0.5150020000000 1.0
C      1  0.4833390000000  0.5711920000000  0.4849980000000 1.0
C      1  0.4833390000000  0.4288080000000  0.4849980000000 1.0
C      1  0.4833390000000  0.5711920000000  0.5150020000000 1.0
C      1  0.4419670000000  0.4836160000000  0.4721080000000 1.0
C      1  0.4419670000000  0.5163840000000  0.5278920000000 1.0
C      1  0.4419670000000  0.4836160000000  0.5278920000000 1.0
C      1  0.4419670000000  0.5163840000000  0.4721080000000 1.0
C      1  0.5179060000000  0.4832940000000  0.5744490000000 1.0
C      1  0.5179060000000  0.5167060000000  0.4255510000000 1.0
C      1  0.5179060000000  0.4832940000000  0.4255510000000 1.0
C      1  0.5179060000000  0.5167060000000  0.5744490000000 1.0
C      1  0.5722540000000  0.5161290000000  0.5156020000000 1.0
C      1  0.5722540000000  0.4838710000000  0.4843980000000 1.0
C      1  0.5722540000000  0.5161290000000  0.4843980000000 1.0
C      1  0.5722540000000  0.4838710000000  0.5156020000000 1.0
END
