TITL C-3985250-725-449 -0.000218032793221365 125000 -302.866408331319 0 0 60 (C3) n - 1
REM
REM in /home/nfs/bkarasulu/CARBON/AIRSS/Generating-Clusters/TERSOFF/Higher-Symm/Only-C60
REM
REM
REM
REM
REM
REM ./C.cell (28575a23ae977d3b5fae324c64b13b57)
REM
REM compiler GCC version 9.2.1 20190827 (Red Hat 9.2.1-1)
REM options -cpp -mtune=generic -march=x86-64 -g -O0 -fpre-include=/usr/include/finclude/math-vector-fortran.h
REM seed -1175669238 -1177814722 1055156346 -554873251 1998601421 1499562963 1967432068 985797314 -362797205 -1458195890 1347811080 -1668013472 1010347931 -2123782569 1087788342 -466015578 1515862586 -121881713 679959480 -734304473 -1819554335 -1273210195 1898430460 -1821226336 410450994 1742370986 1214765470 2112353361 -361972066 1942281219 1962018866 -1718142291 -1869029653
REM
CELL 1.54180   50.00000   50.00000   50.00000   90.00000   90.00000   90.00000
LATT -1
SFAC C  
C      1  0.5323820000000  0.4528690000000  0.4759220000000 1.0
C      1  0.4430020000000  0.4955230000000  0.4759240000000 1.0
C      1  0.5246310000000  0.5515910000000  0.4759260000000 1.0
C      1  0.5670260000000  0.4820310000000  0.4678160000000 1.0
C      1  0.4509200000000  0.4509370000000  0.4678270000000 1.0
C      1  0.4820460000000  0.5670370000000  0.4678120000000 1.0
C      1  0.5278720000000  0.5093240000000  0.4436180000000 1.0
C      1  0.4941340000000  0.4712060000000  0.4436110000000 1.0
C      1  0.4779980000000  0.5194890000000  0.4436170000000 1.0
C      1  0.5319600000000  0.4584040000000  0.5265950000000 1.0
C      1  0.4479830000000  0.4931070000000  0.5265820000000 1.0
C      1  0.5200360000000  0.5484890000000  0.5265970000000 1.0
C      1  0.5064010000000  0.5303440000000  0.4912890000000 1.0
C      1  0.5230890000000  0.4792730000000  0.4913000000000 1.0
C      1  0.4705280000000  0.4903730000000  0.4912920000000 1.0
C      1  0.5553770000000  0.4837780000000  0.5372010000000 1.0
C      1  0.4582650000000  0.4601440000000  0.5372260000000 1.0
C      1  0.4863310000000  0.5560800000000  0.5372340000000 1.0
C      1  0.4746460000000  0.5369590000000  0.4958470000000 1.0
C      1  0.5446830000000  0.5034490000000  0.4958570000000 1.0
C      1  0.4806550000000  0.4595820000000  0.4958510000000 1.0
C      1  0.5461790000000  0.4415490000000  0.5038180000000 1.0
C      1  0.4262870000000  0.4892620000000  0.5038170000000 1.0
C      1  0.5275290000000  0.5692040000000  0.5038190000000 1.0
C      1  0.5314630000000  0.4780820000000  0.5634540000000 1.0
C      1  0.4653070000000  0.4837120000000  0.5634610000000 1.0
C      1  0.5032480000000  0.5382130000000  0.5634550000000 1.0
C      1  0.5037320000000  0.4728430000000  0.5147690000000 1.0
C      1  0.4746330000000  0.5103490000000  0.5147560000000 1.0
C      1  0.5216390000000  0.5167980000000  0.5147610000000 1.0
C      1  0.4470280000000  0.5417950000000  0.5119160000000 1.0
C      1  0.5626700000000  0.5249930000000  0.5119110000000 1.0
C      1  0.4903000000000  0.4332170000000  0.5119020000000 1.0
C      1  0.5227530000000  0.4804960000000  0.4399690000000 1.0
C      1  0.4717250000000  0.4900510000000  0.4399680000000 1.0
C      1  0.5055190000000  0.5294700000000  0.4399720000000 1.0
C      1  0.4929250000000  0.4823890000000  0.5446610000000 1.0
C      1  0.4882870000000  0.5149430000000  0.5446930000000 1.0
C      1  0.5187990000000  0.5026730000000  0.5446910000000 1.0
C      1  0.4250170000000  0.5250340000000  0.4997470000000 1.0
C      1  0.5591870000000  0.5524260000000  0.4997420000000 1.0
C      1  0.5158190000000  0.4225380000000  0.4997440000000 1.0
C      1  0.4475100000000  0.5121000000000  0.5536630000000 1.0
C      1  0.5367190000000  0.5394130000000  0.5536600000000 1.0
C      1  0.5157610000000  0.4484970000000  0.5536620000000 1.0
C      1  0.4870950000000  0.4410170000000  0.5406090000000 1.0
C      1  0.4553730000000  0.5406670000000  0.5406090000000 1.0
C      1  0.5575360000000  0.5183280000000  0.5406040000000 1.0
C      1  0.4455870000000  0.4586300000000  0.5028350000000 1.0
C      1  0.4913630000000  0.5677840000000  0.5028260000000 1.0
C      1  0.5630550000000  0.4735500000000  0.5028440000000 1.0
C      1  0.4631210000000  0.5373080000000  0.4638570000000 1.0
C      1  0.5507480000000  0.5132750000000  0.4638600000000 1.0
C      1  0.4861350000000  0.4494060000000  0.4638560000000 1.0
C      1  0.4462040000000  0.4779540000000  0.4524420000000 1.0
C      1  0.5077880000000  0.5576120000000  0.4524340000000 1.0
C      1  0.5459840000000  0.4644340000000  0.4524420000000 1.0
C      1  0.4357320000000  0.5249660000000  0.4699460000000 1.0
C      1  0.5537560000000  0.5431830000000  0.4699390000000 1.0
C      1  0.5105210000000  0.4318490000000  0.4699410000000 1.0
END
