TITL C-3985250-725-735 1.88028603318997e-07 125000 -304.830715875467 0 0 60 (C3) n - 1
REM
REM in /home/nfs/bkarasulu/CARBON/AIRSS/Generating-Clusters/TERSOFF/Higher-Symm/Only-C60
REM
REM
REM
REM
REM
REM ./C.cell (28575a23ae977d3b5fae324c64b13b57)
REM
REM compiler GCC version 9.2.1 20190827 (Red Hat 9.2.1-1)
REM options -cpp -mtune=generic -march=x86-64 -g -O0 -fpre-include=/usr/include/finclude/math-vector-fortran.h
REM seed -2143316414 -1501044463 46910251 -1319826014 -920641067 1286353617 855105071 1001231055 -1478863806 -188872731 1710709078 -1478938943 -1502934519 739701494 -180345406 2051147097 -1895496393 1343672912 -593132353 859800609 -1969014699 1215994958 1762117819 1392120783 707294219 1401843853 -118725222 1492975499 -402369658 1464830466 -964584603 -1598015492 -1322892185
REM
CELL 1.54180   50.00000   50.00000   50.00000   90.00000   90.00000   90.00000
LATT -1
SFAC C  
C      1  0.5332690000000  0.5328270000000  0.4529760000000 1.0
C      1  0.5332640000000  0.4428600000000  0.4950850000000 1.0
C      1  0.5332640000000  0.5243100000000  0.5519440000000 1.0
C      1  0.5064900000000  0.4642830000000  0.4566200000000 1.0
C      1  0.5064870000000  0.4802890000000  0.5526220000000 1.0
C      1  0.5064920000000  0.5554270000000  0.4907590000000 1.0
C      1  0.4569630000000  0.5620170000000  0.4922180000000 1.0
C      1  0.4569620000000  0.4622560000000  0.4501810000000 1.0
C      1  0.4569570000000  0.4757310000000  0.5575950000000 1.0
C      1  0.4961260000000  0.4412050000000  0.5400030000000 1.0
C      1  0.4961300000000  0.5640410000000  0.5309170000000 1.0
C      1  0.4961320000000  0.4947540000000  0.4290800000000 1.0
C      1  0.4676420000000  0.4534640000000  0.5336690000000 1.0
C      1  0.4676450000000  0.5524280000000  0.5234660000000 1.0
C      1  0.4676470000000  0.4941100000000  0.4428620000000 1.0
C      1  0.4820180000000  0.4474600000000  0.4556240000000 1.0
C      1  0.4820150000000  0.4878400000000  0.5676880000000 1.0
C      1  0.4820210000000  0.5647010000000  0.4766860000000 1.0
C      1  0.5700930000000  0.4870560000000  0.4709440000000 1.0
C      1  0.5700900000000  0.4813030000000  0.5257400000000 1.0
C      1  0.5700930000000  0.5316340000000  0.5033250000000 1.0
C      1  0.5066490000000  0.4944430000000  0.4728540000000 1.0
C      1  0.5066470000000  0.4792690000000  0.5183850000000 1.0
C      1  0.5066490000000  0.5262870000000  0.5087620000000 1.0
C      1  0.4555670000000  0.5272310000000  0.4503850000000 1.0
C      1  0.4555630000000  0.4434210000000  0.5012230000000 1.0
C      1  0.4555630000000  0.5293530000000  0.5483860000000 1.0
C      1  0.5693670000000  0.4709040000000  0.4971340000000 1.0
C      1  0.5693670000000  0.5120600000000  0.5266330000000 1.0
C      1  0.5693700000000  0.5170290000000  0.4762410000000 1.0
C      1  0.5246280000000  0.4518010000000  0.5277230000000 1.0
C      1  0.5246310000000  0.5481060000000  0.5278810000000 1.0
C      1  0.5246340000000  0.5000900000000  0.4444000000000 1.0
C      1  0.5364150000000  0.4789060000000  0.4981100000000 1.0
C      1  0.5364150000000  0.5089080000000  0.5192150000000 1.0
C      1  0.5364160000000  0.5121830000000  0.4826800000000 1.0
C      1  0.5067790000000  0.5412320000000  0.4400600000000 1.0
C      1  0.5067730000000  0.4274740000000  0.4942620000000 1.0
C      1  0.5067730000000  0.5312940000000  0.5656790000000 1.0
C      1  0.4828470000000  0.5166900000000  0.5584330000000 1.0
C      1  0.4828530000000  0.5422600000000  0.4563290000000 1.0
C      1  0.4828480000000  0.4410510000000  0.4852360000000 1.0
C      1  0.4845290000000  0.5207840000000  0.4804290000000 1.0
C      1  0.4845270000000  0.4726600000000  0.4917850000000 1.0
C      1  0.4845270000000  0.5065570000000  0.5277840000000 1.0
C      1  0.4648420000000  0.5238850000000  0.5077960000000 1.0
C      1  0.4648420000000  0.4948120000000  0.4754160000000 1.0
C      1  0.4648400000000  0.4813060000000  0.5167830000000 1.0
C      1  0.5334770000000  0.5559590000000  0.4774420000000 1.0
C      1  0.5334740000000  0.4524820000000  0.4628190000000 1.0
C      1  0.5334710000000  0.4915560000000  0.5597440000000 1.0
C      1  0.4409940000000  0.4602970000000  0.4771540000000 1.0
C      1  0.4409920000000  0.5000710000000  0.5458050000000 1.0
C      1  0.4409960000000  0.5396380000000  0.4770340000000 1.0
C      1  0.4335730000000  0.4909120000000  0.5172770000000 1.0
C      1  0.4335750000000  0.5195120000000  0.4992300000000 1.0
C      1  0.4335750000000  0.4895830000000  0.4834840000000 1.0
C      1  0.5477350000000  0.4704210000000  0.5425210000000 1.0
C      1  0.5477390000000  0.5516100000000  0.5043580000000 1.0
C      1  0.5477390000000  0.4779650000000  0.4531280000000 1.0
END
