TITL C-3985253-1688-596 2.66082298276712e-06 125000 -288.439814967173 0 0 60 (C1) n - 1
REM
REM in /home/nfs/bkarasulu/CARBON/AIRSS/Generating-Clusters/TERSOFF/Higher-Symm/Only-C60
REM
REM
REM
REM
REM
REM ./C.cell (28575a23ae977d3b5fae324c64b13b57)
REM
REM compiler GCC version 9.2.1 20190827 (Red Hat 9.2.1-1)
REM options -cpp -mtune=generic -march=x86-64 -g -O0 -fpre-include=/usr/include/finclude/math-vector-fortran.h
REM seed -607159734 -2059094958 63078264 1461604824 -39726573 2067686195 -1408024607 546373829 48205932 -1337444610 -1191328307 -1951984532 160058485 2033884298 622283269 -6298983 -1640933991 1275094177 1218245970 519590543 -373708991 -1431222596 -1751165598 1604749721 -699694836 -1904369265 2110010898 1484540504 1578921806 -790710714 2134564554 -1878371837 418771930
REM
CELL 1.54180   50.00000   50.00000   50.00000   90.00000   90.00000   90.00000
LATT -1
SFAC C  
C      1  0.4942910000000  0.5384060000000  0.5801720000000 1.0
C      1  0.4644300000000  0.5182860000000  0.5807270000000 1.0
C      1  0.4627860000000  0.4821960000000  0.5812880000000 1.0
C      1  0.4908140000000  0.4594470000000  0.5805000000000 1.0
C      1  0.5261830000000  0.4666740000000  0.5798360000000 1.0
C      1  0.5442550000000  0.4979830000000  0.5783840000000 1.0
C      1  0.5295410000000  0.5300920000000  0.5789200000000 1.0
C      1  0.5197720000000  0.4606520000000  0.4731140000000 1.0
C      1  0.5414800000000  0.4816720000000  0.4732020000000 1.0
C      1  0.5305540000000  0.5090480000000  0.4708840000000 1.0
C      1  0.4987370000000  0.5732310000000  0.4867610000000 1.0
C      1  0.4621180000000  0.5294620000000  0.4761710000000 1.0
C      1  0.4619500000000  0.4939940000000  0.4781210000000 1.0
C      1  0.4855530000000  0.4679990000000  0.4789770000000 1.0
C      1  0.4402770000000  0.4989810000000  0.5019850000000 1.0
C      1  0.4684210000000  0.4543740000000  0.5003670000000 1.0
C      1  0.5130850000000  0.4445610000000  0.5003120000000 1.0
C      1  0.5520070000000  0.4733370000000  0.5011950000000 1.0
C      1  0.5466080000000  0.5188790000000  0.4951570000000 1.0
C      1  0.5190640000000  0.5617160000000  0.5054650000000 1.0
C      1  0.4648930000000  0.5455670000000  0.5011650000000 1.0
C      1  0.5348060000000  0.4809480000000  0.5251460000000 1.0
C      1  0.5359670000000  0.5149380000000  0.5227870000000 1.0
C      1  0.5114890000000  0.5387080000000  0.5251530000000 1.0
C      1  0.4761460000000  0.5325140000000  0.5248930000000 1.0
C      1  0.4590240000000  0.5008850000000  0.5269870000000 1.0
C      1  0.4734780000000  0.4694320000000  0.5267280000000 1.0
C      1  0.5075540000000  0.4610470000000  0.5251000000000 1.0
C      1  0.4272070000000  0.5064620000000  0.4519620000000 1.0
C      1  0.4460110000000  0.4553040000000  0.4549370000000 1.0
C      1  0.4956640000000  0.4306310000000  0.4563890000000 1.0
C      1  0.5565030000000  0.4445220000000  0.4607020000000 1.0
C      1  0.5695560000000  0.5076220000000  0.4553720000000 1.0
C      1  0.5337220000000  0.5520990000000  0.4574880000000 1.0
C      1  0.4593680000000  0.5724740000000  0.4649520000000 1.0
C      1  0.5425800000000  0.5248100000000  0.4470210000000 1.0
C      1  0.5033140000000  0.5613130000000  0.4586960000000 1.0
C      1  0.4744680000000  0.5474860000000  0.4522310000000 1.0
C      1  0.4498460000000  0.4867790000000  0.4481140000000 1.0
C      1  0.4779660000000  0.4556500000000  0.4487940000000 1.0
C      1  0.5263550000000  0.4373340000000  0.4503420000000 1.0
C      1  0.5648120000000  0.4753380000000  0.4508380000000 1.0
C      1  0.5463390000000  0.4753620000000  0.5522190000000 1.0
C      1  0.5490380000000  0.5201070000000  0.5502180000000 1.0
C      1  0.5146280000000  0.5485100000000  0.5535980000000 1.0
C      1  0.4702540000000  0.5414260000000  0.5537350000000 1.0
C      1  0.4480090000000  0.5012800000000  0.5550160000000 1.0
C      1  0.4667990000000  0.4593710000000  0.5543860000000 1.0
C      1  0.5106600000000  0.4490690000000  0.5529410000000 1.0
C      1  0.4434400000000  0.4489540000000  0.4844820000000 1.0
C      1  0.4947550000000  0.4249010000000  0.4861790000000 1.0
C      1  0.5594620000000  0.4456470000000  0.4909670000000 1.0
C      1  0.5747330000000  0.5153850000000  0.4848360000000 1.0
C      1  0.5417870000000  0.5594190000000  0.4857700000000 1.0
C      1  0.4696260000000  0.5746260000000  0.4942300000000 1.0
C      1  0.4300410000000  0.5212370000000  0.4777240000000 1.0
C      1  0.4857430000000  0.4908700000000  0.4439570000000 1.0
C      1  0.5017110000000  0.5061310000000  0.4724370000000 1.0
C      1  0.4996870000000  0.5003070000000  0.5373170000000 1.0
C      1  0.4940900000000  0.5004690000000  0.5041770000000 1.0
END
