TITL C-3985247-764-628 -1.09762341957548e-06 125000 -291.437082839754 0 0 60 (C5) n - 1
REM
REM in /home/nfs/bkarasulu/CARBON/AIRSS/Generating-Clusters/TERSOFF/Higher-Symm/Only-C60
REM
REM
REM
REM
REM
REM ./C.cell (28575a23ae977d3b5fae324c64b13b57)
REM
REM compiler GCC version 9.2.1 20190827 (Red Hat 9.2.1-1)
REM options -cpp -mtune=generic -march=x86-64 -g -O0 -fpre-include=/usr/include/finclude/math-vector-fortran.h
REM seed -1148744277 1908066498 -280414328 1401822181 -2064974251 741401330 69322484 -648699917 895764388 589411940 -589512746 -1243761764 -1881007717 -85394368 2041348819 -273332002 -1386390586 -860042853 1959368701 -1988766246 1306620711 1531257608 -1832295437 418029811 -1523730387 -175618007 -554798350 -782078633 -983826283 486391228 -1452186768 -2039724552 1669703369
REM
CELL 1.54180   50.00000   50.00000   50.00000   90.00000   90.00000   90.00000
LATT -1
SFAC C  
C      1  0.4642130000000  0.4503160000000  0.4456440000000 1.0
C      1  0.4416890000000  0.5186820000000  0.4456440000000 1.0
C      1  0.4997490000000  0.5612300000000  0.4456440000000 1.0
C      1  0.5581550000000  0.5191600000000  0.4456440000000 1.0
C      1  0.5361930000000  0.4506120000000  0.4456440000000 1.0
C      1  0.4642130000000  0.4503160000000  0.5543560000000 1.0
C      1  0.4416890000000  0.5186820000000  0.5543560000000 1.0
C      1  0.4997490000000  0.5612300000000  0.5543560000000 1.0
C      1  0.5581550000000  0.5191600000000  0.5543560000000 1.0
C      1  0.5361930000000  0.4506120000000  0.5543560000000 1.0
C      1  0.5319720000000  0.5510430000000  0.5180410000000 1.0
C      1  0.5584250000000  0.4853660000000  0.5180410000000 1.0
C      1  0.5041370000000  0.4399130000000  0.5180410000000 1.0
C      1  0.4441320000000  0.4774980000000  0.5180410000000 1.0
C      1  0.4613350000000  0.5461800000000  0.5180410000000 1.0
C      1  0.5319720000000  0.5510430000000  0.4819590000000 1.0
C      1  0.5584250000000  0.4853660000000  0.4819590000000 1.0
C      1  0.5041370000000  0.4399130000000  0.4819590000000 1.0
C      1  0.4441320000000  0.4774980000000  0.4819590000000 1.0
C      1  0.4613350000000  0.5461800000000  0.4819590000000 1.0
C      1  0.4748060000000  0.4898160000000  0.5160870000000 1.0
C      1  0.4825290000000  0.5208140000000  0.5160870000000 1.0
C      1  0.5143960000000  0.5230480000000  0.5160870000000 1.0
C      1  0.5263680000000  0.4934310000000  0.5160870000000 1.0
C      1  0.5019010000000  0.4728920000000  0.5160870000000 1.0
C      1  0.4748060000000  0.4898160000000  0.4839130000000 1.0
C      1  0.4825290000000  0.5208140000000  0.4839130000000 1.0
C      1  0.5143960000000  0.5230480000000  0.4839130000000 1.0
C      1  0.5263680000000  0.4934310000000  0.4839130000000 1.0
C      1  0.5019010000000  0.4728920000000  0.4839130000000 1.0
C      1  0.4757470000000  0.4811060000000  0.5661150000000 1.0
C      1  0.4745360000000  0.5172280000000  0.5661150000000 1.0
C      1  0.5085160000000  0.5295410000000  0.5661150000000 1.0
C      1  0.5307270000000  0.5010300000000  0.5661150000000 1.0
C      1  0.5104750000000  0.4710950000000  0.5661150000000 1.0
C      1  0.4757470000000  0.4811060000000  0.4338850000000 1.0
C      1  0.4745360000000  0.5172280000000  0.4338850000000 1.0
C      1  0.5085160000000  0.5295410000000  0.4338850000000 1.0
C      1  0.5307270000000  0.5010300000000  0.4338850000000 1.0
C      1  0.5104750000000  0.4710950000000  0.4338850000000 1.0
C      1  0.5153430000000  0.5716910000000  0.5324560000000 1.0
C      1  0.5729240000000  0.5075620000000  0.5324560000000 1.0
C      1  0.5297260000000  0.4329820000000  0.5324560000000 1.0
C      1  0.4454480000000  0.4510190000000  0.5324560000000 1.0
C      1  0.4365590000000  0.5367460000000  0.5324560000000 1.0
C      1  0.5153430000000  0.5716910000000  0.4675440000000 1.0
C      1  0.5729240000000  0.5075620000000  0.4675440000000 1.0
C      1  0.5297260000000  0.4329820000000  0.4675440000000 1.0
C      1  0.4454480000000  0.4510190000000  0.4675440000000 1.0
C      1  0.4365590000000  0.5367460000000  0.4675440000000 1.0
C      1  0.4481240000000  0.4897510000000  0.4515240000000 1.0
C      1  0.4742220000000  0.5461700000000  0.4515240000000 1.0
C      1  0.5359440000000  0.5387840000000  0.4515240000000 1.0
C      1  0.5479930000000  0.4778000000000  0.4515240000000 1.0
C      1  0.4937170000000  0.4474960000000  0.4515240000000 1.0
C      1  0.4481240000000  0.4897510000000  0.5484760000000 1.0
C      1  0.4742220000000  0.5461700000000  0.5484760000000 1.0
C      1  0.5359440000000  0.5387840000000  0.5484760000000 1.0
C      1  0.5479930000000  0.4778000000000  0.5484760000000 1.0
C      1  0.4937170000000  0.4474960000000  0.5484760000000 1.0
END
