TITL C-3985254-1270-1155 -0.000637568504773822 125000 -313.630109167027 0 0 60 (C1) n - 1
REM
REM in /home/nfs/bkarasulu/CARBON/AIRSS/Generating-Clusters/TERSOFF/Higher-Symm/Only-C60
REM
REM
REM
REM
REM
REM ./C.cell (28575a23ae977d3b5fae324c64b13b57)
REM
REM compiler GCC version 9.2.1 20190827 (Red Hat 9.2.1-1)
REM options -cpp -mtune=generic -march=x86-64 -g -O0 -fpre-include=/usr/include/finclude/math-vector-fortran.h
REM seed 1463668111 355168592 472115447 -389613185 1722016896 -1212783264 -961464518 -516241748 1074204729 -804420616 595699864 -303657187 1246395655 2031322883 196803881 -1235495600 1530277255 -1556746678 -693000739 1547789938 909608930 10628931 936648850 395526207 880522384 -335939737 821612084 -1931041533 -683102511 583588199 84270892 -1736710771 1088564144
REM
CELL 1.54180   50.00000   50.00000   50.00000   90.00000   90.00000   90.00000
LATT -1
SFAC C  
C      1  0.5651390000000  0.4566690000000  0.4670890000000 1.0
C      1  0.5054510000000  0.5786740000000  0.4672330000000 1.0
C      1  0.4281190000000  0.4655780000000  0.4670750000000 1.0
C      1  0.5422420000000  0.4601340000000  0.4495290000000 1.0
C      1  0.5138140000000  0.5566470000000  0.4502110000000 1.0
C      1  0.4432410000000  0.4836540000000  0.4499100000000 1.0
C      1  0.4901840000000  0.5271060000000  0.4984400000000 1.0
C      1  0.4790650000000  0.4770830000000  0.4962980000000 1.0
C      1  0.5268670000000  0.4929530000000  0.5017070000000 1.0
C      1  0.5026040000000  0.4602440000000  0.5489990000000 1.0
C      1  0.5458860000000  0.5230200000000  0.5495960000000 1.0
C      1  0.4608430000000  0.5280340000000  0.5498680000000 1.0
C      1  0.4460480000000  0.4560300000000  0.5306550000000 1.0
C      1  0.5584260000000  0.4735970000000  0.5313950000000 1.0
C      1  0.4919530000000  0.5664630000000  0.5314840000000 1.0
C      1  0.5084070000000  0.4714040000000  0.4894370000000 1.0
C      1  0.5190670000000  0.5206110000000  0.4899090000000 1.0
C      1  0.4712170000000  0.5058870000000  0.4881270000000 1.0
C      1  0.4783650000000  0.4302080000000  0.5120470000000 1.0
C      1  0.5754730000000  0.5122450000000  0.5133300000000 1.0
C      1  0.4514350000000  0.5582940000000  0.5129280000000 1.0
C      1  0.5114370000000  0.4413200000000  0.4515460000000 1.0
C      1  0.5449100000000  0.5387290000000  0.4536060000000 1.0
C      1  0.4431400000000  0.5197000000000  0.4523600000000 1.0
C      1  0.5683520000000  0.5043460000000  0.5407260000000 1.0
C      1  0.4619310000000  0.5570940000000  0.5408490000000 1.0
C      1  0.4760030000000  0.4410740000000  0.5398870000000 1.0
C      1  0.5238700000000  0.5719310000000  0.5048950000000 1.0
C      1  0.4265360000000  0.4838450000000  0.5061510000000 1.0
C      1  0.5509750000000  0.4426520000000  0.5040600000000 1.0
C      1  0.4810070000000  0.4360550000000  0.4623070000000 1.0
C      1  0.5638990000000  0.5149200000000  0.4648210000000 1.0
C      1  0.4545100000000  0.5483670000000  0.4635660000000 1.0
C      1  0.4381640000000  0.4550120000000  0.4947720000000 1.0
C      1  0.5672190000000  0.4688470000000  0.4958440000000 1.0
C      1  0.4929230000000  0.5750720000000  0.4955560000000 1.0
C      1  0.5028500000000  0.4716750000000  0.4580700000000 1.0
C      1  0.5223360000000  0.5165320000000  0.4589800000000 1.0
C      1  0.4736790000000  0.5114680000000  0.4575490000000 1.0
C      1  0.4440990000000  0.5097000000000  0.5010100000000 1.0
C      1  0.5192510000000  0.4451340000000  0.5003920000000 1.0
C      1  0.5365840000000  0.5431290000000  0.5008770000000 1.0
C      1  0.4839780000000  0.4856870000000  0.5449800000000 1.0
C      1  0.5219810000000  0.5062570000000  0.5517240000000 1.0
C      1  0.4916360000000  0.5152410000000  0.5506820000000 1.0
C      1  0.5242260000000  0.5721440000000  0.5387830000000 1.0
C      1  0.4279460000000  0.4834570000000  0.5401260000000 1.0
C      1  0.5519010000000  0.4408790000000  0.5370120000000 1.0
C      1  0.4698910000000  0.5520900000000  0.4896900000000 1.0
C      1  0.4698280000000  0.4468000000000  0.4884000000000 1.0
C      1  0.5597150000000  0.5002060000000  0.4910490000000 1.0
C      1  0.5427130000000  0.5462990000000  0.5322700000000 1.0
C      1  0.4414920000000  0.5123430000000  0.5331010000000 1.0
C      1  0.5199110000000  0.4408840000000  0.5321860000000 1.0
C      1  0.4667400000000  0.4786050000000  0.5235710000000 1.0
C      1  0.5265800000000  0.4826030000000  0.5341080000000 1.0
C      1  0.4950340000000  0.5354960000000  0.5267010000000 1.0
C      1  0.4963460000000  0.5293240000000  0.4475150000000 1.0
C      1  0.4758970000000  0.4820840000000  0.4472710000000 1.0
C      1  0.5266640000000  0.4884640000000  0.4477390000000 1.0
END
