TITL C-3985255-5397-5 -1.39925598045126e-07 125000 -309.841517673226 0 0 60 (S4) n - 1
REM
REM in /home/nfs/bkarasulu/CARBON/AIRSS/Generating-Clusters/TERSOFF/Higher-Symm/Only-C60
REM
REM
REM
REM
REM
REM ./C.cell (28575a23ae977d3b5fae324c64b13b57)
REM
REM compiler GCC version 9.2.1 20190827 (Red Hat 9.2.1-1)
REM options -cpp -mtune=generic -march=x86-64 -g -O0 -fpre-include=/usr/include/finclude/math-vector-fortran.h
REM seed -1087087588 -778880598 -84617605 12103058 -461434328 1925375242 -1645615002 1711575593 748030268 1622739897 -1171505705 -1140268259 1486404880 -1068409936 -119752674 -1838392743 -1615201945 -2082806354 703887228 6775240 -1066595400 -576051542 -1966948036 1645003425 -83677919 489838318 744628714 698663228 326226893 84046681 -797080139 739117520 -838570870
REM
CELL 1.54180   50.00000   50.00000   50.00000   90.00000   90.00000   90.00000
LATT -1
SFAC C  
C      1  0.4764690000000  0.4873280000000  0.5019110000000 1.0
C      1  0.5019110000000  0.5126720000000  0.5235310000000 1.0
C      1  0.5235310000000  0.4873280000000  0.4980890000000 1.0
C      1  0.4980890000000  0.5126720000000  0.4764690000000 1.0
C      1  0.4399610000000  0.5076690000000  0.4998710000000 1.0
C      1  0.4998710000000  0.4923310000000  0.5600390000000 1.0
C      1  0.5600390000000  0.5076690000000  0.5001290000000 1.0
C      1  0.5001290000000  0.4923310000000  0.4399610000000 1.0
C      1  0.5093180000000  0.5506490000000  0.5518010000000 1.0
C      1  0.5518010000000  0.4493510000000  0.4906820000000 1.0
C      1  0.4906820000000  0.5506490000000  0.4481990000000 1.0
C      1  0.4481990000000  0.4493510000000  0.5093180000000 1.0
C      1  0.5297940000000  0.5222230000000  0.5059970000000 1.0
C      1  0.5059970000000  0.4777770000000  0.4702060000000 1.0
C      1  0.4702060000000  0.5222230000000  0.4940030000000 1.0
C      1  0.4940030000000  0.4777770000000  0.5297940000000 1.0
C      1  0.4792950000000  0.5422430000000  0.5490950000000 1.0
C      1  0.5490950000000  0.4577570000000  0.5207050000000 1.0
C      1  0.5207050000000  0.5422430000000  0.4509050000000 1.0
C      1  0.4509050000000  0.4577570000000  0.4792950000000 1.0
C      1  0.4709890000000  0.5628660000000  0.5205090000000 1.0
C      1  0.5205090000000  0.4371340000000  0.5290110000000 1.0
C      1  0.5290110000000  0.5628660000000  0.4794910000000 1.0
C      1  0.4794910000000  0.4371340000000  0.4709890000000 1.0
C      1  0.4609430000000  0.4629240000000  0.5565540000000 1.0
C      1  0.5565540000000  0.5370760000000  0.5390570000000 1.0
C      1  0.5390570000000  0.4629240000000  0.4434460000000 1.0
C      1  0.4434460000000  0.5370760000000  0.4609430000000 1.0
C      1  0.5597430000000  0.5046420000000  0.5444230000000 1.0
C      1  0.5444230000000  0.4953580000000  0.4402570000000 1.0
C      1  0.4402570000000  0.5046420000000  0.4555770000000 1.0
C      1  0.4555770000000  0.4953580000000  0.5597430000000 1.0
C      1  0.5033380000000  0.5786340000000  0.4857250000000 1.0
C      1  0.4857250000000  0.4213660000000  0.4966620000000 1.0
C      1  0.4966620000000  0.5786340000000  0.5142750000000 1.0
C      1  0.5142750000000  0.4213660000000  0.5033380000000 1.0
C      1  0.5296010000000  0.4326270000000  0.4814850000000 1.0
C      1  0.4814850000000  0.5673730000000  0.4703990000000 1.0
C      1  0.4703990000000  0.4326270000000  0.5185150000000 1.0
C      1  0.5185150000000  0.5673730000000  0.5296010000000 1.0
C      1  0.4784830000000  0.5129330000000  0.5662820000000 1.0
C      1  0.5662820000000  0.4870670000000  0.5215170000000 1.0
C      1  0.5215170000000  0.5129330000000  0.4337180000000 1.0
C      1  0.4337180000000  0.4870670000000  0.4784830000000 1.0
C      1  0.4599330000000  0.5525850000000  0.4878100000000 1.0
C      1  0.4878100000000  0.4474150000000  0.5400670000000 1.0
C      1  0.5400670000000  0.5525850000000  0.5121900000000 1.0
C      1  0.5121900000000  0.4474150000000  0.4599330000000 1.0
C      1  0.4413560000000  0.5005370000000  0.5305910000000 1.0
C      1  0.5305910000000  0.4994630000000  0.5586440000000 1.0
C      1  0.5586440000000  0.5005370000000  0.4694090000000 1.0
C      1  0.4694090000000  0.4994630000000  0.4413560000000 1.0
C      1  0.5294090000000  0.5212390000000  0.4740870000000 1.0
C      1  0.4740870000000  0.4787610000000  0.4705910000000 1.0
C      1  0.4705910000000  0.5212390000000  0.5259130000000 1.0
C      1  0.5259130000000  0.4787610000000  0.5294090000000 1.0
C      1  0.4410500000000  0.4678700000000  0.5315490000000 1.0
C      1  0.5315490000000  0.5321300000000  0.5589500000000 1.0
C      1  0.5589500000000  0.4678700000000  0.4684510000000 1.0
C      1  0.4684510000000  0.5321300000000  0.4410500000000 1.0
END
