TITL C-3985250-725-50 0.000362905480318319 125000 -333.262923861444 0 0 60 (S4) n - 1
REM
REM in /home/nfs/bkarasulu/CARBON/AIRSS/Generating-Clusters/TERSOFF/Higher-Symm/Only-C60
REM
REM
REM
REM
REM
REM ./C.cell (28575a23ae977d3b5fae324c64b13b57)
REM
REM compiler GCC version 9.2.1 20190827 (Red Hat 9.2.1-1)
REM options -cpp -mtune=generic -march=x86-64 -g -O0 -fpre-include=/usr/include/finclude/math-vector-fortran.h
REM seed -353503212 919286445 -634714355 -1510911833 -1950478699 1956769819 -1736735352 -1212389689 1741218809 676734584 1683384364 1669765488 1345807013 146600293 -330875118 -1549031710 524077248 37244640 1082640256 -1512444916 -640738177 2019798793 1039951725 -1873509716 1379201745 1337760452 -1004682909 819608967 -1050943626 -928927525 1293411654 -1001416289 -546095100
REM
CELL 1.54180   50.00000   50.00000   50.00000   90.00000   90.00000   90.00000
LATT -1
SFAC C  
C      1  0.4380450000000  0.4975020000000  0.5368460000000 1.0
C      1  0.4975020000000  0.5619550000000  0.4631540000000 1.0
C      1  0.5619550000000  0.5024980000000  0.5368460000000 1.0
C      1  0.5024980000000  0.4380450000000  0.4631540000000 1.0
C      1  0.5148900000000  0.5278690000000  0.5683700000000 1.0
C      1  0.5278690000000  0.4851100000000  0.4316300000000 1.0
C      1  0.4851100000000  0.4721310000000  0.5683700000000 1.0
C      1  0.4721310000000  0.5148900000000  0.4316300000000 1.0
C      1  0.4940520000000  0.5246730000000  0.5018620000000 1.0
C      1  0.5246720000000  0.5059480000000  0.4981390000000 1.0
C      1  0.5059480000000  0.4753260000000  0.5018630000000 1.0
C      1  0.4753280000000  0.4940520000000  0.4981390000000 1.0
C      1  0.4603340000000  0.5398920000000  0.5340710000000 1.0
C      1  0.5398920000000  0.5396650000000  0.4659290000000 1.0
C      1  0.5396660000000  0.4601080000000  0.5340710000000 1.0
C      1  0.4601080000000  0.4603350000000  0.4659290000000 1.0
C      1  0.5119070000000  0.4517460000000  0.5284990000000 1.0
C      1  0.4517440000000  0.4880930000000  0.4714990000000 1.0
C      1  0.4880930000000  0.5482550000000  0.5285000000000 1.0
C      1  0.5482560000000  0.5119070000000  0.4714990000000 1.0
C      1  0.4515850000000  0.4985330000000  0.4416860000000 1.0
C      1  0.4985330000000  0.5484150000000  0.5583140000000 1.0
C      1  0.5484150000000  0.5014670000000  0.4416860000000 1.0
C      1  0.5014670000000  0.4515850000000  0.5583140000000 1.0
C      1  0.4595710000000  0.4509500000000  0.5180080000000 1.0
C      1  0.4509500000000  0.5404290000000  0.4819920000000 1.0
C      1  0.5404290000000  0.5490500000000  0.5180080000000 1.0
C      1  0.5490500000000  0.4595710000000  0.4819920000000 1.0
C      1  0.4411080000000  0.5382390000000  0.5111800000000 1.0
C      1  0.5382390000000  0.5588920000000  0.4888200000000 1.0
C      1  0.5588920000000  0.4617610000000  0.5111800000000 1.0
C      1  0.4617610000000  0.4411080000000  0.4888200000000 1.0
C      1  0.4981070000000  0.4087010000000  0.5032010000000 1.0
C      1  0.4087010000000  0.5018930000000  0.4967990000000 1.0
C      1  0.5018930000000  0.5912990000000  0.5032010000000 1.0
C      1  0.5912990000000  0.4981070000000  0.4967990000000 1.0
C      1  0.4843730000000  0.4946780000000  0.5497960000000 1.0
C      1  0.4946780000000  0.5156270000000  0.4502040000000 1.0
C      1  0.5156270000000  0.5053220000000  0.5497960000000 1.0
C      1  0.5053220000000  0.4843730000000  0.4502040000000 1.0
C      1  0.4632480000000  0.4811580000000  0.5237510000000 1.0
C      1  0.4811580000000  0.5367520000000  0.4762480000000 1.0
C      1  0.5367520000000  0.5188420000000  0.5237520000000 1.0
C      1  0.5188420000000  0.4632480000000  0.4762480000000 1.0
C      1  0.4849680000000  0.4591220000000  0.4487650000000 1.0
C      1  0.4591220000000  0.5150320000000  0.5512350000000 1.0
C      1  0.5150320000000  0.5408780000000  0.4487650000000 1.0
C      1  0.5408780000000  0.4849680000000  0.5512350000000 1.0
C      1  0.5683160000000  0.4715890000000  0.4634800000000 1.0
C      1  0.4715890000000  0.4316840000000  0.5365200000000 1.0
C      1  0.4316840000000  0.5284110000000  0.4634800000000 1.0
C      1  0.5284110000000  0.5683160000000  0.5365200000000 1.0
C      1  0.5012770000000  0.5776280000000  0.5282890000000 1.0
C      1  0.5776280000000  0.4987230000000  0.4717110000000 1.0
C      1  0.4987230000000  0.4223720000000  0.5282900000000 1.0
C      1  0.4223720000000  0.5012770000000  0.4717110000000 1.0
C      1  0.5773200000000  0.4853350000000  0.5182470000000 1.0
C      1  0.4853350000000  0.4226800000000  0.4817530000000 1.0
C      1  0.4226800000000  0.5146650000000  0.5182470000000 1.0
C      1  0.5146650000000  0.5773200000000  0.4817530000000 1.0
END
