TITL C-3985253-1688-965 4.24894399290764e-06 125000 -282.135007831412 0 0 60 (D2h) n - 1
REM
REM in /home/nfs/bkarasulu/CARBON/AIRSS/Generating-Clusters/TERSOFF/Higher-Symm/Only-C60
REM
REM
REM
REM
REM
REM ./C.cell (28575a23ae977d3b5fae324c64b13b57)
REM
REM compiler GCC version 9.2.1 20190827 (Red Hat 9.2.1-1)
REM options -cpp -mtune=generic -march=x86-64 -g -O0 -fpre-include=/usr/include/finclude/math-vector-fortran.h
REM seed 83136653 1205977613 2103261804 1388709113 -828983797 -258543332 -1059855992 1837223017 666751569 973454722 -700137650 1307980316 -1526170559 -1173238867 -1957541967 -744134588 -1875784481 1123742060 -1435772728 1274987737 1996585098 -1956895713 -1632097830 -584609323 1399553307 1070798677 -1178832395 -878927245 -1784878071 -2140757352 381452189 466778096 -137859600
REM
CELL 1.54180   50.00000   50.00000   50.00000   90.00000   90.00000   90.00000
LATT -1
SFAC C  
C      1  0.5483530000000  0.5280240000000  0.4470160000000 1.0
C      1  0.5483530000000  0.4719760000000  0.5529840000000 1.0
C      1  0.4538970000000  0.5280240000000  0.4470150000000 1.0
C      1  0.4538970000000  0.4719760000000  0.5529850000000 1.0
C      1  0.5483530000000  0.4719760000000  0.4470160000000 1.0
C      1  0.5483530000000  0.5280240000000  0.5529840000000 1.0
C      1  0.4538970000000  0.4719760000000  0.4470150000000 1.0
C      1  0.4538970000000  0.5280240000000  0.5529850000000 1.0
C      1  0.4841340000000  0.5270960000000  0.5239210000000 1.0
C      1  0.4841340000000  0.4729040000000  0.4760790000000 1.0
C      1  0.5181150000000  0.5270970000000  0.5239210000000 1.0
C      1  0.5181150000000  0.4729030000000  0.4760790000000 1.0
C      1  0.4841340000000  0.4729040000000  0.5239210000000 1.0
C      1  0.4841340000000  0.5270960000000  0.4760790000000 1.0
C      1  0.5181150000000  0.4729030000000  0.5239210000000 1.0
C      1  0.5181150000000  0.5270970000000  0.4760790000000 1.0
C      1  0.4831060000000  0.4559300000000  0.4458890000000 1.0
C      1  0.4831060000000  0.5440700000000  0.5541110000000 1.0
C      1  0.5191460000000  0.4559290000000  0.4458890000000 1.0
C      1  0.5191460000000  0.5440710000000  0.5541110000000 1.0
C      1  0.4831060000000  0.5440700000000  0.4458890000000 1.0
C      1  0.4831060000000  0.4559300000000  0.5541110000000 1.0
C      1  0.5191460000000  0.5440710000000  0.4458890000000 1.0
C      1  0.5191460000000  0.4559290000000  0.5541110000000 1.0
C      1  0.5669990000000  0.4738900000000  0.4723430000000 1.0
C      1  0.5669990000000  0.5261100000000  0.5276570000000 1.0
C      1  0.4352510000000  0.4738900000000  0.4723430000000 1.0
C      1  0.4352510000000  0.5261100000000  0.5276570000000 1.0
C      1  0.5669990000000  0.5261100000000  0.4723430000000 1.0
C      1  0.5669990000000  0.4738900000000  0.5276570000000 1.0
C      1  0.4352510000000  0.5261100000000  0.4723430000000 1.0
C      1  0.4352510000000  0.4738900000000  0.5276570000000 1.0
C      1  0.5174530000000  0.4404070000000  0.4846770000000 1.0
C      1  0.5174520000000  0.5595930000000  0.5153230000000 1.0
C      1  0.4847840000000  0.4404060000000  0.4846760000000 1.0
C      1  0.4847840000000  0.5595940000000  0.5153240000000 1.0
C      1  0.5174520000000  0.5595930000000  0.4846770000000 1.0
C      1  0.5174530000000  0.4404070000000  0.5153230000000 1.0
C      1  0.4847840000000  0.5595940000000  0.4846760000000 1.0
C      1  0.4847840000000  0.4404060000000  0.5153240000000 1.0
C      1  0.5813420000000  0.5000000000000  0.4729510000000 1.0
C      1  0.5813420000000  0.5000000000000  0.5270490000000 1.0
C      1  0.4209080000000  0.5000000000000  0.4729500000000 1.0
C      1  0.4209080000000  0.5000000000000  0.5270500000000 1.0
C      1  0.4848760000000  0.5000000000000  0.5441420000000 1.0
C      1  0.4848760000000  0.5000000000000  0.4558580000000 1.0
C      1  0.5173700000000  0.5000000000000  0.4558580000000 1.0
C      1  0.5173700000000  0.5000000000000  0.5441420000000 1.0
C      1  0.4613530000000  0.5000000000000  0.5649530000000 1.0
C      1  0.5408940000000  0.5000000000000  0.5649510000000 1.0
C      1  0.5408940000000  0.5000000000000  0.4350490000000 1.0
C      1  0.4613530000000  0.5000000000000  0.4350470000000 1.0
C      1  0.5621280000000  0.4600410000000  0.5000000000000 1.0
C      1  0.5621280000000  0.5399590000000  0.5000000000000 1.0
C      1  0.4401220000000  0.4600410000000  0.5000000000000 1.0
C      1  0.4401220000000  0.5399590000000  0.5000000000000 1.0
C      1  0.5192210000000  0.5000000000000  0.5000000000000 1.0
C      1  0.4830280000000  0.5000000000000  0.5000000000000 1.0
C      1  0.5492320000000  0.5000000000000  0.5000000000000 1.0
C      1  0.4530180000000  0.5000000000000  0.5000000000000 1.0
END
