TITL C-3985245-9316-811 -0.00100565875312113 125000 -334.813966689358 0 0 60 (C1) n - 1
REM
REM in /home/nfs/bkarasulu/CARBON/AIRSS/Generating-Clusters/TERSOFF/Higher-Symm/Only-C60
REM
REM
REM
REM
REM
REM ./C.cell (28575a23ae977d3b5fae324c64b13b57)
REM
REM compiler GCC version 9.2.1 20190827 (Red Hat 9.2.1-1)
REM options -cpp -mtune=generic -march=x86-64 -g -O0 -fpre-include=/usr/include/finclude/math-vector-fortran.h
REM seed -1627015518 -982257418 -511775449 -1440109794 -1985563424 -2125961791 -953160150 -1449760612 1585681682 1800146572 658639952 -1322500095 1684232169 -1097731125 1436157552 274524156 300152859 -1155544865 1425860375 964780622 -759655444 544459121 358881595 932990845 848609978 -499588595 743695273 1916766999 -604923101 -2078248177 1789095460 1493596263 -806957205
REM
CELL 1.54180   50.00000   50.00000   50.00000   90.00000   90.00000   90.00000
LATT -1
SFAC C  
C      1  0.4543600000000  0.5436860000000  0.4709620000000 1.0
C      1  0.4647610000000  0.5392670000000  0.4430710000000 1.0
C      1  0.4565640000000  0.5208930000000  0.5513540000000 1.0
C      1  0.4738170000000  0.5108970000000  0.4408670000000 1.0
C      1  0.4810340000000  0.4507800000000  0.5065940000000 1.0
C      1  0.5073560000000  0.4801370000000  0.5254450000000 1.0
C      1  0.4372530000000  0.5187970000000  0.4761010000000 1.0
C      1  0.5285640000000  0.5536120000000  0.5231810000000 1.0
C      1  0.4992490000000  0.4802270000000  0.4725920000000 1.0
C      1  0.5298320000000  0.5069500000000  0.4455650000000 1.0
C      1  0.5205920000000  0.4704990000000  0.5741210000000 1.0
C      1  0.4758460000000  0.4760660000000  0.4923060000000 1.0
C      1  0.5354620000000  0.4580000000000  0.4609700000000 1.0
C      1  0.4570660000000  0.4901750000000  0.5562570000000 1.0
C      1  0.5469890000000  0.5490780000000  0.4761650000000 1.0
C      1  0.5442620000000  0.5058810000000  0.5372690000000 1.0
C      1  0.4966920000000  0.5087650000000  0.5309270000000 1.0
C      1  0.4996630000000  0.5070500000000  0.4575210000000 1.0
C      1  0.5595620000000  0.5439140000000  0.5282420000000 1.0
C      1  0.4560720000000  0.5592660000000  0.5168540000000 1.0
C      1  0.5232160000000  0.5210530000000  0.5224480000000 1.0
C      1  0.5595130000000  0.5249230000000  0.5551540000000 1.0
C      1  0.5575390000000  0.5301290000000  0.4985490000000 1.0
C      1  0.4473500000000  0.4716420000000  0.5347340000000 1.0
C      1  0.4485060000000  0.4942180000000  0.4555730000000 1.0
C      1  0.4786590000000  0.4959130000000  0.4159050000000 1.0
C      1  0.4677620000000  0.5657300000000  0.4898580000000 1.0
C      1  0.5203170000000  0.4351950000000  0.5341330000000 1.0
C      1  0.4769500000000  0.5249030000000  0.4884630000000 1.0
C      1  0.4983520000000  0.5603980000000  0.4818770000000 1.0
C      1  0.4638980000000  0.4434380000000  0.4648300000000 1.0
C      1  0.4892910000000  0.5172800000000  0.5595730000000 1.0
C      1  0.4652470000000  0.4659220000000  0.4421460000000 1.0
C      1  0.5377940000000  0.4484650000000  0.4897450000000 1.0
C      1  0.5475700000000  0.4853360000000  0.4588600000000 1.0
C      1  0.5381410000000  0.5322190000000  0.5758280000000 1.0
C      1  0.4889110000000  0.4831990000000  0.5714720000000 1.0
C      1  0.5405560000000  0.5360560000000  0.4491870000000 1.0
C      1  0.5559070000000  0.4685860000000  0.5052920000000 1.0
C      1  0.4949420000000  0.4691410000000  0.4233710000000 1.0
C      1  0.5184470000000  0.4851660000000  0.4961230000000 1.0
C      1  0.5098700000000  0.5400410000000  0.5677290000000 1.0
C      1  0.5255270000000  0.5645520000000  0.4941420000000 1.0
C      1  0.4479970000000  0.4710410000000  0.4802790000000 1.0
C      1  0.4342000000000  0.5125230000000  0.5050270000000 1.0
C      1  0.4934720000000  0.4343150000000  0.4699870000000 1.0
C      1  0.5493060000000  0.4770540000000  0.5328230000000 1.0
C      1  0.4673710000000  0.4493920000000  0.5330080000000 1.0
C      1  0.5338270000000  0.4582840000000  0.5494470000000 1.0
C      1  0.5280550000000  0.5145760000000  0.4937940000000 1.0
C      1  0.5065750000000  0.4571100000000  0.4533720000000 1.0
C      1  0.5047940000000  0.5289940000000  0.4783030000000 1.0
C      1  0.5624710000000  0.4892250000000  0.4843100000000 1.0
C      1  0.5199750000000  0.4906390000000  0.4210930000000 1.0
C      1  0.4369610000000  0.4828100000000  0.5088080000000 1.0
C      1  0.5100220000000  0.4367870000000  0.5022640000000 1.0
C      1  0.5126930000000  0.5614170000000  0.5471300000000 1.0
C      1  0.4469360000000  0.5318850000000  0.5254160000000 1.0
C      1  0.4909970000000  0.4631090000000  0.5453210000000 1.0
C      1  0.4750880000000  0.5033960000000  0.5082640000000 1.0
END
