TITL C-3985257-5396-169 2.34271690742948e-07 125000 -300.361062261421 0 0 60 (C2) n - 1
REM
REM in /home/nfs/bkarasulu/CARBON/AIRSS/Generating-Clusters/TERSOFF/Higher-Symm/Only-C60
REM
REM
REM
REM
REM
REM ./C.cell (28575a23ae977d3b5fae324c64b13b57)
REM
REM compiler GCC version 9.2.1 20190827 (Red Hat 9.2.1-1)
REM options -cpp -mtune=generic -march=x86-64 -g -O0 -fpre-include=/usr/include/finclude/math-vector-fortran.h
REM seed -1247752293 1986148305 27208833 -257201100 1269232147 1954445237 1064162358 1407146229 -382908523 -397515289 -1584963785 1143692152 1236131577 -257419666 -1400258008 934572696 1758097320 -68627116 1545009647 123858306 237372767 -774187523 -976192026 -1840380473 -1839118421 1785896295 1108948388 -15247471 1729595609 -316580637 157174420 -1957943959 1831862331
REM
CELL 1.54180   50.00000   50.00000   50.00000   90.00000   90.00000   90.00000
LATT -1
SFAC C  
C      1  0.4219140000000  0.5124800000000  0.4926570000000 1.0
C      1  0.4219140000000  0.4875200000000  0.5073420000000 1.0
C      1  0.5031520000000  0.5933280000000  0.4789280000000 1.0
C      1  0.5031520000000  0.4066720000000  0.5210730000000 1.0
C      1  0.5522260000000  0.5024930000000  0.4553910000000 1.0
C      1  0.5522260000000  0.4975070000000  0.5446090000000 1.0
C      1  0.5358050000000  0.4705090000000  0.5634810000000 1.0
C      1  0.5358050000000  0.5294910000000  0.4365190000000 1.0
C      1  0.5043990000000  0.4462400000000  0.4556590000000 1.0
C      1  0.5043990000000  0.5537600000000  0.5443420000000 1.0
C      1  0.5510140000000  0.5319320000000  0.5457560000000 1.0
C      1  0.5510140000000  0.4680680000000  0.4542440000000 1.0
C      1  0.5196250000000  0.4820840000000  0.5021690000000 1.0
C      1  0.5196250000000  0.5179160000000  0.4978300000000 1.0
C      1  0.4604960000000  0.4297960000000  0.5159300000000 1.0
C      1  0.4604970000000  0.5702030000000  0.4840700000000 1.0
C      1  0.4528900000000  0.4925370000000  0.4539570000000 1.0
C      1  0.4528890000000  0.5074630000000  0.5460430000000 1.0
C      1  0.5250840000000  0.4405050000000  0.5036120000000 1.0
C      1  0.5250840000000  0.5594950000000  0.4963880000000 1.0
C      1  0.4832540000000  0.4175980000000  0.5023130000000 1.0
C      1  0.4832540000000  0.5824030000000  0.4976880000000 1.0
C      1  0.5038930000000  0.4433870000000  0.5561770000000 1.0
C      1  0.5038930000000  0.5566130000000  0.4438220000000 1.0
C      1  0.5433360000000  0.5518590000000  0.4574290000000 1.0
C      1  0.5433360000000  0.4481410000000  0.5425710000000 1.0
C      1  0.4505310000000  0.4649580000000  0.4681330000000 1.0
C      1  0.4505290000000  0.5350420000000  0.5318680000000 1.0
C      1  0.5214400000000  0.5724810000000  0.4649220000000 1.0
C      1  0.5214410000000  0.4275180000000  0.5350780000000 1.0
C      1  0.4614700000000  0.5401660000000  0.4795380000000 1.0
C      1  0.4614680000000  0.4598330000000  0.5204630000000 1.0
C      1  0.4979540000000  0.4714810000000  0.4352600000000 1.0
C      1  0.4979540000000  0.5285180000000  0.5647400000000 1.0
C      1  0.4380660000000  0.4638600000000  0.4957760000000 1.0
C      1  0.4380660000000  0.5361400000000  0.5042240000000 1.0
C      1  0.5605690000000  0.5094490000000  0.5116800000000 1.0
C      1  0.5605690000000  0.4905510000000  0.4883200000000 1.0
C      1  0.5546930000000  0.5408170000000  0.5050050000000 1.0
C      1  0.5546930000000  0.4591830000000  0.4949950000000 1.0
C      1  0.5223710000000  0.5297550000000  0.5292080000000 1.0
C      1  0.5223710000000  0.4702440000000  0.4707910000000 1.0
C      1  0.4821010000000  0.4931930000000  0.4871050000000 1.0
C      1  0.4821030000000  0.5068080000000  0.5128980000000 1.0
C      1  0.5454380000000  0.4718650000000  0.5227150000000 1.0
C      1  0.5454380000000  0.5281350000000  0.4772850000000 1.0
C      1  0.4978460000000  0.5599320000000  0.5134710000000 1.0
C      1  0.4978470000000  0.4400690000000  0.4865300000000 1.0
C      1  0.5010130000000  0.4764330000000  0.5549230000000 1.0
C      1  0.5010130000000  0.5235670000000  0.4450760000000 1.0
C      1  0.4777490000000  0.4649800000000  0.4821430000000 1.0
C      1  0.4777490000000  0.5350210000000  0.5178590000000 1.0
C      1  0.4942570000000  0.5317540000000  0.4762460000000 1.0
C      1  0.4942570000000  0.4682450000000  0.5237520000000 1.0
C      1  0.4778240000000  0.4967240000000  0.4381990000000 1.0
C      1  0.4778240000000  0.5032760000000  0.5618000000000 1.0
C      1  0.4413030000000  0.5159580000000  0.4675700000000 1.0
C      1  0.4413020000000  0.4840420000000  0.5324300000000 1.0
C      1  0.5182890000000  0.5063300000000  0.5512930000000 1.0
C      1  0.5182900000000  0.4936700000000  0.4487060000000 1.0
END
