TITL C-3985254-1270-190 -7.34015788464983e-07 125000 -302.474767284467 0 0 60 (D2h) n - 1
REM
REM in /home/nfs/bkarasulu/CARBON/AIRSS/Generating-Clusters/TERSOFF/Higher-Symm/Only-C60
REM
REM
REM
REM
REM
REM ./C.cell (28575a23ae977d3b5fae324c64b13b57)
REM
REM compiler GCC version 9.2.1 20190827 (Red Hat 9.2.1-1)
REM options -cpp -mtune=generic -march=x86-64 -g -O0 -fpre-include=/usr/include/finclude/math-vector-fortran.h
REM seed 1319558234 -556058582 722860932 1490213872 809710886 -757776740 2077478783 -63036117 641417052 -1420499618 119952044 694528831 35793739 -1931561851 -277681355 -2127358565 957350707 419723975 -686949528 -1526213865 1276293436 1662453563 1335948234 -1125153152 916122234 -697966376 -296325774 483924056 1565039944 618075998 -1040819872 716196777 1599468529
REM
CELL 1.54180   50.00000   50.00000   50.00000   90.00000   90.00000   90.00000
LATT -1
SFAC C  
C      1  0.5162700000000  0.5250190000000  0.4833900000000 1.0
C      1  0.4837290000000  0.4749790000000  0.4833900000000 1.0
C      1  0.5162700000000  0.5250190000000  0.5166100000000 1.0
C      1  0.4837290000000  0.4749790000000  0.5166100000000 1.0
C      1  0.4837300000000  0.5250210000000  0.4833900000000 1.0
C      1  0.5162700000000  0.4749820000000  0.4833900000000 1.0
C      1  0.4837300000000  0.5250210000000  0.5166100000000 1.0
C      1  0.5162700000000  0.4749820000000  0.5166100000000 1.0
C      1  0.4835710000000  0.4826160000000  0.5623170000000 1.0
C      1  0.5164290000000  0.5173840000000  0.5623170000000 1.0
C      1  0.4835710000000  0.4826160000000  0.4376830000000 1.0
C      1  0.5164290000000  0.5173840000000  0.4376830000000 1.0
C      1  0.5164290000000  0.4826160000000  0.5623170000000 1.0
C      1  0.4835710000000  0.5173840000000  0.5623170000000 1.0
C      1  0.5164290000000  0.4826160000000  0.4376830000000 1.0
C      1  0.4835710000000  0.5173840000000  0.4376830000000 1.0
C      1  0.4336050000000  0.5311120000000  0.5308790000000 1.0
C      1  0.5663950000000  0.4688880000000  0.5308790000000 1.0
C      1  0.4336050000000  0.5311120000000  0.4691210000000 1.0
C      1  0.5663950000000  0.4688880000000  0.4691210000000 1.0
C      1  0.5663950000000  0.5311120000000  0.5308790000000 1.0
C      1  0.4336050000000  0.4688880000000  0.5308790000000 1.0
C      1  0.5663950000000  0.5311120000000  0.4691210000000 1.0
C      1  0.4336050000000  0.4688880000000  0.4691210000000 1.0
C      1  0.4534050000000  0.5150870000000  0.4843880000000 1.0
C      1  0.5465960000000  0.4849130000000  0.4843880000000 1.0
C      1  0.4534050000000  0.5150870000000  0.5156120000000 1.0
C      1  0.5465960000000  0.4849130000000  0.5156120000000 1.0
C      1  0.5465960000000  0.5150870000000  0.4843880000000 1.0
C      1  0.4534050000000  0.4849130000000  0.4843880000000 1.0
C      1  0.5465960000000  0.5150870000000  0.5156120000000 1.0
C      1  0.4534050000000  0.4849130000000  0.5156120000000 1.0
C      1  0.5181040000000  0.5455380000000  0.5414750000000 1.0
C      1  0.4818960000000  0.4544600000000  0.5414750000000 1.0
C      1  0.5181040000000  0.5455380000000  0.4585250000000 1.0
C      1  0.4818960000000  0.4544600000000  0.4585250000000 1.0
C      1  0.4818960000000  0.5455390000000  0.5414750000000 1.0
C      1  0.5181040000000  0.4544630000000  0.5414750000000 1.0
C      1  0.4818960000000  0.5455390000000  0.4585250000000 1.0
C      1  0.5181040000000  0.4544630000000  0.4585250000000 1.0
C      1  0.4539880000000  0.5552990000000  0.4723300000000 1.0
C      1  0.5460120000000  0.4447010000000  0.4723300000000 1.0
C      1  0.4539880000000  0.5552990000000  0.5276700000000 1.0
C      1  0.5460120000000  0.4447010000000  0.5276700000000 1.0
C      1  0.5460120000000  0.5552990000000  0.4723300000000 1.0
C      1  0.4539880000000  0.4447010000000  0.4723300000000 1.0
C      1  0.5460120000000  0.5552990000000  0.5276700000000 1.0
C      1  0.4539880000000  0.4447010000000  0.5276700000000 1.0
C      1  0.4222100000000  0.5148040000000  0.5531870000000 1.0
C      1  0.5777900000000  0.4851960000000  0.5531870000000 1.0
C      1  0.4222100000000  0.5148040000000  0.4468130000000 1.0
C      1  0.5777900000000  0.4851960000000  0.4468130000000 1.0
C      1  0.5777900000000  0.5148040000000  0.5531870000000 1.0
C      1  0.4222100000000  0.4851960000000  0.5531870000000 1.0
C      1  0.5777900000000  0.5148040000000  0.4468130000000 1.0
C      1  0.4222100000000  0.4851960000000  0.4468130000000 1.0
C      1  0.5451600000000  0.5694510000000  0.5000000000000 1.0
C      1  0.5451600000000  0.4305490000000  0.5000000000000 1.0
C      1  0.4548390000000  0.5694510000000  0.5000000000000 1.0
C      1  0.4548390000000  0.4305490000000  0.5000000000000 1.0
END
