TITL C-3985245-9316-287 -1.22381151099601e-06 125000 -358.619112408377 0 0 60 (C3) n - 1
REM
REM in /home/nfs/bkarasulu/CARBON/AIRSS/Generating-Clusters/TERSOFF/Higher-Symm/Only-C60
REM
REM
REM
REM
REM
REM ./C.cell (28575a23ae977d3b5fae324c64b13b57)
REM
REM compiler GCC version 9.2.1 20190827 (Red Hat 9.2.1-1)
REM options -cpp -mtune=generic -march=x86-64 -g -O0 -fpre-include=/usr/include/finclude/math-vector-fortran.h
REM seed 1767639631 1988342779 185378403 959970881 2043093972 -1685101381 -2026302369 -283243466 -925606071 392746618 -769593714 -1486727070 910437083 1015530635 -340191302 1592897802 -1739006226 -1102871623 -1444937836 -991399996 1861644325 1631665770 38127909 -392116869 429868404 517505908 -691635838 1338715220 -545729644 -247872909 -554639931 -1863965679 1430983183
REM
CELL 1.54180   50.00000   50.00000   50.00000   90.00000   90.00000   90.00000
LATT -1
SFAC C  
C      1  0.5548860000000  0.4639640000000  0.5080950000000 1.0
C      1  0.5037660000000  0.5655510000000  0.5080960000000 1.0
C      1  0.4413490000000  0.4704860000000  0.5080950000000 1.0
C      1  0.5548860000000  0.5360360000000  0.5080950000000 1.0
C      1  0.5037660000000  0.4344490000000  0.5080960000000 1.0
C      1  0.4413490000000  0.5295140000000  0.5080950000000 1.0
C      1  0.4661020000000  0.4710940000000  0.5538080000000 1.0
C      1  0.5419830000000  0.4850960000000  0.5538090000000 1.0
C      1  0.4919160000000  0.5438090000000  0.5538090000000 1.0
C      1  0.4661020000000  0.5289060000000  0.5538080000000 1.0
C      1  0.5419830000000  0.5149040000000  0.5538090000000 1.0
C      1  0.4919160000000  0.4561910000000  0.5538090000000 1.0
C      1  0.4758350000000  0.4251270000000  0.5008430000000 1.0
C      1  0.5769240000000  0.5165090000000  0.5008430000000 1.0
C      1  0.4472410000000  0.5583640000000  0.5008420000000 1.0
C      1  0.4758350000000  0.5748730000000  0.5008430000000 1.0
C      1  0.5769240000000  0.4834910000000  0.5008430000000 1.0
C      1  0.4472410000000  0.4416360000000  0.5008420000000 1.0
C      1  0.4998830000000  0.5288630000000  0.4795360000000 1.0
C      1  0.4750620000000  0.4854670000000  0.4795360000000 1.0
C      1  0.5250540000000  0.4856700000000  0.4795360000000 1.0
C      1  0.4998830000000  0.4711370000000  0.4795360000000 1.0
C      1  0.4750620000000  0.5145330000000  0.4795360000000 1.0
C      1  0.5250540000000  0.5143300000000  0.4795360000000 1.0
C      1  0.4732050000000  0.5154010000000  0.4376280000000 1.0
C      1  0.5000600000000  0.4690940000000  0.4376280000000 1.0
C      1  0.5267350000000  0.5155050000000  0.4376280000000 1.0
C      1  0.4732050000000  0.4845990000000  0.4376280000000 1.0
C      1  0.5000600000000  0.5309060000000  0.4376280000000 1.0
C      1  0.5267350000000  0.4844950000000  0.4376280000000 1.0
C      1  0.5458230000000  0.5506090000000  0.4832300000000 1.0
C      1  0.4332600000000  0.5143790000000  0.4832300000000 1.0
C      1  0.5209170000000  0.4350120000000  0.4832310000000 1.0
C      1  0.5458230000000  0.4493910000000  0.4832300000000 1.0
C      1  0.4332600000000  0.4856210000000  0.4832300000000 1.0
C      1  0.5209170000000  0.5649880000000  0.4832310000000 1.0
C      1  0.4558570000000  0.4849100000000  0.5293610000000 1.0
C      1  0.5351400000000  0.4693160000000  0.5293620000000 1.0
C      1  0.5090040000000  0.5457740000000  0.5293620000000 1.0
C      1  0.4558570000000  0.5150900000000  0.5293610000000 1.0
C      1  0.5351400000000  0.5306840000000  0.5293620000000 1.0
C      1  0.5090040000000  0.4542260000000  0.5293620000000 1.0
C      1  0.5483980000000  0.5281460000000  0.4608980000000 1.0
C      1  0.4514250000000  0.5278410000000  0.4608970000000 1.0
C      1  0.5001760000000  0.4440130000000  0.4608980000000 1.0
C      1  0.5483980000000  0.4718540000000  0.4608980000000 1.0
C      1  0.4514250000000  0.4721590000000  0.4608970000000 1.0
C      1  0.5001760000000  0.5559870000000  0.4608980000000 1.0
C      1  0.5749370000000  0.5152360000000  0.4683120000000 1.0
C      1  0.4493370000000  0.5572800000000  0.4683120000000 1.0
C      1  0.4757260000000  0.4274850000000  0.4683130000000 1.0
C      1  0.5749370000000  0.4847640000000  0.4683120000000 1.0
C      1  0.4493370000000  0.4427200000000  0.4683120000000 1.0
C      1  0.4757260000000  0.5725150000000  0.4683130000000 1.0
C      1  0.5330860000000  0.5284160000000  0.5782870000000 1.0
C      1  0.4588480000000  0.5144450000000  0.5782870000000 1.0
C      1  0.5080660000000  0.4571390000000  0.5782870000000 1.0
C      1  0.5330860000000  0.4715840000000  0.5782870000000 1.0
C      1  0.4588480000000  0.4855550000000  0.5782870000000 1.0
C      1  0.5080660000000  0.5428610000000  0.5782870000000 1.0
END
