TITL C-3985252-168-164 -6.46144426543646e-08 125000 -291.404479641894 0 0 60 (C3i) n - 1
REM
REM in /home/nfs/bkarasulu/CARBON/AIRSS/Generating-Clusters/TERSOFF/Higher-Symm/Only-C60
REM
REM
REM
REM
REM
REM ./C.cell (28575a23ae977d3b5fae324c64b13b57)
REM
REM compiler GCC version 9.2.1 20190827 (Red Hat 9.2.1-1)
REM options -cpp -mtune=generic -march=x86-64 -g -O0 -fpre-include=/usr/include/finclude/math-vector-fortran.h
REM seed -829400078 424063226 2134192018 1225698265 121826139 1436542907 849189820 280680102 89804851 1168801084 1245206860 826046429 -1465857257 110410318 836538455 645070992 -1532109008 -973630241 -812736148 1898435674 -1414620214 1189540802 -313936991 761193991 601551837 -923312099 -538571730 750265644 2006645649 -820021939 1304142164 1724470969 49709801
REM
CELL 1.54180   50.00000   50.00000   50.00000   90.00000   90.00000   90.00000
LATT -1
SFAC C  
C      1  0.5722090000000  0.5111250000000  0.4928740000000 1.0
C      1  0.5299330000000  0.4888750000000  0.4339020000000 1.0
C      1  0.4577240000000  0.5111250000000  0.4410280000000 1.0
C      1  0.4277910000000  0.4888750000000  0.5071260000000 1.0
C      1  0.4700670000000  0.5111250000000  0.5660980000000 1.0
C      1  0.5422760000000  0.4888750000000  0.5589720000000 1.0
C      1  0.4364850000000  0.5002850000000  0.5575220000000 1.0
C      1  0.5180580000000  0.4997150000000  0.5837660000000 1.0
C      1  0.5815720000000  0.5002850000000  0.5262450000000 1.0
C      1  0.5635150000000  0.4997150000000  0.4424780000000 1.0
C      1  0.4819420000000  0.5002850000000  0.4162340000000 1.0
C      1  0.4184280000000  0.4997150000000  0.4737550000000 1.0
C      1  0.5117230000000  0.5515400000000  0.4819040000000 1.0
C      1  0.4901900000000  0.4484600000000  0.4807990000000 1.0
C      1  0.4784670000000  0.5515400000000  0.4988960000000 1.0
C      1  0.4882770000000  0.4484600000000  0.5180960000000 1.0
C      1  0.5098100000000  0.5515400000000  0.5192010000000 1.0
C      1  0.5215330000000  0.4484600000000  0.5011040000000 1.0
C      1  0.4644680000000  0.4583570000000  0.5437170000000 1.0
C      1  0.5200940000000  0.5416420000000  0.5526310000000 1.0
C      1  0.5556260000000  0.4583570000000  0.5089130000000 1.0
C      1  0.5355320000000  0.5416430000000  0.4562830000000 1.0
C      1  0.4799060000000  0.4583580000000  0.4473690000000 1.0
C      1  0.4443740000000  0.5416430000000  0.4910870000000 1.0
C      1  0.5705520000000  0.4780130000000  0.4877760000000 1.0
C      1  0.5246890000000  0.5219870000000  0.4327880000000 1.0
C      1  0.4541380000000  0.4780130000000  0.4450120000000 1.0
C      1  0.4294480000000  0.5219870000000  0.5122240000000 1.0
C      1  0.4753110000000  0.4780130000000  0.5672120000000 1.0
C      1  0.5458620000000  0.5219870000000  0.5549880000000 1.0
C      1  0.5711610000000  0.5283120000000  0.5397930000000 1.0
C      1  0.5700420000000  0.4716880000000  0.4582700000000 1.0
C      1  0.4988820000000  0.5283120000000  0.4184760000000 1.0
C      1  0.4288390000000  0.4716880000000  0.4602070000000 1.0
C      1  0.4299580000000  0.5283120000000  0.5417300000000 1.0
C      1  0.5011180000000  0.4716880000000  0.5815240000000 1.0
C      1  0.4712900000000  0.4864920000000  0.5137280000000 1.0
C      1  0.4975330000000  0.5135070000000  0.5317280000000 1.0
C      1  0.5262430000000  0.4864930000000  0.5180000000000 1.0
C      1  0.5287100000000  0.5135080000000  0.4862720000000 1.0
C      1  0.5024670000000  0.4864930000000  0.4682720000000 1.0
C      1  0.4737570000000  0.5135070000000  0.4820000000000 1.0
C      1  0.4986720000000  0.4773300000000  0.4274930000000 1.0
C      1  0.4365430000000  0.5226710000000  0.4648970000000 1.0
C      1  0.4378710000000  0.4773300000000  0.5374040000000 1.0
C      1  0.5013280000000  0.5226700000000  0.5725070000000 1.0
C      1  0.5634570000000  0.4773290000000  0.5351030000000 1.0
C      1  0.5621290000000  0.5226700000000  0.4625960000000 1.0
C      1  0.5395910000000  0.4686340000000  0.4572380000000 1.0
C      1  0.4827630000000  0.5313660000000  0.4443320000000 1.0
C      1  0.4431720000000  0.4686340000000  0.4870940000000 1.0
C      1  0.4604090000000  0.5313660000000  0.5427620000000 1.0
C      1  0.5172370000000  0.4686340000000  0.5556680000000 1.0
C      1  0.5568280000000  0.5313660000000  0.5129060000000 1.0
C      1  0.5275570000000  0.4775310000000  0.4842640000000 1.0
C      1  0.5001500000000  0.5224700000000  0.4682670000000 1.0
C      1  0.4725940000000  0.4775310000000  0.4840030000000 1.0
C      1  0.4724430000000  0.5224690000000  0.5157360000000 1.0
C      1  0.4998500000000  0.4775300000000  0.5317330000000 1.0
C      1  0.5274060000000  0.5224690000000  0.5159970000000 1.0
END
