TITL C-3985251-913-747 0.000229000301585647 125000 -351.162048532823 0 0 60 (C5) n - 1
REM
REM in /home/nfs/bkarasulu/CARBON/AIRSS/Generating-Clusters/TERSOFF/Higher-Symm/Only-C60
REM
REM
REM
REM
REM
REM ./C.cell (28575a23ae977d3b5fae324c64b13b57)
REM
REM compiler GCC version 9.2.1 20190827 (Red Hat 9.2.1-1)
REM options -cpp -mtune=generic -march=x86-64 -g -O0 -fpre-include=/usr/include/finclude/math-vector-fortran.h
REM seed -1256225358 1458141876 -886140700 1810190226 -64445651 -226036078 113825479 -1268443983 1352928004 465225740 1657880083 1930594160 952159236 -1730902722 1787465268 199484821 -1312211784 -1263770435 2088356440 1461024227 -2034814729 1603064037 5687087 -879901120 788781585 1993623711 -1341575900 -1581226939 -328007042 848758300 -86894007 1853405613 -1644723403
REM
CELL 1.54180   50.00000   50.00000   50.00000   90.00000   90.00000   90.00000
LATT -1
SFAC C  
C      1  0.5032430000000  0.4503790000000  0.4593650000000 1.0
C      1  0.4537970000000  0.4815890000000  0.4593710000000 1.0
C      1  0.4682120000000  0.5382510000000  0.4593700000000 1.0
C      1  0.5265600000000  0.5420620000000  0.4593770000000 1.0
C      1  0.5481990000000  0.4877400000000  0.4593660000000 1.0
C      1  0.5518610000000  0.5352860000000  0.4718590000000 1.0
C      1  0.5496100000000  0.4615910000000  0.4718840000000 1.0
C      1  0.4788060000000  0.4409370000000  0.4718970000000 1.0
C      1  0.4372910000000  0.5019140000000  0.4718800000000 1.0
C      1  0.4824420000000  0.5602320000000  0.4718790000000 1.0
C      1  0.5182410000000  0.4590870000000  0.5305390000000 1.0
C      1  0.4667270000000  0.4700060000000  0.5305400000000 1.0
C      1  0.4611960000000  0.5223720000000  0.5305410000000 1.0
C      1  0.5092830000000  0.5438170000000  0.5305440000000 1.0
C      1  0.5445410000000  0.5047090000000  0.5305420000000 1.0
C      1  0.5581910000000  0.5316850000000  0.5314490000000 1.0
C      1  0.5481400000000  0.4544380000000  0.5313990000000 1.0
C      1  0.4715610000000  0.4400900000000  0.5313150000000 1.0
C      1  0.4342780000000  0.5085650000000  0.5314120000000 1.0
C      1  0.4878290000000  0.5651520000000  0.5313990000000 1.0
C      1  0.4700720000000  0.5756930000000  0.4948800000000 1.0
C      1  0.5626320000000  0.5519240000000  0.4949620000000 1.0
C      1  0.5687030000000  0.4563410000000  0.4948590000000 1.0
C      1  0.4796160000000  0.4211910000000  0.4948600000000 1.0
C      1  0.4187570000000  0.4949220000000  0.4948630000000 1.0
C      1  0.4956190000000  0.5878800000000  0.5115360000000 1.0
C      1  0.5822270000000  0.5313210000000  0.5115440000000 1.0
C      1  0.5551950000000  0.4314800000000  0.5115480000000 1.0
C      1  0.4518950000000  0.4263320000000  0.5115430000000 1.0
C      1  0.4150680000000  0.5229890000000  0.5115430000000 1.0
C      1  0.4805270000000  0.4836690000000  0.5532770000000 1.0
C      1  0.4784450000000  0.5134710000000  0.5532740000000 1.0
C      1  0.5061470000000  0.5246630000000  0.5532740000000 1.0
C      1  0.5253640000000  0.5017770000000  0.5532730000000 1.0
C      1  0.5095200000000  0.4764300000000  0.5532740000000 1.0
C      1  0.4540500000000  0.5244250000000  0.4808450000000 1.0
C      1  0.5090310000000  0.5512470000000  0.4808450000000 1.0
C      1  0.5515310000000  0.5072550000000  0.4808450000000 1.0
C      1  0.5228150000000  0.4532310000000  0.4808390000000 1.0
C      1  0.4625720000000  0.4638480000000  0.4808400000000 1.0
C      1  0.4376710000000  0.5412770000000  0.5004130000000 1.0
C      1  0.5199970000000  0.5720370000000  0.5004220000000 1.0
C      1  0.5746850000000  0.5032370000000  0.5004110000000 1.0
C      1  0.5261620000000  0.4299720000000  0.5004060000000 1.0
C      1  0.4414840000000  0.4534720000000  0.5004150000000 1.0
C      1  0.5398260000000  0.5576360000000  0.5218890000000 1.0
C      1  0.5671180000000  0.4800710000000  0.5220300000000 1.0
C      1  0.5018550000000  0.4300360000000  0.5221100000000 1.0
C      1  0.4339790000000  0.4766880000000  0.5220160000000 1.0
C      1  0.4574270000000  0.5555880000000  0.5220140000000 1.0
C      1  0.5118570000000  0.4751610000000  0.5027730000000 1.0
C      1  0.4800410000000  0.4810480000000  0.5027740000000 1.0
C      1  0.4758080000000  0.5131270000000  0.5027730000000 1.0
C      1  0.5050080000000  0.5270650000000  0.5027750000000 1.0
C      1  0.5272890000000  0.5036000000000  0.5027730000000 1.0
C      1  0.5015640000000  0.4740690000000  0.4410700000000 1.0
C      1  0.4758240000000  0.4904960000000  0.4410700000000 1.0
C      1  0.4834900000000  0.5200570000000  0.4410700000000 1.0
C      1  0.5139740000000  0.5218970000000  0.4410700000000 1.0
C      1  0.5251460000000  0.4934750000000  0.4410710000000 1.0
END
