TITL C-3985254-1270-1480 -3.97441145881233e-07 125000 -329.392677481509 0 0 60 (D5) n - 1
REM
REM in /home/nfs/bkarasulu/CARBON/AIRSS/Generating-Clusters/TERSOFF/Higher-Symm/Only-C60
REM
REM
REM
REM
REM
REM ./C.cell (28575a23ae977d3b5fae324c64b13b57)
REM
REM compiler GCC version 9.2.1 20190827 (Red Hat 9.2.1-1)
REM options -cpp -mtune=generic -march=x86-64 -g -O0 -fpre-include=/usr/include/finclude/math-vector-fortran.h
REM seed -448397538 1582355135 -413872014 -1883110739 -1075008622 310116280 861697517 -1770235233 476841004 -1480926054 560871579 -1297207930 1455041787 -965710452 1994144994 1472112163 451619558 1714271447 2043521039 2020702219 1729623977 -429429839 967697663 1344835132 179400254 -1396186466 1731099937 -423231003 -45989318 -472659190 1959412306 -1098321155 2091646964
REM
CELL 1.54180   50.00000   50.00000   50.00000   90.00000   90.00000   90.00000
LATT -1
SFAC C  
C      1  0.4853910000000  0.5031230000000  0.5535350000000 1.0
C      1  0.4853910000000  0.4500500000000  0.5195130000000 1.0
C      1  0.4853910000000  0.4660060000000  0.4585250000000 1.0
C      1  0.4853910000000  0.5289410000000  0.4548530000000 1.0
C      1  0.4853910000000  0.5518800000000  0.5135730000000 1.0
C      1  0.5146090000000  0.4968770000000  0.5535350000000 1.0
C      1  0.5146090000000  0.5499500000000  0.5195130000000 1.0
C      1  0.5146090000000  0.5339940000000  0.4585250000000 1.0
C      1  0.5146090000000  0.4710590000000  0.4548530000000 1.0
C      1  0.5146090000000  0.4481200000000  0.5135730000000 1.0
C      1  0.5337440000000  0.4873340000000  0.4765800000000 1.0
C      1  0.5337440000000  0.5183600000000  0.4807170000000 1.0
C      1  0.5337440000000  0.5240130000000  0.5115020000000 1.0
C      1  0.5337440000000  0.4964810000000  0.5263920000000 1.0
C      1  0.5337440000000  0.4738130000000  0.5048090000000 1.0
C      1  0.4662560000000  0.5126660000000  0.4765800000000 1.0
C      1  0.4662560000000  0.4816400000000  0.4807170000000 1.0
C      1  0.4662560000000  0.4759870000000  0.5115020000000 1.0
C      1  0.4662560000000  0.5035190000000  0.5263920000000 1.0
C      1  0.4662560000000  0.5261870000000  0.5048090000000 1.0
C      1  0.4392230000000  0.4471840000000  0.4973280000000 1.0
C      1  0.4392230000000  0.4862200000000  0.4489430000000 1.0
C      1  0.4392230000000  0.5443000000000  0.4711170000000 1.0
C      1  0.4392230000000  0.5411590000000  0.5332070000000 1.0
C      1  0.4392230000000  0.4811370000000  0.5494060000000 1.0
C      1  0.5607770000000  0.5528160000000  0.4973280000000 1.0
C      1  0.5607770000000  0.5137800000000  0.4489430000000 1.0
C      1  0.5607770000000  0.4557000000000  0.4711170000000 1.0
C      1  0.5607770000000  0.4588410000000  0.5332070000000 1.0
C      1  0.5607770000000  0.5188630000000  0.5494060000000 1.0
C      1  0.4670570000000  0.5533310000000  0.4651840000000 1.0
C      1  0.4670570000000  0.5495930000000  0.5399620000000 1.0
C      1  0.4670570000000  0.4773190000000  0.5595140000000 1.0
C      1  0.4670570000000  0.4363900000000  0.4968200000000 1.0
C      1  0.4670570000000  0.4833680000000  0.4385210000000 1.0
C      1  0.5329430000000  0.4466690000000  0.4651840000000 1.0
C      1  0.5329430000000  0.4504070000000  0.5399620000000 1.0
C      1  0.5329430000000  0.5226810000000  0.5595140000000 1.0
C      1  0.5329430000000  0.5636100000000  0.4968200000000 1.0
C      1  0.5329430000000  0.5166320000000  0.4385210000000 1.0
C      1  0.5647840000000  0.4844460000000  0.4593120000000 1.0
C      1  0.5647840000000  0.5338900000000  0.4726340000000 1.0
C      1  0.5647840000000  0.5364990000000  0.5237750000000 1.0
C      1  0.5647840000000  0.4886680000000  0.5420600000000 1.0
C      1  0.5647840000000  0.4564970000000  0.5022200000000 1.0
C      1  0.4352160000000  0.5155540000000  0.4593120000000 1.0
C      1  0.4352160000000  0.4661100000000  0.4726340000000 1.0
C      1  0.4352160000000  0.4635010000000  0.5237750000000 1.0
C      1  0.4352160000000  0.5113320000000  0.5420600000000 1.0
C      1  0.4352160000000  0.5435030000000  0.5022200000000 1.0
C      1  0.4786830000000  0.5318700000000  0.5604320000000 1.0
C      1  0.4786830000000  0.4523740000000  0.5489850000000 1.0
C      1  0.4786830000000  0.4386950000000  0.4698430000000 1.0
C      1  0.4786830000000  0.5097370000000  0.4323770000000 1.0
C      1  0.4786830000000  0.5673230000000  0.4883640000000 1.0
C      1  0.5213170000000  0.4681300000000  0.5604320000000 1.0
C      1  0.5213170000000  0.5476260000000  0.5489850000000 1.0
C      1  0.5213170000000  0.5613050000000  0.4698430000000 1.0
C      1  0.5213170000000  0.4902630000000  0.4323770000000 1.0
C      1  0.5213170000000  0.4326770000000  0.4883640000000 1.0
END
