TITL C-3985253-1688-4 -0.00382091898202816 125000 -304.175773816474 0 0 60 (Ci) n - 1
REM
REM in /home/nfs/bkarasulu/CARBON/AIRSS/Generating-Clusters/TERSOFF/Higher-Symm/Only-C60
REM
REM
REM
REM
REM
REM ./C.cell (28575a23ae977d3b5fae324c64b13b57)
REM
REM compiler GCC version 9.2.1 20190827 (Red Hat 9.2.1-1)
REM options -cpp -mtune=generic -march=x86-64 -g -O0 -fpre-include=/usr/include/finclude/math-vector-fortran.h
REM seed 1790712542 1070543662 -294832271 1968468088 -1655420704 526391022 808885994 95568734 -600410944 -977240073 -651180830 -134982661 -957814432 619418975 2113550585 1815022453 -105988710 1317230817 -663631696 -557125858 -1940822128 71132441 -150092679 1572999163 -653913459 1127970494 221796084 -348936226 -2105367681 -865163631 128131176 -447378487 1410672913
REM
CELL 1.54180   50.00000   50.00000   50.00000   90.00000   90.00000   90.00000
LATT -1
SFAC C  
C      1  0.4956380000000  0.5246840000000  0.5314230000000 1.0
C      1  0.5043620000000  0.4753160000000  0.4685770000000 1.0
C      1  0.5541850000000  0.5337920000000  0.5138950000000 1.0
C      1  0.4458150000000  0.4662080000000  0.4861050000000 1.0
C      1  0.4753220000000  0.5146060000000  0.5076680000000 1.0
C      1  0.5246780000000  0.4853940000000  0.4923320000000 1.0
C      1  0.4640810000000  0.4861890000000  0.5529680000000 1.0
C      1  0.5359190000000  0.5138110000000  0.4470320000000 1.0
C      1  0.5324670000000  0.4374450000000  0.4749920000000 1.0
C      1  0.4675330000000  0.5625550000000  0.5250080000000 1.0
C      1  0.5427860000000  0.4599190000000  0.5258540000000 1.0
C      1  0.4572140000000  0.5400810000000  0.4741460000000 1.0
C      1  0.5254710000000  0.4544780000000  0.5001970000000 1.0
C      1  0.4745290000000  0.5455220000000  0.4998030000000 1.0
C      1  0.4739910000000  0.5334400000000  0.4491700000000 1.0
C      1  0.5260090000000  0.4665600000000  0.5508300000000 1.0
C      1  0.4950180000000  0.4584370000000  0.5578000000000 1.0
C      1  0.5049820000000  0.5415630000000  0.4422000000000 1.0
C      1  0.4937680000000  0.4909880000000  0.4273160000000 1.0
C      1  0.5062320000000  0.5090120000000  0.5726840000000 1.0
C      1  0.5138380000000  0.5537830000000  0.5405010000000 1.0
C      1  0.4861620000000  0.4462170000000  0.4594990000000 1.0
C      1  0.4860330000000  0.4262370000000  0.5235280000000 1.0
C      1  0.5139670000000  0.5737630000000  0.4764720000000 1.0
C      1  0.4796710000000  0.5245580000000  0.5583540000000 1.0
C      1  0.5203290000000  0.4754420000000  0.4416460000000 1.0
C      1  0.4323950000000  0.4957360000000  0.4982070000000 1.0
C      1  0.5676050000000  0.5042640000000  0.5017930000000 1.0
C      1  0.5405760000000  0.4540360000000  0.4511660000000 1.0
C      1  0.4594240000000  0.5459640000000  0.5488340000000 1.0
C      1  0.4356150000000  0.5168570000000  0.4748750000000 1.0
C      1  0.5643850000000  0.4831430000000  0.5251250000000 1.0
C      1  0.4898530000000  0.4770750000000  0.5284230000000 1.0
C      1  0.5101470000000  0.5229250000000  0.4715770000000 1.0
C      1  0.5267040000000  0.5475810000000  0.5148490000000 1.0
C      1  0.4732960000000  0.4524190000000  0.4851510000000 1.0
C      1  0.4782120000000  0.4686840000000  0.4146340000000 1.0
C      1  0.5217880000000  0.5313160000000  0.5853660000000 1.0
C      1  0.5514510000000  0.5367340000000  0.4782010000000 1.0
C      1  0.4485490000000  0.4632660000000  0.5217990000000 1.0
C      1  0.5632600000000  0.4917810000000  0.4476860000000 1.0
C      1  0.4367400000000  0.5082190000000  0.5523140000000 1.0
C      1  0.5257510000000  0.4976010000000  0.5501380000000 1.0
C      1  0.4742490000000  0.5023990000000  0.4498620000000 1.0
C      1  0.4929030000000  0.4522400000000  0.5082240000000 1.0
C      1  0.5070970000000  0.5477600000000  0.4917760000000 1.0
C      1  0.5135290000000  0.5156910000000  0.4236070000000 1.0
C      1  0.4864710000000  0.4843090000000  0.5763930000000 1.0
C      1  0.5330150000000  0.5562210000000  0.4597690000000 1.0
C      1  0.4669850000000  0.4437790000000  0.5402310000000 1.0
C      1  0.4928100000000  0.5744990000000  0.5351760000000 1.0
C      1  0.5071900000000  0.4255010000000  0.4648240000000 1.0
C      1  0.5108870000000  0.4978730000000  0.5222050000000 1.0
C      1  0.4891130000000  0.5021270000000  0.4777950000000 1.0
C      1  0.5527640000000  0.5097110000000  0.5406940000000 1.0
C      1  0.4472360000000  0.4902890000000  0.4593060000000 1.0
C      1  0.5484800000000  0.5005760000000  0.4785170000000 1.0
C      1  0.4515200000000  0.4994240000000  0.5214830000000 1.0
C      1  0.5276090000000  0.5529270000000  0.5668100000000 1.0
C      1  0.4723910000000  0.4470730000000  0.4331900000000 1.0
END
