TITL C-3985250-725-1116 3.9978504361364e-07 125000 -329.899305224249 0 0 60 (C3h) n - 1
REM
REM in /home/nfs/bkarasulu/CARBON/AIRSS/Generating-Clusters/TERSOFF/Higher-Symm/Only-C60
REM
REM
REM
REM
REM
REM ./C.cell (28575a23ae977d3b5fae324c64b13b57)
REM
REM compiler GCC version 9.2.1 20190827 (Red Hat 9.2.1-1)
REM options -cpp -mtune=generic -march=x86-64 -g -O0 -fpre-include=/usr/include/finclude/math-vector-fortran.h
REM seed 181018774 2117269722 -669879391 1479866841 355401011 1606437944 -1275780424 -925635614 -553337293 -1741303788 1684692386 -2018735250 219915132 930622737 -1367836601 -1193320552 -1478822050 1560814370 -1553093891 1485697444 1941624957 -1938452581 -1774013808 -749864307 -216245147 1903405973 -1449229516 265849381 -804972468 1017162134 -1192086369 -1682942772 532258355
REM
CELL 1.54180   50.00000   50.00000   50.00000   90.00000   90.00000   90.00000
LATT -1
SFAC C  
C      1  0.4418930000000  0.5589200000000  0.4858300000000 1.0
C      1  0.4418930000000  0.4582690000000  0.4560590000000 1.0
C      1  0.4418930000000  0.4828110000000  0.5581110000000 1.0
C      1  0.5581070000000  0.5589200000000  0.4858300000000 1.0
C      1  0.5581070000000  0.4582690000000  0.4560590000000 1.0
C      1  0.5581070000000  0.4828110000000  0.5581110000000 1.0
C      1  0.5301910000000  0.4480170000000  0.4541290000000 1.0
C      1  0.5301910000000  0.4862660000000  0.5679540000000 1.0
C      1  0.5301910000000  0.5657170000000  0.4779170000000 1.0
C      1  0.4698090000000  0.4480170000000  0.4541290000000 1.0
C      1  0.4698090000000  0.4862660000000  0.5679540000000 1.0
C      1  0.4698090000000  0.5657170000000  0.4779170000000 1.0
C      1  0.5579170000000  0.4888720000000  0.5285280000000 1.0
C      1  0.5579170000000  0.5302700000000  0.4953730000000 1.0
C      1  0.5579170000000  0.4808580000000  0.4760980000000 1.0
C      1  0.4420830000000  0.4888720000000  0.5285280000000 1.0
C      1  0.4420830000000  0.5302700000000  0.4953730000000 1.0
C      1  0.4420830000000  0.4808580000000  0.4760980000000 1.0
C      1  0.4748170000000  0.4885560000000  0.4731720000000 1.0
C      1  0.4748170000000  0.4824880000000  0.5233250000000 1.0
C      1  0.4748170000000  0.5289560000000  0.5035030000000 1.0
C      1  0.5251830000000  0.4885560000000  0.4731720000000 1.0
C      1  0.5251830000000  0.4824880000000  0.5233250000000 1.0
C      1  0.5251830000000  0.5289560000000  0.5035030000000 1.0
C      1  0.4405500000000  0.5204890000000  0.5261170000000 1.0
C      1  0.4405500000000  0.5123740000000  0.4691970000000 1.0
C      1  0.4405500000000  0.4671370000000  0.5046860000000 1.0
C      1  0.5594500000000  0.5204890000000  0.5261170000000 1.0
C      1  0.5594500000000  0.5123740000000  0.4691970000000 1.0
C      1  0.5594500000000  0.4671370000000  0.5046860000000 1.0
C      1  0.4819780000000  0.4410160000000  0.4828540000000 1.0
C      1  0.4819780000000  0.5146430000000  0.5596540000000 1.0
C      1  0.4819780000000  0.5443410000000  0.4574920000000 1.0
C      1  0.5180220000000  0.4410160000000  0.4828540000000 1.0
C      1  0.5180220000000  0.5146430000000  0.5596540000000 1.0
C      1  0.5180220000000  0.5443410000000  0.4574920000000 1.0
C      1  0.4849400000000  0.5588430000000  0.5046370000000 1.0
C      1  0.4849390000000  0.4745950000000  0.4467220000000 1.0
C      1  0.4849400000000  0.4665630000000  0.5486400000000 1.0
C      1  0.5150600000000  0.5588430000000  0.5046370000000 1.0
C      1  0.5150610000000  0.4745950000000  0.4467220000000 1.0
C      1  0.5150600000000  0.4665630000000  0.5486400000000 1.0
C      1  0.4623570000000  0.4398150000000  0.5087100000000 1.0
C      1  0.4623570000000  0.5376360000000  0.5477670000000 1.0
C      1  0.4623570000000  0.5225500000000  0.4435230000000 1.0
C      1  0.5376430000000  0.4398150000000  0.5087100000000 1.0
C      1  0.5376430000000  0.5376360000000  0.5477670000000 1.0
C      1  0.5376430000000  0.5225500000000  0.4435230000000 1.0
C      1  0.5148070000000  0.5102890000000  0.5257660000000 1.0
C      1  0.5148070000000  0.5171700000000  0.4782060000000 1.0
C      1  0.5148070000000  0.4725410000000  0.4960280000000 1.0
C      1  0.4851930000000  0.5102890000000  0.5257660000000 1.0
C      1  0.4851930000000  0.5171700000000  0.4782060000000 1.0
C      1  0.4851930000000  0.4725410000000  0.4960280000000 1.0
C      1  0.5182030000000  0.5597570000000  0.5366560000000 1.0
C      1  0.5182030000000  0.5018670000000  0.4299210000000 1.0
C      1  0.5182030000000  0.4383760000000  0.5334230000000 1.0
C      1  0.4817970000000  0.5597570000000  0.5366560000000 1.0
C      1  0.4817970000000  0.5018670000000  0.4299210000000 1.0
C      1  0.4817970000000  0.4383760000000  0.5334230000000 1.0
END
