TITL C-3985259-1859-1155 -0.0152152226962189 125000 -301.28494810582 0 0 60 (D5) n - 1
REM
REM in /home/nfs/bkarasulu/CARBON/AIRSS/Generating-Clusters/TERSOFF/Higher-Symm/Only-C60
REM
REM
REM
REM
REM
REM ./C.cell (28575a23ae977d3b5fae324c64b13b57)
REM
REM compiler GCC version 9.2.1 20190827 (Red Hat 9.2.1-1)
REM options -cpp -mtune=generic -march=x86-64 -g -O0 -fpre-include=/usr/include/finclude/math-vector-fortran.h
REM seed 2134620385 1123086444 -1579337389 -1494323034 52154435 -1893611942 -2061011841 1199415265 260849497 501174147 -431443651 -1718870559 -1860228781 -1056625888 961859082 -1460099029 1571999878 -2104080290 -1783015943 -850482609 1360296769 -995322081 -1143674811 165331725 -1820969894 997790287 1476960986 479815267 1508913743 881416484 -2061612231 -931393803 -678586476
REM
CELL 1.54180   50.00000   50.00000   50.00000   90.00000   90.00000   90.00000
LATT -1
SFAC C  
C      1  0.4799940000000  0.5589220000000  0.5372400000000 1.0
C      1  0.4799890000000  0.4827840000000  0.5675500000000 1.0
C      1  0.4799930000000  0.4304290000000  0.5045060000000 1.0
C      1  0.4799820000000  0.4742320000000  0.4352110000000 1.0
C      1  0.4799810000000  0.5536520000000  0.4554890000000 1.0
C      1  0.5200060000000  0.4410780000000  0.5372400000000 1.0
C      1  0.5200110000000  0.5172160000000  0.5675500000000 1.0
C      1  0.5200070000000  0.5695710000000  0.5045060000000 1.0
C      1  0.5200180000000  0.5257680000000  0.4352110000000 1.0
C      1  0.5200190000000  0.4463480000000  0.4554890000000 1.0
C      1  0.4401520000000  0.4824920000000  0.4745340000000 1.0
C      1  0.4401540000000  0.5188120000000  0.4754760000000 1.0
C      1  0.4401520000000  0.5291280000000  0.5103170000000 1.0
C      1  0.4401520000000  0.4991870000000  0.5308870000000 1.0
C      1  0.4401490000000  0.4703750000000  0.5087740000000 1.0
C      1  0.5598480000000  0.5175080000000  0.4745340000000 1.0
C      1  0.5598460000000  0.4811880000000  0.4754760000000 1.0
C      1  0.5598480000000  0.4708720000000  0.5103170000000 1.0
C      1  0.5598480000000  0.5008130000000  0.5308870000000 1.0
C      1  0.5598510000000  0.5296250000000  0.5087740000000 1.0
C      1  0.4544090000000  0.4771690000000  0.5535270000000 1.0
C      1  0.4544060000000  0.4420330000000  0.4948300000000 1.0
C      1  0.4544080000000  0.4870040000000  0.4432820000000 1.0
C      1  0.4544180000000  0.5499150000000  0.4701340000000 1.0
C      1  0.4544130000000  0.5438460000000  0.5382570000000 1.0
C      1  0.5455910000000  0.5228310000000  0.5535270000000 1.0
C      1  0.5455940000000  0.5579670000000  0.4948300000000 1.0
C      1  0.5455920000000  0.5129960000000  0.4432820000000 1.0
C      1  0.5455820000000  0.4500850000000  0.4701340000000 1.0
C      1  0.5455870000000  0.4561540000000  0.5382570000000 1.0
C      1  0.5196760000000  0.4927780000000  0.4755360000000 1.0
C      1  0.5196680000000  0.5210310000000  0.4855720000000 1.0
C      1  0.5196710000000  0.5202210000000  0.5155380000000 1.0
C      1  0.5196730000000  0.4914680000000  0.5240350000000 1.0
C      1  0.5196810000000  0.4744970000000  0.4993050000000 1.0
C      1  0.4803240000000  0.5072220000000  0.4755360000000 1.0
C      1  0.4803320000000  0.4789690000000  0.4855720000000 1.0
C      1  0.4803290000000  0.4797790000000  0.5155380000000 1.0
C      1  0.4803270000000  0.5085320000000  0.5240350000000 1.0
C      1  0.4803190000000  0.5255030000000  0.4993050000000 1.0
C      1  0.4918180000000  0.5565310000000  0.4971030000000 1.0
C      1  0.4918170000000  0.5202230000000  0.5528540000000 1.0
C      1  0.4918140000000  0.4559790000000  0.5355640000000 1.0
C      1  0.4918230000000  0.4525520000000  0.4691380000000 1.0
C      1  0.4918290000000  0.5146880000000  0.4453260000000 1.0
C      1  0.5081820000000  0.4434690000000  0.4971030000000 1.0
C      1  0.5081830000000  0.4797770000000  0.5528540000000 1.0
C      1  0.5081860000000  0.5440210000000  0.5355640000000 1.0
C      1  0.5081770000000  0.5474480000000  0.4691380000000 1.0
C      1  0.5081710000000  0.4853120000000  0.4453260000000 1.0
C      1  0.4561850000000  0.5189370000000  0.5567350000000 1.0
C      1  0.4561850000000  0.4518960000000  0.5355430000000 1.0
C      1  0.4561790000000  0.4513300000000  0.4652410000000 1.0
C      1  0.4561790000000  0.5180340000000  0.4429590000000 1.0
C      1  0.4561820000000  0.5598300000000  0.4995380000000 1.0
C      1  0.5438150000000  0.4810630000000  0.5567350000000 1.0
C      1  0.5438150000000  0.5481040000000  0.5355430000000 1.0
C      1  0.5438210000000  0.5486700000000  0.4652410000000 1.0
C      1  0.5438210000000  0.4819660000000  0.4429590000000 1.0
C      1  0.5438180000000  0.4401700000000  0.4995380000000 1.0
END
