TITL C-3985245-9316-624 -3.81827271727156e-05 125000 -322.125501022225 0 0 60 (C2) n - 1
REM
REM in /home/nfs/bkarasulu/CARBON/AIRSS/Generating-Clusters/TERSOFF/Higher-Symm/Only-C60
REM
REM
REM
REM
REM
REM ./C.cell (28575a23ae977d3b5fae324c64b13b57)
REM
REM compiler GCC version 9.2.1 20190827 (Red Hat 9.2.1-1)
REM options -cpp -mtune=generic -march=x86-64 -g -O0 -fpre-include=/usr/include/finclude/math-vector-fortran.h
REM seed -1236798759 -129992293 1460922090 -403782803 369756625 1963519805 268442659 57635863 -1330774503 -1801680717 674837247 1555829528 1510872172 2069246696 -1719533533 886080876 -1477888611 888267475 625888401 2112353654 -799002317 25583799 -1559093964 1604782018 2086628675 698061875 1065069761 -619639980 -1056054207 1119907125 -1875250110 1982468991 -1078946025
REM
CELL 1.54180   50.00000   50.00000   50.00000   90.00000   90.00000   90.00000
LATT -1
SFAC C  
C      1  0.4705540000000  0.4730170000000  0.5284750000000 1.0
C      1  0.4599630000000  0.4851420000000  0.5000950000000 1.0
C      1  0.4657730000000  0.4720170000000  0.4713200000000 1.0
C      1  0.4825480000000  0.4879010000000  0.4513600000000 1.0
C      1  0.5132420000000  0.4950940000000  0.4548720000000 1.0
C      1  0.5294480000000  0.4730260000000  0.4715250000000 1.0
C      1  0.5400390000000  0.4851510000000  0.4999060000000 1.0
C      1  0.5342290000000  0.4720210000000  0.5286770000000 1.0
C      1  0.5174520000000  0.4879000000000  0.5486390000000 1.0
C      1  0.4867580000000  0.4950860000000  0.5451290000000 1.0
C      1  0.4684740000000  0.4963610000000  0.4270980000000 1.0
C      1  0.5121140000000  0.5018910000000  0.4228490000000 1.0
C      1  0.5531640000000  0.4743400000000  0.4526390000000 1.0
C      1  0.5701810000000  0.4888300000000  0.4912790000000 1.0
C      1  0.5611940000000  0.4724660000000  0.5442470000000 1.0
C      1  0.5315260000000  0.4963630000000  0.5728990000000 1.0
C      1  0.4878750000000  0.5018770000000  0.5771540000000 1.0
C      1  0.4468380000000  0.4743310000000  0.5473610000000 1.0
C      1  0.4298210000000  0.4888250000000  0.5087210000000 1.0
C      1  0.4388090000000  0.4724580000000  0.4557500000000 1.0
C      1  0.5418930000000  0.4311610000000  0.5144460000000 1.0
C      1  0.5308170000000  0.4320400000000  0.5410810000000 1.0
C      1  0.5036570000000  0.4395750000000  0.5473810000000 1.0
C      1  0.4832940000000  0.4463190000000  0.5276900000000 1.0
C      1  0.4733250000000  0.4258980000000  0.5095600000000 1.0
C      1  0.4581130000000  0.4311540000000  0.4855550000000 1.0
C      1  0.4691900000000  0.4320360000000  0.4589180000000 1.0
C      1  0.4963480000000  0.4395810000000  0.4526200000000 1.0
C      1  0.5167090000000  0.4463270000000  0.4723110000000 1.0
C      1  0.5266820000000  0.4259050000000  0.4904390000000 1.0
C      1  0.4629050000000  0.5221010000000  0.5501270000000 1.0
C      1  0.4382520000000  0.5336060000000  0.5305320000000 1.0
C      1  0.4507780000000  0.5115700000000  0.4803230000000 1.0
C      1  0.4641210000000  0.5467800000000  0.4311380000000 1.0
C      1  0.4943830000000  0.5509890000000  0.4245640000000 1.0
C      1  0.5370950000000  0.5221070000000  0.4498700000000 1.0
C      1  0.5617550000000  0.5336080000000  0.4694640000000 1.0
C      1  0.5492270000000  0.5115790000000  0.5196750000000 1.0
C      1  0.5358510000000  0.5467830000000  0.5688590000000 1.0
C      1  0.5055920000000  0.5509820000000  0.5754540000000 1.0
C      1  0.5209880000000  0.5432880000000  0.4674150000000 1.0
C      1  0.5425660000000  0.5507920000000  0.4890980000000 1.0
C      1  0.5407270000000  0.5394490000000  0.5159410000000 1.0
C      1  0.5308320000000  0.5550070000000  0.5385040000000 1.0
C      1  0.4996980000000  0.5592060000000  0.5451520000000 1.0
C      1  0.4790210000000  0.5432760000000  0.5325840000000 1.0
C      1  0.4574440000000  0.5507850000000  0.5108980000000 1.0
C      1  0.4592810000000  0.5394390000000  0.4840560000000 1.0
C      1  0.4691730000000  0.5549960000000  0.4614910000000 1.0
C      1  0.5003060000000  0.5592200000000  0.4548580000000 1.0
C      1  0.5564950000000  0.4997150000000  0.4396050000000 1.0
C      1  0.5798280000000  0.5136110000000  0.4801770000000 1.0
C      1  0.5668900000000  0.5019200000000  0.5416790000000 1.0
C      1  0.5465870000000  0.5208700000000  0.5754420000000 1.0
C      1  0.4905900000000  0.5290610000000  0.5882370000000 1.0
C      1  0.4435070000000  0.4997070000000  0.5603930000000 1.0
C      1  0.4201770000000  0.5136100000000  0.5198190000000 1.0
C      1  0.4331150000000  0.5019120000000  0.4583190000000 1.0
C      1  0.4534000000000  0.5208610000000  0.4245570000000 1.0
C      1  0.5093880000000  0.5290750000000  0.4117720000000 1.0
END
