TITL C-3985244-725-329 0.000188283466516377 125000 -324.893457692295 0 0 60 (D2) n - 1
REM
REM in /home/nfs/bkarasulu/CARBON/AIRSS/Generating-Clusters/TERSOFF/Higher-Symm/Only-C60
REM
REM
REM
REM
REM
REM ./C.cell (28575a23ae977d3b5fae324c64b13b57)
REM
REM compiler GCC version 9.2.1 20190827 (Red Hat 9.2.1-1)
REM options -cpp -mtune=generic -march=x86-64 -g -O0 -fpre-include=/usr/include/finclude/math-vector-fortran.h
REM seed -2130594820 2074772057 -1751738937 -1216901014 2054201299 -667316301 -635628584 625038112 264450206 496552056 1906895606 -1323554584 -1765843778 -333808074 -1809792665 1542490962 -1469252024 -517021446 -1348788669 941509396 582448826 -916084882 -69344094 1027728462 1625558308 1337650332 1215568430 -345365240 -702073496 890543969 1414264089 -85457436 -1314836170
REM
CELL 1.54180   50.00000   50.00000   50.00000   90.00000   90.00000   90.00000
LATT -1
SFAC C  
C      1  0.4781420000000  0.4415390000000  0.4813880000000 1.0
C      1  0.4781430000000  0.5584610000000  0.5186130000000 1.0
C      1  0.5218570000000  0.4415390000000  0.5186140000000 1.0
C      1  0.5218560000000  0.5584600000000  0.4813880000000 1.0
C      1  0.5438330000000  0.4489740000000  0.5375330000000 1.0
C      1  0.5438300000000  0.5510250000000  0.4624660000000 1.0
C      1  0.4561690000000  0.4489720000000  0.4624640000000 1.0
C      1  0.4561660000000  0.5510380000000  0.5375320000000 1.0
C      1  0.5084770000000  0.5125780000000  0.4653000000000 1.0
C      1  0.5084800000000  0.4874190000000  0.5346990000000 1.0
C      1  0.4915340000000  0.5125790000000  0.5346990000000 1.0
C      1  0.4915290000000  0.4874210000000  0.4653020000000 1.0
C      1  0.5007500000000  0.4700490000000  0.5597010000000 1.0
C      1  0.5007500000000  0.5299510000000  0.4403000000000 1.0
C      1  0.4992510000000  0.4700470000000  0.4402960000000 1.0
C      1  0.4992500000000  0.5299540000000  0.5597050000000 1.0
C      1  0.4710880000000  0.4214760000000  0.5008940000000 1.0
C      1  0.4710920000000  0.5785230000000  0.4991030000000 1.0
C      1  0.5289110000000  0.4214800000000  0.4991050000000 1.0
C      1  0.5289090000000  0.5785200000000  0.5008960000000 1.0
C      1  0.5336250000000  0.4321860000000  0.4513520000000 1.0
C      1  0.5336250000000  0.5678140000000  0.5486480000000 1.0
C      1  0.4663750000000  0.4321870000000  0.5486450000000 1.0
C      1  0.4663720000000  0.5678110000000  0.4513510000000 1.0
C      1  0.4638140000000  0.4850240000000  0.5025700000000 1.0
C      1  0.4638220000000  0.5149830000000  0.4974240000000 1.0
C      1  0.5361780000000  0.4850180000000  0.4974300000000 1.0
C      1  0.5361850000000  0.5149820000000  0.5025630000000 1.0
C      1  0.4377750000000  0.4549900000000  0.5158440000000 1.0
C      1  0.4377740000000  0.5450100000000  0.4841570000000 1.0
C      1  0.5622260000000  0.4549930000000  0.4841540000000 1.0
C      1  0.5622210000000  0.5450030000000  0.5158420000000 1.0
C      1  0.5425350000000  0.5090730000000  0.4614700000000 1.0
C      1  0.5425460000000  0.4909160000000  0.5385220000000 1.0
C      1  0.4574540000000  0.5090900000000  0.5385140000000 1.0
C      1  0.4574590000000  0.4909180000000  0.4614770000000 1.0
C      1  0.5327970000000  0.5340330000000  0.4386370000000 1.0
C      1  0.5328030000000  0.4659700000000  0.5613630000000 1.0
C      1  0.4671950000000  0.5340230000000  0.5613530000000 1.0
C      1  0.4672000000000  0.4659730000000  0.4386410000000 1.0
C      1  0.5273370000000  0.5396180000000  0.5535160000000 1.0
C      1  0.5273360000000  0.4603840000000  0.4464870000000 1.0
C      1  0.4726640000000  0.5396140000000  0.4464930000000 1.0
C      1  0.4726630000000  0.4603810000000  0.5535110000000 1.0
C      1  0.5113680000000  0.5305650000000  0.4910910000000 1.0
C      1  0.5113690000000  0.4694350000000  0.5089090000000 1.0
C      1  0.4886340000000  0.5305630000000  0.5089100000000 1.0
C      1  0.4886290000000  0.4694360000000  0.4910960000000 1.0
C      1  0.5600100000000  0.4686510000000  0.5161650000000 1.0
C      1  0.5600220000000  0.5313620000000  0.4838470000000 1.0
C      1  0.4399880000000  0.4686460000000  0.4838360000000 1.0
C      1  0.4399950000000  0.5313470000000  0.5161710000000 1.0
C      1  0.4551150000000  0.4772850000000  0.5347530000000 1.0
C      1  0.4551200000000  0.5227110000000  0.4652550000000 1.0
C      1  0.5448790000000  0.4772850000000  0.4652500000000 1.0
C      1  0.5448820000000  0.5227140000000  0.5347530000000 1.0
C      1  0.4530830000000  0.5715040000000  0.4775050000000 1.0
C      1  0.4530820000000  0.4284930000000  0.5224940000000 1.0
C      1  0.5469140000000  0.5715020000000  0.5224950000000 1.0
C      1  0.5469160000000  0.4284980000000  0.4775050000000 1.0
END
