TITL C-3985250-725-285 -0.00275978977102894 125000 -302.300075621442 0 0 60 (S4) n - 1
REM
REM in /home/nfs/bkarasulu/CARBON/AIRSS/Generating-Clusters/TERSOFF/Higher-Symm/Only-C60
REM
REM
REM
REM
REM
REM ./C.cell (28575a23ae977d3b5fae324c64b13b57)
REM
REM compiler GCC version 9.2.1 20190827 (Red Hat 9.2.1-1)
REM options -cpp -mtune=generic -march=x86-64 -g -O0 -fpre-include=/usr/include/finclude/math-vector-fortran.h
REM seed -644736728 1474673214 -1339130185 -1460531139 1695392455 1900347333 792773598 1618012611 436087772 -316024428 729255009 799972017 746758460 -454616858 1202707041 484016405 -1692739534 -686144128 -1998768199 -2038155491 1149627392 -2044092306 1116108844 -1754445372 -1278245175 118551982 -1164679079 -1594757202 -1039513262 434396934 495683215 1098604424 1509348429
REM
CELL 1.54180   50.00000   50.00000   50.00000   90.00000   90.00000   90.00000
LATT -1
SFAC C  
C      1  0.4635200000000  0.4351460000000  0.4982240000000 1.0
C      1  0.4635390000000  0.5648640000000  0.5017650000000 1.0
C      1  0.5364590000000  0.5648640000000  0.4982350000000 1.0
C      1  0.5364810000000  0.4351460000000  0.5017760000000 1.0
C      1  0.4635230000000  0.4982300000000  0.4351300000000 1.0
C      1  0.4635310000000  0.5017670000000  0.5648670000000 1.0
C      1  0.5364660000000  0.4982320000000  0.5648660000000 1.0
C      1  0.5364800000000  0.5017690000000  0.4351290000000 1.0
C      1  0.4762280000000  0.4994710000000  0.5241090000000 1.0
C      1  0.4762270000000  0.5005250000000  0.4758900000000 1.0
C      1  0.5237730000000  0.5005260000000  0.5241100000000 1.0
C      1  0.5237720000000  0.4994720000000  0.4758920000000 1.0
C      1  0.4762260000000  0.5241100000000  0.4994760000000 1.0
C      1  0.4762330000000  0.4758830000000  0.5005230000000 1.0
C      1  0.5237740000000  0.5241100000000  0.5005250000000 1.0
C      1  0.5237670000000  0.4758830000000  0.4994780000000 1.0
C      1  0.4473660000000  0.4956760000000  0.4615760000000 1.0
C      1  0.4473670000000  0.5043250000000  0.5384220000000 1.0
C      1  0.5526340000000  0.5043220000000  0.4615770000000 1.0
C      1  0.5526340000000  0.4956730000000  0.5384230000000 1.0
C      1  0.4473590000000  0.4615810000000  0.4956830000000 1.0
C      1  0.4473670000000  0.5384240000000  0.5043250000000 1.0
C      1  0.5526400000000  0.4615820000000  0.5043180000000 1.0
C      1  0.5526340000000  0.5384250000000  0.4956760000000 1.0
C      1  0.4878000000000  0.4318070000000  0.4827040000000 1.0
C      1  0.4878860000000  0.5682360000000  0.5171610000000 1.0
C      1  0.5121150000000  0.5682360000000  0.4828380000000 1.0
C      1  0.5121990000000  0.4318070000000  0.5172950000000 1.0
C      1  0.4878300000000  0.4827450000000  0.4317940000000 1.0
C      1  0.4878660000000  0.5171910000000  0.5682260000000 1.0
C      1  0.5121290000000  0.4828110000000  0.5682250000000 1.0
C      1  0.5121750000000  0.5172570000000  0.4317930000000 1.0
C      1  0.4342720000000  0.5443040000000  0.4768790000000 1.0
C      1  0.4342730000000  0.4556930000000  0.5231240000000 1.0
C      1  0.5657280000000  0.4556930000000  0.4768770000000 1.0
C      1  0.5657270000000  0.5443050000000  0.5231220000000 1.0
C      1  0.4342740000000  0.4768790000000  0.5443070000000 1.0
C      1  0.4342760000000  0.5231180000000  0.4556970000000 1.0
C      1  0.5657250000000  0.4768790000000  0.4556940000000 1.0
C      1  0.5657250000000  0.5231180000000  0.5443030000000 1.0
C      1  0.4920490000000  0.5465900000000  0.4769590000000 1.0
C      1  0.4920510000000  0.4533730000000  0.5230610000000 1.0
C      1  0.5079510000000  0.4533740000000  0.4769390000000 1.0
C      1  0.5079500000000  0.5465910000000  0.5230410000000 1.0
C      1  0.4920480000000  0.4769560000000  0.5465880000000 1.0
C      1  0.4920530000000  0.5230500000000  0.4533910000000 1.0
C      1  0.5079510000000  0.4769530000000  0.4533970000000 1.0
C      1  0.5079470000000  0.5230470000000  0.5465940000000 1.0
C      1  0.5374320000000  0.5339710000000  0.5597810000000 1.0
C      1  0.5374250000000  0.4660270000000  0.4402210000000 1.0
C      1  0.4625690000000  0.4660270000000  0.5597770000000 1.0
C      1  0.4625740000000  0.5339710000000  0.4402180000000 1.0
C      1  0.5374290000000  0.5597770000000  0.5339700000000 1.0
C      1  0.5374090000000  0.4402160000000  0.4660360000000 1.0
C      1  0.4625710000000  0.5597770000000  0.4660300000000 1.0
C      1  0.4625900000000  0.4402160000000  0.5339630000000 1.0
C      1  0.4339350000000  0.5276040000000  0.5276010000000 1.0
C      1  0.5660690000000  0.4723980000000  0.5276020000000 1.0
C      1  0.5660660000000  0.5276040000000  0.4724000000000 1.0
C      1  0.4339290000000  0.4723990000000  0.4724000000000 1.0
END
