TITL C-3985245-9316-848 -0.00050658890272988 125000 -335.363370870079 0 0 60 (C5) n - 1
REM
REM in /home/nfs/bkarasulu/CARBON/AIRSS/Generating-Clusters/TERSOFF/Higher-Symm/Only-C60
REM
REM
REM
REM
REM
REM ./C.cell (28575a23ae977d3b5fae324c64b13b57)
REM
REM compiler GCC version 9.2.1 20190827 (Red Hat 9.2.1-1)
REM options -cpp -mtune=generic -march=x86-64 -g -O0 -fpre-include=/usr/include/finclude/math-vector-fortran.h
REM seed 1565058957 -128690278 -687178431 1380154394 -15722393 -412583092 -264090399 -137284777 1030402390 1676866259 865973630 1279275994 -986482595 1302028296 -1773005000 983514040 1851227585 -1220873217 -1760677136 -1791646149 -1716607494 1782650486 9923558 1236071835 -1718841238 -1843618903 -25170020 -28355227 1571541481 942194732 -883235540 29335884 -237752550
REM
CELL 1.54180   50.00000   50.00000   50.00000   90.00000   90.00000   90.00000
LATT -1
SFAC C  
C      1  0.5433300000000  0.4419590000000  0.5125530000000 1.0
C      1  0.5253320000000  0.4419680000000  0.4626540000000 1.0
C      1  0.4723120000000  0.4419770000000  0.4643530000000 1.0
C      1  0.4575450000000  0.4419730000000  0.5153010000000 1.0
C      1  0.5014350000000  0.4419620000000  0.5450900000000 1.0
C      1  0.5735470000000  0.4737870000000  0.4802820000000 1.0
C      1  0.5039750000000  0.4738070000000  0.4239530000000 1.0
C      1  0.4289060000000  0.4738110000000  0.4727130000000 1.0
C      1  0.4520790000000  0.4737930000000  0.5591770000000 1.0
C      1  0.5414720000000  0.4737790000000  0.5638530000000 1.0
C      1  0.4430940000000  0.4794890000000  0.5274740000000 1.0
C      1  0.5085460000000  0.4794730000000  0.5626050000000 1.0
C      1  0.5621830000000  0.4794720000000  0.5112130000000 1.0
C      1  0.5298810000000  0.4794880000000  0.4443200000000 1.0
C      1  0.4562800000000  0.4794980000000  0.4543700000000 1.0
C      1  0.4746470000000  0.4539270000000  0.5385340000000 1.0
C      1  0.5288160000000  0.4539190000000  0.5360070000000 1.0
C      1  0.5431510000000  0.4539270000000  0.4837100000000 1.0
C      1  0.4978430000000  0.4539400000000  0.4539160000000 1.0
C      1  0.4555060000000  0.4539400000000  0.4877980000000 1.0
C      1  0.5055590000000  0.5271980000000  0.5658910000000 1.0
C      1  0.5643830000000  0.5271970000000  0.5150820000000 1.0
C      1  0.5342380000000  0.5272130000000  0.4434360000000 1.0
C      1  0.4567830000000  0.5272240000000  0.4499660000000 1.0
C      1  0.4390590000000  0.5272150000000  0.5256470000000 1.0
C      1  0.5384710000000  0.5370480000000  0.4730630000000 1.0
C      1  0.4862680000000  0.5370590000000  0.4550970000000 1.0
C      1  0.4530500000000  0.5370570000000  0.4991940000000 1.0
C      1  0.4847240000000  0.5370450000000  0.5444130000000 1.0
C      1  0.5375170000000  0.5370390000000  0.5282630000000 1.0
C      1  0.4382930000000  0.5268300000000  0.4740850000000 1.0
C      1  0.4562840000000  0.5268150000000  0.5506860000000 1.0
C      1  0.5346950000000  0.5268010000000  0.5572460000000 1.0
C      1  0.5651650000000  0.5268080000000  0.4847000000000 1.0
C      1  0.5055850000000  0.5268260000000  0.4333040000000 1.0
C      1  0.4618030000000  0.5013610000000  0.4356840000000 1.0
C      1  0.4270280000000  0.5013540000000  0.5164540000000 1.0
C      1  0.4930990000000  0.5013340000000  0.5744850000000 1.0
C      1  0.5687070000000  0.5013290000000  0.5295810000000 1.0
C      1  0.5493650000000  0.5013460000000  0.4437970000000 1.0
C      1  0.5349820000000  0.4840000000000  0.4929440000000 1.0
C      1  0.5040980000000  0.4840070000000  0.4645440000000 1.0
C      1  0.4675480000000  0.4840120000000  0.4851380000000 1.0
C      1  0.4758410000000  0.4840010000000  0.5262710000000 1.0
C      1  0.5175190000000  0.4839940000000  0.5310910000000 1.0
C      1  0.5227920000000  0.5137920000000  0.4873530000000 1.0
C      1  0.4950110000000  0.5137950000000  0.4744200000000 1.0
C      1  0.4741300000000  0.5137990000000  0.4968400000000 1.0
C      1  0.4890010000000  0.5137910000000  0.5236320000000 1.0
C      1  0.5190770000000  0.5137860000000  0.5177650000000 1.0
C      1  0.4914720000000  0.5598110000000  0.5246500000000 1.0
C      1  0.5208050000000  0.5598080000000  0.5157440000000 1.0
C      1  0.5214000000000  0.5598130000000  0.4850940000000 1.0
C      1  0.4924340000000  0.5598190000000  0.4750570000000 1.0
C      1  0.4739370000000  0.5598180000000  0.4995040000000 1.0
C      1  0.5696350000000  0.5007870000000  0.4666200000000 1.0
C      1  0.4897720000000  0.5008060000000  0.4234590000000 1.0
C      1  0.4240440000000  0.5008070000000  0.4860750000000 1.0
C      1  0.4632850000000  0.5007870000000  0.5679350000000 1.0
C      1  0.5532650000000  0.5007750000000  0.5559120000000 1.0
END
