TITL C-3985253-1688-743 0.000314088792307986 125000 -320.435833109508 0 0 60 (C2h) n - 1
REM
REM in /home/nfs/bkarasulu/CARBON/AIRSS/Generating-Clusters/TERSOFF/Higher-Symm/Only-C60
REM
REM
REM
REM
REM
REM ./C.cell (28575a23ae977d3b5fae324c64b13b57)
REM
REM compiler GCC version 9.2.1 20190827 (Red Hat 9.2.1-1)
REM options -cpp -mtune=generic -march=x86-64 -g -O0 -fpre-include=/usr/include/finclude/math-vector-fortran.h
REM seed 1534190232 1265759806 -1761712781 117985022 391009553 -288604093 1940511199 1988423325 887436512 536654499 344217951 900225256 -1483433798 1820617437 -1013675759 -1876242421 102104281 -1775666448 -1620151018 1128967266 2147002428 678639857 -651182272 1746834508 1558691205 -155144333 1911182354 40539462 1583109920 1797014257 48976233 87511618 981512573
REM
CELL 1.54180   50.00000   50.00000   50.00000   90.00000   90.00000   90.00000
LATT -1
SFAC C  
C      1  0.5424480000000  0.4830080000000  0.5617290000000 1.0
C      1  0.4575520000000  0.4830080000000  0.4382710000000 1.0
C      1  0.5424480000000  0.5169920000000  0.5617290000000 1.0
C      1  0.4575520000000  0.5169920000000  0.4382710000000 1.0
C      1  0.5341180000000  0.5571900000000  0.5288760000000 1.0
C      1  0.4658820000000  0.5571900000000  0.4711240000000 1.0
C      1  0.5341180000000  0.4428100000000  0.5288760000000 1.0
C      1  0.4658820000000  0.4428100000000  0.4711240000000 1.0
C      1  0.4703230000000  0.5545610000000  0.5490980000000 1.0
C      1  0.5296770000000  0.5545610000000  0.4509020000000 1.0
C      1  0.4703230000000  0.4454390000000  0.5490980000000 1.0
C      1  0.5296770000000  0.4454390000000  0.4509020000000 1.0
C      1  0.4643030000000  0.4352910000000  0.5006260000000 1.0
C      1  0.5356970000000  0.4352910000000  0.4993740000000 1.0
C      1  0.4643030000000  0.5647090000000  0.5006260000000 1.0
C      1  0.5356970000000  0.5647090000000  0.4993740000000 1.0
C      1  0.5501150000000  0.5160040000000  0.5126980000000 1.0
C      1  0.4498850000000  0.5160040000000  0.4873020000000 1.0
C      1  0.5501150000000  0.4839960000000  0.5126980000000 1.0
C      1  0.4498850000000  0.4839960000000  0.4873020000000 1.0
C      1  0.4994990000000  0.4727430000000  0.4668660000000 1.0
C      1  0.5005010000000  0.4727430000000  0.5331340000000 1.0
C      1  0.4994990000000  0.5272570000000  0.4668660000000 1.0
C      1  0.5005010000000  0.5272570000000  0.5331340000000 1.0
C      1  0.4889180000000  0.5162180000000  0.4399630000000 1.0
C      1  0.5110820000000  0.5162180000000  0.5600370000000 1.0
C      1  0.4889180000000  0.4837820000000  0.4399630000000 1.0
C      1  0.5110820000000  0.4837820000000  0.5600370000000 1.0
C      1  0.4668900000000  0.5274840000000  0.5647790000000 1.0
C      1  0.5331100000000  0.5274840000000  0.4352210000000 1.0
C      1  0.4668900000000  0.4725160000000  0.5647790000000 1.0
C      1  0.5331100000000  0.4725160000000  0.4352210000000 1.0
C      1  0.5179540000000  0.5154190000000  0.5108260000000 1.0
C      1  0.4820460000000  0.5154190000000  0.4891740000000 1.0
C      1  0.5179540000000  0.4845810000000  0.5108260000000 1.0
C      1  0.4820460000000  0.4845810000000  0.4891740000000 1.0
C      1  0.4883410000000  0.5159230000000  0.5823180000000 1.0
C      1  0.5116590000000  0.5159230000000  0.4176820000000 1.0
C      1  0.4883410000000  0.4840770000000  0.5823180000000 1.0
C      1  0.5116590000000  0.4840770000000  0.4176820000000 1.0
C      1  0.4494200000000  0.4670450000000  0.4625000000000 1.0
C      1  0.5505800000000  0.4670450000000  0.5375000000000 1.0
C      1  0.4494200000000  0.5329550000000  0.4625000000000 1.0
C      1  0.5505800000000  0.5329550000000  0.5375000000000 1.0
C      1  0.5007200000000  0.4400070000000  0.5360380000000 1.0
C      1  0.4992800000000  0.4400070000000  0.4639620000000 1.0
C      1  0.5007200000000  0.5599930000000  0.5360380000000 1.0
C      1  0.4992800000000  0.5599930000000  0.4639620000000 1.0
C      1  0.5098870000000  0.5748070000000  0.4894040000000 1.0
C      1  0.4901130000000  0.5748070000000  0.5105960000000 1.0
C      1  0.5098870000000  0.4251930000000  0.4894040000000 1.0
C      1  0.4901130000000  0.4251930000000  0.5105960000000 1.0
C      1  0.4689480000000  0.4839520000000  0.5325430000000 1.0
C      1  0.5310520000000  0.4839520000000  0.4674570000000 1.0
C      1  0.4689480000000  0.5160480000000  0.5325430000000 1.0
C      1  0.5310520000000  0.5160480000000  0.4674570000000 1.0
C      1  0.5470510000000  0.4535400000000  0.4782390000000 1.0
C      1  0.4529490000000  0.4535400000000  0.5217610000000 1.0
C      1  0.5470510000000  0.5464600000000  0.4782390000000 1.0
C      1  0.4529490000000  0.5464600000000  0.5217610000000 1.0
END
