TITL C-3985259-1859-93 -0.000779677282845522 125000 -302.685554451875 0 0 60 (C1) n - 1
REM
REM in /home/nfs/bkarasulu/CARBON/AIRSS/Generating-Clusters/TERSOFF/Higher-Symm/Only-C60
REM
REM
REM
REM
REM
REM ./C.cell (28575a23ae977d3b5fae324c64b13b57)
REM
REM compiler GCC version 9.2.1 20190827 (Red Hat 9.2.1-1)
REM options -cpp -mtune=generic -march=x86-64 -g -O0 -fpre-include=/usr/include/finclude/math-vector-fortran.h
REM seed 1174136893 2000177310 -1189602854 1865166656 -2127196271 1766238805 417527579 -1890705278 -1843425015 -1222155916 -1829654988 -247559790 -1848329143 -1134442003 -176928108 941039256 -1998760382 1478835656 287193193 -162769947 -221995072 1807236727 1881116086 1286577732 1433660372 1524266106 682860434 394613840 1275093671 723084541 730548776 -752378093 -2051811525
REM
CELL 1.54180   50.00000   50.00000   50.00000   90.00000   90.00000   90.00000
LATT -1
SFAC C  
C      1  0.4665770000000  0.5561390000000  0.5199500000000 1.0
C      1  0.5641950000000  0.5008900000000  0.5206400000000 1.0
C      1  0.4685800000000  0.4435630000000  0.5211950000000 1.0
C      1  0.5536020000000  0.5144570000000  0.4436140000000 1.0
C      1  0.4848900000000  0.4464940000000  0.4443730000000 1.0
C      1  0.4606670000000  0.5395630000000  0.4433530000000 1.0
C      1  0.5209940000000  0.4353740000000  0.4681110000000 1.0
C      1  0.4328220000000  0.5137810000000  0.4673920000000 1.0
C      1  0.5458410000000  0.5513210000000  0.4678310000000 1.0
C      1  0.5307650000000  0.5300150000000  0.4348830000000 1.0
C      1  0.5094610000000  0.4588930000000  0.4352600000000 1.0
C      1  0.4594110000000  0.5118550000000  0.4349340000000 1.0
C      1  0.4861090000000  0.5516140000000  0.4398500000000 1.0
C      1  0.5507660000000  0.4864620000000  0.4400320000000 1.0
C      1  0.4616800000000  0.4624910000000  0.4410820000000 1.0
C      1  0.5190090000000  0.4916180000000  0.4814550000000 1.0
C      1  0.4826440000000  0.4878370000000  0.4821200000000 1.0
C      1  0.4977450000000  0.5214780000000  0.4812980000000 1.0
C      1  0.5415110000000  0.4786200000000  0.5329160000000 1.0
C      1  0.4593050000000  0.4736070000000  0.5333960000000 1.0
C      1  0.4981160000000  0.5456000000000  0.5326380000000 1.0
C      1  0.5293290000000  0.5624180000000  0.4899750000000 1.0
C      1  0.5390870000000  0.4440200000000  0.4900230000000 1.0
C      1  0.4311570000000  0.4936970000000  0.4896350000000 1.0
C      1  0.5696590000000  0.4933930000000  0.4903540000000 1.0
C      1  0.4595470000000  0.4425690000000  0.4909050000000 1.0
C      1  0.4709060000000  0.5642970000000  0.4896950000000 1.0
C      1  0.5471350000000  0.5428610000000  0.5510650000000 1.0
C      1  0.5161510000000  0.4374560000000  0.5507750000000 1.0
C      1  0.4372670000000  0.5171390000000  0.5502220000000 1.0
C      1  0.5272950000000  0.4755180000000  0.4521320000000 1.0
C      1  0.4639960000000  0.4885490000000  0.4526890000000 1.0
C      1  0.5074710000000  0.5369380000000  0.4518980000000 1.0
C      1  0.5510470000000  0.5213690000000  0.5713880000000 1.0
C      1  0.4976340000000  0.4492830000000  0.5695780000000 1.0
C      1  0.4597740000000  0.5273540000000  0.5669390000000 1.0
C      1  0.5416670000000  0.4519150000000  0.5470300000000 1.0
C      1  0.4361970000000  0.4876840000000  0.5473130000000 1.0
C      1  0.5210060000000  0.5568350000000  0.5501850000000 1.0
C      1  0.5616110000000  0.5226430000000  0.4709510000000 1.0
C      1  0.4885500000000  0.4356150000000  0.4716440000000 1.0
C      1  0.4494810000000  0.5423970000000  0.4706730000000 1.0
C      1  0.5375210000000  0.5199140000000  0.4944310000000 1.0
C      1  0.4982590000000  0.4579480000000  0.4952430000000 1.0
C      1  0.4638480000000  0.5232680000000  0.4940270000000 1.0
C      1  0.4876400000000  0.4724610000000  0.5557010000000 1.0
C      1  0.4782570000000  0.5236080000000  0.5437550000000 1.0
C      1  0.5337210000000  0.5032860000000  0.5552540000000 1.0
C      1  0.4225460000000  0.5117330000000  0.5107610000000 1.0
C      1  0.5489630000000  0.5604450000000  0.5113370000000 1.0
C      1  0.5280920000000  0.4279450000000  0.5115700000000 1.0
C      1  0.5007500000000  0.4358290000000  0.5238180000000 1.0
C      1  0.4429590000000  0.5317620000000  0.5225270000000 1.0
C      1  0.5556770000000  0.5327590000000  0.5232530000000 1.0
C      1  0.5177030000000  0.5170010000000  0.5311250000000 1.0
C      1  0.5064570000000  0.4863990000000  0.5282090000000 1.0
C      1  0.4775490000000  0.4998390000000  0.5257450000000 1.0
C      1  0.5017450000000  0.5502460000000  0.4971720000000 1.0
C      1  0.5421410000000  0.4739420000000  0.4971750000000 1.0
C      1  0.4555140000000  0.4759930000000  0.4975030000000 1.0
END
