TITL C-3985247-764-598 0.000351071812704471 125000 -315.548626230095 0 0 60 (C1) n - 1
REM
REM in /home/nfs/bkarasulu/CARBON/AIRSS/Generating-Clusters/TERSOFF/Higher-Symm/Only-C60
REM
REM
REM
REM
REM
REM ./C.cell (28575a23ae977d3b5fae324c64b13b57)
REM
REM compiler GCC version 9.2.1 20190827 (Red Hat 9.2.1-1)
REM options -cpp -mtune=generic -march=x86-64 -g -O0 -fpre-include=/usr/include/finclude/math-vector-fortran.h
REM seed -1509708192 1729199915 1221334555 30966065 -1945021663 -1378651677 -1201492321 -1958578718 623070170 -2008077705 -1202466505 -1352886694 -2084297548 -470226205 1213264910 -228870674 1812881705 1966662173 -917028033 1171668643 -1678321788 -1106120152 1186867560 -275495015 -2053552865 -2078955405 689634518 -1275715693 594140068 1350587925 833104470 36127246 -1810617968
REM
CELL 1.54180   50.00000   50.00000   50.00000   90.00000   90.00000   90.00000
LATT -1
SFAC C  
C      1  0.4992720000000  0.4694880000000  0.4685560000000 1.0
C      1  0.5258530000000  0.4682910000000  0.5123330000000 1.0
C      1  0.4787970000000  0.4710190000000  0.5144370000000 1.0
C      1  0.4505100000000  0.4670120000000  0.5311170000000 1.0
C      1  0.4940240000000  0.4636620000000  0.4354410000000 1.0
C      1  0.5566410000000  0.4644000000000  0.5280640000000 1.0
C      1  0.4468780000000  0.4910530000000  0.4693280000000 1.0
C      1  0.5555060000000  0.4891040000000  0.4694380000000 1.0
C      1  0.4989090000000  0.4934560000000  0.5600390000000 1.0
C      1  0.5507500000000  0.4585350000000  0.4699010000000 1.0
C      1  0.5012710000000  0.4635570000000  0.5590630000000 1.0
C      1  0.4497130000000  0.4613700000000  0.4734490000000 1.0
C      1  0.5423040000000  0.5517130000000  0.5168210000000 1.0
C      1  0.4658850000000  0.5541060000000  0.5368580000000 1.0
C      1  0.4837690000000  0.5538540000000  0.4490170000000 1.0
C      1  0.5663910000000  0.5087090000000  0.4921130000000 1.0
C      1  0.4735920000000  0.5084180000000  0.5634880000000 1.0
C      1  0.4573900000000  0.5079800000000  0.4453430000000 1.0
C      1  0.5113670000000  0.5087830000000  0.5379660000000 1.0
C      1  0.4658830000000  0.5080920000000  0.4866680000000 1.0
C      1  0.5294210000000  0.5052380000000  0.4711370000000 1.0
C      1  0.5384780000000  0.5283080000000  0.5633230000000 1.0
C      1  0.4311960000000  0.5301630000000  0.5033800000000 1.0
C      1  0.5301420000000  0.5304830000000  0.4363960000000 1.0
C      1  0.5616100000000  0.4369220000000  0.4880420000000 1.0
C      1  0.4800050000000  0.4418810000000  0.5601510000000 1.0
C      1  0.4551200000000  0.4400920000000  0.4532920000000 1.0
C      1  0.5500190000000  0.4342190000000  0.5156330000000 1.0
C      1  0.4647820000000  0.4370630000000  0.5346250000000 1.0
C      1  0.4843590000000  0.4354720000000  0.4490190000000 1.0
C      1  0.4856050000000  0.4988370000000  0.4317180000000 1.0
C      1  0.5626330000000  0.4997500000000  0.5228170000000 1.0
C      1  0.4529180000000  0.5015520000000  0.5414230000000 1.0
C      1  0.4721220000000  0.5009110000000  0.5152580000000 1.0
C      1  0.5040510000000  0.4971630000000  0.4585820000000 1.0
C      1  0.5318340000000  0.4969450000000  0.5187900000000 1.0
C      1  0.4465570000000  0.5450460000000  0.4828730000000 1.0
C      1  0.5394410000000  0.5447150000000  0.4614690000000 1.0
C      1  0.5134550000000  0.5452150000000  0.5634000000000 1.0
C      1  0.4432580000000  0.5292750000000  0.5302860000000 1.0
C      1  0.5007180000000  0.5291760000000  0.4316340000000 1.0
C      1  0.5532210000000  0.5279710000000  0.5372890000000 1.0
C      1  0.5104580000000  0.5466880000000  0.4725960000000 1.0
C      1  0.5186930000000  0.5643190000000  0.5406810000000 1.0
C      1  0.4725830000000  0.5524880000000  0.5019380000000 1.0
C      1  0.5235610000000  0.4563860000000  0.4826390000000 1.0
C      1  0.5031140000000  0.4585500000000  0.5292410000000 1.0
C      1  0.4763310000000  0.4594410000000  0.4870030000000 1.0
C      1  0.4845470000000  0.4293760000000  0.5054370000000 1.0
C      1  0.5019610000000  0.4282800000000  0.4754900000000 1.0
C      1  0.5166080000000  0.4282330000000  0.5207020000000 1.0
C      1  0.4919200000000  0.5737000000000  0.5325460000000 1.0
C      1  0.4778210000000  0.5724390000000  0.4770960000000 1.0
C      1  0.5153380000000  0.5581460000000  0.4992860000000 1.0
C      1  0.4898630000000  0.5192720000000  0.4719880000000 1.0
C      1  0.5225450000000  0.5156610000000  0.4980910000000 1.0
C      1  0.4933490000000  0.5252770000000  0.5133720000000 1.0
C      1  0.4825570000000  0.5373310000000  0.5601290000000 1.0
C      1  0.4565610000000  0.5375100000000  0.4541160000000 1.0
C      1  0.5565390000000  0.5379070000000  0.4876760000000 1.0
END
