TITL C-3985249-2594-62 -7.8552438368524e-07 125000 -303.450531515829 0 0 60 (Cs) n - 1
REM
REM in /home/nfs/bkarasulu/CARBON/AIRSS/Generating-Clusters/TERSOFF/Higher-Symm/Only-C60
REM
REM
REM
REM
REM
REM ./C.cell (28575a23ae977d3b5fae324c64b13b57)
REM
REM compiler GCC version 9.2.1 20190827 (Red Hat 9.2.1-1)
REM options -cpp -mtune=generic -march=x86-64 -g -O0 -fpre-include=/usr/include/finclude/math-vector-fortran.h
REM seed -546926230 -1660500187 -669685582 -568312020 576407915 2053804454 -355178647 2033943217 702733526 -599088521 348722905 1637356391 573031038 1635956046 371696703 372984006 -1294448431 -914013294 -1821214159 1359773787 424628469 2056830194 -158367083 -4162246 1920793129 -622311158 209119500 -32553716 171325651 -423591726 713431155 -1364179537 738614433
REM
CELL 1.54180   50.00000   50.00000   50.00000   90.00000   90.00000   90.00000
LATT -1
SFAC C  
C      1  0.5156370000000  0.4908190000000  0.4133120000000 1.0
C      1  0.4863920000000  0.4908190000000  0.4133120000000 1.0
C      1  0.4491420000000  0.4542220000000  0.4568660000000 1.0
C      1  0.5528870000000  0.4542220000000  0.4568660000000 1.0
C      1  0.5281820000000  0.5512130000000  0.4487260000000 1.0
C      1  0.4738460000000  0.5512130000000  0.4487260000000 1.0
C      1  0.5258330000000  0.4483270000000  0.4406210000000 1.0
C      1  0.4761960000000  0.4483270000000  0.4406210000000 1.0
C      1  0.4585000000000  0.5423320000000  0.5330870000000 1.0
C      1  0.5435300000000  0.5423330000000  0.5330860000000 1.0
C      1  0.4739470000000  0.4811680000000  0.5793910000000 1.0
C      1  0.5280820000000  0.4811680000000  0.5793910000000 1.0
C      1  0.4800370000000  0.4269460000000  0.4816360000000 1.0
C      1  0.5219920000000  0.4269460000000  0.4816360000000 1.0
C      1  0.5568540000000  0.4919990000000  0.5219920000000 1.0
C      1  0.4451760000000  0.4919980000000  0.5219930000000 1.0
C      1  0.5271390000000  0.4590510000000  0.5296050000000 1.0
C      1  0.4748910000000  0.4590510000000  0.5296050000000 1.0
C      1  0.4552160000000  0.4673630000000  0.5059710000000 1.0
C      1  0.5468130000000  0.4673640000000  0.5059710000000 1.0
C      1  0.5319080000000  0.5224240000000  0.4856210000000 1.0
C      1  0.4701210000000  0.5224230000000  0.4856220000000 1.0
C      1  0.4544240000000  0.5238590000000  0.4555970000000 1.0
C      1  0.5476040000000  0.5238600000000  0.4555960000000 1.0
C      1  0.4598910000000  0.5677400000000  0.4718800000000 1.0
C      1  0.5421370000000  0.5677410000000  0.4718790000000 1.0
C      1  0.4593840000000  0.5162650000000  0.5162450000000 1.0
C      1  0.5426460000000  0.5162660000000  0.5162440000000 1.0
C      1  0.5243910000000  0.4799060000000  0.4398500000000 1.0
C      1  0.4776380000000  0.4799060000000  0.4398500000000 1.0
C      1  0.5232500000000  0.5485520000000  0.5539540000000 1.0
C      1  0.4787800000000  0.5485520000000  0.5539550000000 1.0
C      1  0.4585770000000  0.4916570000000  0.4822050000000 1.0
C      1  0.5434510000000  0.4916580000000  0.4822040000000 1.0
C      1  0.5462180000000  0.4448560000000  0.4843530000000 1.0
C      1  0.4558110000000  0.4448560000000  0.4843530000000 1.0
C      1  0.4493970000000  0.4883280000000  0.4521360000000 1.0
C      1  0.5526310000000  0.4883280000000  0.4521360000000 1.0
C      1  0.5423250000000  0.4692720000000  0.5561740000000 1.0
C      1  0.4597040000000  0.4692730000000  0.5561730000000 1.0
C      1  0.4775130000000  0.5102860000000  0.5804920000000 1.0
C      1  0.5245170000000  0.5102860000000  0.5804920000000 1.0
C      1  0.5421950000000  0.5545730000000  0.4992470000000 1.0
C      1  0.4598330000000  0.5545720000000  0.4992490000000 1.0
C      1  0.5010150000000  0.4189060000000  0.5040670000000 1.0
C      1  0.5010140000000  0.5176980000000  0.4672450000000 1.0
C      1  0.5010160000000  0.5245070000000  0.5645670000000 1.0
C      1  0.5010140000000  0.5700700000000  0.5183600000000 1.0
C      1  0.5010140000000  0.5332490000000  0.4387540000000 1.0
C      1  0.5010140000000  0.5467980000000  0.5002050000000 1.0
C      1  0.5010140000000  0.4871930000000  0.4608060000000 1.0
C      1  0.5010150000000  0.4854400000000  0.4940030000000 1.0
C      1  0.5010150000000  0.4602470000000  0.5086410000000 1.0
C      1  0.5010150000000  0.5679480000000  0.5467910000000 1.0
C      1  0.5010140000000  0.4669100000000  0.5798490000000 1.0
C      1  0.5010150000000  0.4740080000000  0.5481050000000 1.0
C      1  0.5010150000000  0.5126260000000  0.5121410000000 1.0
C      1  0.5010150000000  0.5041810000000  0.5412770000000 1.0
C      1  0.5010150000000  0.4320900000000  0.4535390000000 1.0
C      1  0.5010140000000  0.5593320000000  0.4713130000000 1.0
END
