TITL C-3985250-725-747 0.000769672551377615 125000 -332.588290284734 0 0 60 (C1) n - 1
REM
REM in /home/nfs/bkarasulu/CARBON/AIRSS/Generating-Clusters/TERSOFF/Higher-Symm/Only-C60
REM
REM
REM
REM
REM
REM ./C.cell (28575a23ae977d3b5fae324c64b13b57)
REM
REM compiler GCC version 9.2.1 20190827 (Red Hat 9.2.1-1)
REM options -cpp -mtune=generic -march=x86-64 -g -O0 -fpre-include=/usr/include/finclude/math-vector-fortran.h
REM seed 769936130 1730778945 -1798450928 -796485816 -1077583534 856698059 1241703118 1241128053 1741183204 -240849733 186568045 1082280555 -1092992919 -1976246258 560773950 753365828 1491241662 -2115098125 1218993160 -1553441169 1151875173 1292046249 -68587511 1131770990 1208708922 447127721 1912659959 -32022183 -85656349 915734021 -1279571900 -504286053 1301537583
REM
CELL 1.54180   50.00000   50.00000   50.00000   90.00000   90.00000   90.00000
LATT -1
SFAC C  
C      1  0.4777930000000  0.5592390000000  0.4389980000000 1.0
C      1  0.5001010000000  0.4619390000000  0.4889490000000 1.0
C      1  0.5443300000000  0.4591530000000  0.5111460000000 1.0
C      1  0.4327010000000  0.4884200000000  0.4868520000000 1.0
C      1  0.5006740000000  0.5728670000000  0.4822170000000 1.0
C      1  0.4359770000000  0.5121310000000  0.4690250000000 1.0
C      1  0.5221720000000  0.5545340000000  0.4703550000000 1.0
C      1  0.4537420000000  0.5184560000000  0.5524580000000 1.0
C      1  0.5412950000000  0.5402600000000  0.4890780000000 1.0
C      1  0.4809510000000  0.5309400000000  0.4729640000000 1.0
C      1  0.4839730000000  0.4545520000000  0.4450730000000 1.0
C      1  0.5314880000000  0.5188680000000  0.5427620000000 1.0
C      1  0.5343320000000  0.4420850000000  0.5380640000000 1.0
C      1  0.5016050000000  0.5407150000000  0.4518900000000 1.0
C      1  0.4487430000000  0.4612470000000  0.4823010000000 1.0
C      1  0.4692810000000  0.4748360000000  0.5237180000000 1.0
C      1  0.4969450000000  0.5694520000000  0.5108320000000 1.0
C      1  0.5226480000000  0.5683260000000  0.5255320000000 1.0
C      1  0.5266370000000  0.4262360000000  0.4827010000000 1.0
C      1  0.5614410000000  0.4830840000000  0.5115600000000 1.0
C      1  0.4517430000000  0.5365570000000  0.4768430000000 1.0
C      1  0.4269460000000  0.4955170000000  0.5154650000000 1.0
C      1  0.5623710000000  0.5276500000000  0.5377120000000 1.0
C      1  0.4787000000000  0.5117490000000  0.5706990000000 1.0
C      1  0.4737800000000  0.5530790000000  0.5201860000000 1.0
C      1  0.5254170000000  0.5045070000000  0.5135600000000 1.0
C      1  0.5084010000000  0.5158750000000  0.4353130000000 1.0
C      1  0.4945870000000  0.5357160000000  0.5744190000000 1.0
C      1  0.5031110000000  0.4394060000000  0.4677270000000 1.0
C      1  0.5487860000000  0.4908260000000  0.4616770000000 1.0
C      1  0.4757160000000  0.5245440000000  0.5303360000000 1.0
C      1  0.4831280000000  0.5036090000000  0.4820100000000 1.0
C      1  0.5211480000000  0.4918830000000  0.4488020000000 1.0
C      1  0.5009010000000  0.4416110000000  0.5446370000000 1.0
C      1  0.5582740000000  0.4627950000000  0.4641380000000 1.0
C      1  0.4784950000000  0.5087000000000  0.4306320000000 1.0
C      1  0.4868070000000  0.4286930000000  0.5184600000000 1.0
C      1  0.5102290000000  0.4680850000000  0.4344960000000 1.0
C      1  0.4932210000000  0.4704790000000  0.5417150000000 1.0
C      1  0.5457530000000  0.4723370000000  0.5540730000000 1.0
C      1  0.5152590000000  0.4744940000000  0.5149490000000 1.0
C      1  0.5161800000000  0.5406520000000  0.5563540000000 1.0
C      1  0.4721800000000  0.4545460000000  0.5022580000000 1.0
C      1  0.5489670000000  0.4451330000000  0.4856900000000 1.0
C      1  0.5443930000000  0.5504940000000  0.5169180000000 1.0
C      1  0.5661750000000  0.4927040000000  0.5388450000000 1.0
C      1  0.4778160000000  0.5764660000000  0.4640660000000 1.0
C      1  0.5077680000000  0.4887860000000  0.4762130000000 1.0
C      1  0.5264200000000  0.4946690000000  0.5607680000000 1.0
C      1  0.4473460000000  0.5450060000000  0.5053020000000 1.0
C      1  0.4630070000000  0.5340130000000  0.4299220000000 1.0
C      1  0.4762090000000  0.5011850000000  0.5114590000000 1.0
C      1  0.4731010000000  0.4881870000000  0.4525960000000 1.0
C      1  0.4340970000000  0.5236070000000  0.5249560000000 1.0
C      1  0.4412800000000  0.4765500000000  0.5328900000000 1.0
C      1  0.4542290000000  0.4507940000000  0.4555240000000 1.0
C      1  0.4975070000000  0.4886260000000  0.5642910000000 1.0
C      1  0.5509540000000  0.5078920000000  0.4883010000000 1.0
C      1  0.5745680000000  0.5227260000000  0.5077350000000 1.0
C      1  0.5182020000000  0.4225100000000  0.5115910000000 1.0
END
