TITL C-3985255-5397-82 -0.00844462314901909 125000 -331.059266422352 0 0 60 (Ci) n - 1
REM
REM in /home/nfs/bkarasulu/CARBON/AIRSS/Generating-Clusters/TERSOFF/Higher-Symm/Only-C60
REM
REM
REM
REM
REM
REM ./C.cell (28575a23ae977d3b5fae324c64b13b57)
REM
REM compiler GCC version 9.2.1 20190827 (Red Hat 9.2.1-1)
REM options -cpp -mtune=generic -march=x86-64 -g -O0 -fpre-include=/usr/include/finclude/math-vector-fortran.h
REM seed 1249924349 1248367460 -1078627685 1296587678 5013755 109147031 535751520 1353528128 513684889 888562959 -1995032963 -469456054 695808695 -2121613546 115886796 -670137366 -591794075 -901719829 466115777 913251485 -553675832 203825834 1018447329 -454201845 -358535569 -589354932 249239397 -1803891222 -1401103384 887224092 849605527 1515572943 1156232912
REM
CELL 1.54180   50.00000   50.00000   50.00000   90.00000   90.00000   90.00000
LATT -1
SFAC C  
C      1  0.4290790000000  0.4945420000000  0.4976820000000 1.0
C      1  0.5709210000000  0.5054580000000  0.5023180000000 1.0
C      1  0.5129430000000  0.5229910000000  0.4929230000000 1.0
C      1  0.4870680000000  0.4769760000000  0.5070610000000 1.0
C      1  0.5021380000000  0.5112170000000  0.5693140000000 1.0
C      1  0.4978600000000  0.4887830000000  0.4306880000000 1.0
C      1  0.5612850000000  0.5077990000000  0.4738870000000 1.0
C      1  0.4387150000000  0.4922010000000  0.5261130000000 1.0
C      1  0.4575020000000  0.5490090000000  0.5022790000000 1.0
C      1  0.5424950000000  0.4509920000000  0.4977210000000 1.0
C      1  0.5581100000000  0.4910190000000  0.5395960000000 1.0
C      1  0.4418900000000  0.5089810000000  0.4604040000000 1.0
C      1  0.5079520000000  0.5436570000000  0.4337030000000 1.0
C      1  0.4920470000000  0.4563420000000  0.5662980000000 1.0
C      1  0.4483610000000  0.5162630000000  0.5437850000000 1.0
C      1  0.5516410000000  0.4837360000000  0.4562150000000 1.0
C      1  0.5187840000000  0.5358160000000  0.5599890000000 1.0
C      1  0.4812160000000  0.4641840000000  0.4400110000000 1.0
C      1  0.5461030000000  0.5369160000000  0.4715600000000 1.0
C      1  0.4538970000000  0.4630840000000  0.5284390000000 1.0
C      1  0.5097630000000  0.4813820000000  0.5286450000000 1.0
C      1  0.4902470000000  0.5186220000000  0.4713270000000 1.0
C      1  0.5464770000000  0.5310940000000  0.5536440000000 1.0
C      1  0.4535230000000  0.4689060000000  0.4463560000000 1.0
C      1  0.4783910000000  0.4390940000000  0.5378120000000 1.0
C      1  0.5216090000000  0.5609050000000  0.4621880000000 1.0
C      1  0.4643020000000  0.5259290000000  0.4509990000000 1.0
C      1  0.5356950000000  0.4740710000000  0.5490020000000 1.0
C      1  0.5209020000000  0.5202930000000  0.4518220000000 1.0
C      1  0.4791110000000  0.4797130000000  0.5482000000000 1.0
C      1  0.4540540000000  0.4543820000000  0.4945050000000 1.0
C      1  0.5459580000000  0.5456260000000  0.5054990000000 1.0
C      1  0.4854960000000  0.5173900000000  0.4295280000000 1.0
C      1  0.5144910000000  0.4826100000000  0.5704860000000 1.0
C      1  0.4306730000000  0.5458160000000  0.4928940000000 1.0
C      1  0.5693250000000  0.4541840000000  0.5071070000000 1.0
C      1  0.4957790000000  0.4351690000000  0.5125730000000 1.0
C      1  0.5042200000000  0.5648320000000  0.4874270000000 1.0
C      1  0.5165090000000  0.5115940000000  0.5201920000000 1.0
C      1  0.4834910000000  0.4884030000000  0.4798160000000 1.0
C      1  0.4709580000000  0.5054460000000  0.5626820000000 1.0
C      1  0.5290440000000  0.4945530000000  0.4373170000000 1.0
C      1  0.5423350000000  0.4454420000000  0.5518790000000 1.0
C      1  0.4576650000000  0.5545580000000  0.4481210000000 1.0
C      1  0.4926960000000  0.4431320000000  0.4580840000000 1.0
C      1  0.5073040000000  0.5568680000000  0.5419160000000 1.0
C      1  0.4858570000000  0.5162120000000  0.5249590000000 1.0
C      1  0.5141420000000  0.4837870000000  0.4750410000000 1.0
C      1  0.4789040000000  0.5595450000000  0.5439260000000 1.0
C      1  0.5210960000000  0.4404550000000  0.4560740000000 1.0
C      1  0.4644120000000  0.5396350000000  0.5287900000000 1.0
C      1  0.5355880000000  0.4603650000000  0.4712090000000 1.0
C      1  0.4223260000000  0.5208870000000  0.4818410000000 1.0
C      1  0.5776740000000  0.4791130000000  0.5181590000000 1.0
C      1  0.4794410000000  0.4388700000000  0.4865880000000 1.0
C      1  0.5205570000000  0.5611300000000  0.5134120000000 1.0
C      1  0.4491910000000  0.4794950000000  0.4745430000000 1.0
C      1  0.5508100000000  0.5205050000000  0.5254580000000 1.0
C      1  0.5199210000000  0.4523350000000  0.5160350000000 1.0
C      1  0.4800540000000  0.5476870000000  0.4839550000000 1.0
END
