TITL C-3985259-1859-1088 8.97834850489919e-08 125000 -303.550094738386 0 0 60 (C3) n - 1
REM
REM in /home/nfs/bkarasulu/CARBON/AIRSS/Generating-Clusters/TERSOFF/Higher-Symm/Only-C60
REM
REM
REM
REM
REM
REM ./C.cell (28575a23ae977d3b5fae324c64b13b57)
REM
REM compiler GCC version 9.2.1 20190827 (Red Hat 9.2.1-1)
REM options -cpp -mtune=generic -march=x86-64 -g -O0 -fpre-include=/usr/include/finclude/math-vector-fortran.h
REM seed 1394321564 790760980 442415037 1052044634 478529952 -1103089873 1671807725 -1012638865 733348366 -1965338102 1676484023 -1233475071 1870061620 2074415064 583971543 204417904 -1596345773 -49344225 177622161 -1423003042 931912888 142958890 -1567909739 -757736030 1273553494 1994380135 812211993 -1136719141 476070342 -1188071280 -384624903 -257452158 128104565
REM
CELL 1.54180   50.00000   50.00000   50.00000   90.00000   90.00000   90.00000
LATT -1
SFAC C  
C      1  0.5649300000000  0.4750490000000  0.5277110000000 1.0
C      1  0.4915330000000  0.4750490000000  0.4299130000000 1.0
C      1  0.4435360000000  0.4750490000000  0.5423760000000 1.0
C      1  0.5338400000000  0.5074550000000  0.5459020000000 1.0
C      1  0.5228320000000  0.5074550000000  0.4477430000000 1.0
C      1  0.4433280000000  0.5074550000000  0.5063550000000 1.0
C      1  0.4907250000000  0.4927950000000  0.5487300000000 1.0
C      1  0.5468390000000  0.4927960000000  0.4836680000000 1.0
C      1  0.4624360000000  0.4927950000000  0.4676020000000 1.0
C      1  0.5235480000000  0.5029690000000  0.5171000000000 1.0
C      1  0.5030350000000  0.5029690000000  0.4710570000000 1.0
C      1  0.4734170000000  0.5029690000000  0.5118430000000 1.0
C      1  0.4810980000000  0.5226460000000  0.5328240000000 1.0
C      1  0.5378780000000  0.5226460000000  0.4999580000000 1.0
C      1  0.4810250000000  0.5226460000000  0.4672180000000 1.0
C      1  0.4886540000000  0.5751670000000  0.4655000000000 1.0
C      1  0.4757950000000  0.5751670000000  0.5270760000000 1.0
C      1  0.5355510000000  0.5751670000000  0.5074240000000 1.0
C      1  0.4761390000000  0.4438590000000  0.4817660000000 1.0
C      1  0.4961390000000  0.4438590000000  0.5297810000000 1.0
C      1  0.5277220000000  0.4438590000000  0.4884530000000 1.0
C      1  0.4941760000000  0.5487540000000  0.5193580000000 1.0
C      1  0.5196760000000  0.5487540000000  0.4953640000000 1.0
C      1  0.4861470000000  0.5487540000000  0.4852780000000 1.0
C      1  0.5017920000000  0.4445700000000  0.5594680000000 1.0
C      1  0.5506040000000  0.4445700000000  0.4687140000000 1.0
C      1  0.4476040000000  0.4445700000000  0.4718180000000 1.0
C      1  0.4728240000000  0.5576070000000  0.5544130000000 1.0
C      1  0.5607110000000  0.5576070000000  0.4963290000000 1.0
C      1  0.4664650000000  0.5576060000000  0.4492580000000 1.0
C      1  0.5371490000000  0.5551560000000  0.4685850000000 1.0
C      1  0.4542190000000  0.5551560000000  0.4835360000000 1.0
C      1  0.5086320000000  0.5551560000000  0.5478800000000 1.0
C      1  0.4709340000000  0.4395750000000  0.5125160000000 1.0
C      1  0.5253720000000  0.4395750000000  0.5189140000000 1.0
C      1  0.5036940000000  0.4395750000000  0.4685700000000 1.0
C      1  0.5446610000000  0.4547230000000  0.5382970000000 1.0
C      1  0.5108360000000  0.4547230000000  0.4421740000000 1.0
C      1  0.4445030000000  0.4547230000000  0.5195290000000 1.0
C      1  0.4328210000000  0.5020840000000  0.5352980000000 1.0
C      1  0.5641590000000  0.5020840000000  0.5405300000000 1.0
C      1  0.5030210000000  0.5020840000000  0.4241720000000 1.0
C      1  0.4880960000000  0.4757740000000  0.4830380000000 1.0
C      1  0.4912620000000  0.4757740000000  0.5187900000000 1.0
C      1  0.5206410000000  0.4757740000000  0.4981720000000 1.0
C      1  0.5256310000000  0.5386820000000  0.4455020000000 1.0
C      1  0.4399880000000  0.5386820000000  0.5050510000000 1.0
C      1  0.5343810000000  0.5386820000000  0.5494460000000 1.0
C      1  0.4371490000000  0.4902080000000  0.4837760000000 1.0
C      1  0.5173750000000  0.4902080000000  0.5625430000000 1.0
C      1  0.5454760000000  0.4902080000000  0.4536810000000 1.0
C      1  0.4905640000000  0.5334520000000  0.4376240000000 1.0
C      1  0.4506990000000  0.5334520000000  0.5393590000000 1.0
C      1  0.5587370000000  0.5334530000000  0.5230160000000 1.0
C      1  0.5263710000000  0.4617370000000  0.5629630000000 1.0
C      1  0.5413420000000  0.4617370000000  0.4456800000000 1.0
C      1  0.4322870000000  0.4617370000000  0.4913570000000 1.0
C      1  0.5678420000000  0.4777370000000  0.4988730000000 1.0
C      1  0.4651030000000  0.4777370000000  0.4418110000000 1.0
C      1  0.4670550000000  0.4777370000000  0.5593160000000 1.0
END
