TITL C-3985253-1688-238 -0.0118181719553981 125000 -281.716192270483 0 0 60 (C2v) n - 1
REM
REM in /home/nfs/bkarasulu/CARBON/AIRSS/Generating-Clusters/TERSOFF/Higher-Symm/Only-C60
REM
REM
REM
REM
REM
REM ./C.cell (28575a23ae977d3b5fae324c64b13b57)
REM
REM compiler GCC version 9.2.1 20190827 (Red Hat 9.2.1-1)
REM options -cpp -mtune=generic -march=x86-64 -g -O0 -fpre-include=/usr/include/finclude/math-vector-fortran.h
REM seed -42243311 -150950571 -181172714 -1261769455 1871041105 -1257682326 -825847284 1549332255 2141218971 -1407856279 -1436911092 -1065093107 -736798527 -1598725160 1296769200 628004319 -949692756 -5314797 -910552363 1071785393 -1153506897 -1090417962 1032731939 -465918478 1446811899 1544531478 -2147199930 331514350 1726253906 1764756115 -478129481 -512756749 1960111396
REM
CELL 1.54180   50.00000   50.00000   50.00000   90.00000   90.00000   90.00000
LATT -1
SFAC C  
C      1  0.4220890000000  0.5000690000000  0.4775580000000 1.0
C      1  0.4756860000000  0.5732320000000  0.4761040000000 1.0
C      1  0.5608880000000  0.5444360000000  0.4738820000000 1.0
C      1  0.5609550000000  0.4555400000000  0.4737300000000 1.0
C      1  0.4758020000000  0.4267500000000  0.4761980000000 1.0
C      1  0.5779110000000  0.5000690000000  0.4775580000000 1.0
C      1  0.5243140000000  0.5732320000000  0.4761040000000 1.0
C      1  0.4391120000000  0.5444360000000  0.4738820000000 1.0
C      1  0.4390450000000  0.4555400000000  0.4737300000000 1.0
C      1  0.5241980000000  0.4267500000000  0.4761980000000 1.0
C      1  0.5457370000000  0.4671240000000  0.4439440000000 1.0
C      1  0.4824950000000  0.4454400000000  0.4464200000000 1.0
C      1  0.4419220000000  0.4998700000000  0.4477150000000 1.0
C      1  0.4825920000000  0.5547340000000  0.4462330000000 1.0
C      1  0.5454020000000  0.5326540000000  0.4440300000000 1.0
C      1  0.4542630000000  0.4671240000000  0.4439440000000 1.0
C      1  0.5175050000000  0.4454400000000  0.4464200000000 1.0
C      1  0.5580780000000  0.4998700000000  0.4477150000000 1.0
C      1  0.5174080000000  0.5547340000000  0.4462330000000 1.0
C      1  0.4545980000000  0.5326540000000  0.4440300000000 1.0
C      1  0.5161640000000  0.4512920000000  0.5606090000000 1.0
C      1  0.4580050000000  0.4696650000000  0.5565340000000 1.0
C      1  0.4581010000000  0.5302920000000  0.5566670000000 1.0
C      1  0.5161710000000  0.5488610000000  0.5603940000000 1.0
C      1  0.5506230000000  0.4999240000000  0.5626430000000 1.0
C      1  0.4838360000000  0.4512920000000  0.5606090000000 1.0
C      1  0.5419950000000  0.4696650000000  0.5565340000000 1.0
C      1  0.5418990000000  0.5302920000000  0.5566670000000 1.0
C      1  0.4838290000000  0.5488610000000  0.5603940000000 1.0
C      1  0.4493770000000  0.4999240000000  0.5626430000000 1.0
C      1  0.5652860000000  0.5473910000000  0.5051100000000 1.0
C      1  0.5653110000000  0.4526740000000  0.5047310000000 1.0
C      1  0.4746230000000  0.4212850000000  0.5080210000000 1.0
C      1  0.4165470000000  0.5000280000000  0.5094250000000 1.0
C      1  0.4743740000000  0.5788080000000  0.5080050000000 1.0
C      1  0.4347140000000  0.5473910000000  0.5051100000000 1.0
C      1  0.4346890000000  0.4526740000000  0.5047310000000 1.0
C      1  0.5253770000000  0.4212850000000  0.5080210000000 1.0
C      1  0.5834530000000  0.5000280000000  0.5094250000000 1.0
C      1  0.5256260000000  0.5788080000000  0.5080050000000 1.0
C      1  0.4640020000000  0.5256250000000  0.4841740000000 1.0
C      1  0.5143600000000  0.5444290000000  0.4867770000000 1.0
C      1  0.5472220000000  0.4999120000000  0.4882260000000 1.0
C      1  0.5143180000000  0.4557880000000  0.4869430000000 1.0
C      1  0.4640440000000  0.4743330000000  0.4839520000000 1.0
C      1  0.5359980000000  0.5256250000000  0.4841740000000 1.0
C      1  0.4856400000000  0.5444290000000  0.4867770000000 1.0
C      1  0.4527780000000  0.4999120000000  0.4882260000000 1.0
C      1  0.4856820000000  0.4557880000000  0.4869430000000 1.0
C      1  0.5359560000000  0.4743330000000  0.4839520000000 1.0
C      1  0.5586220000000  0.4999520000000  0.5285730000000 1.0
C      1  0.5179640000000  0.4446330000000  0.5272490000000 1.0
C      1  0.4534930000000  0.4663260000000  0.5243700000000 1.0
C      1  0.4537640000000  0.5335290000000  0.5246610000000 1.0
C      1  0.5179590000000  0.5554040000000  0.5271220000000 1.0
C      1  0.4413780000000  0.4999520000000  0.5285730000000 1.0
C      1  0.4820360000000  0.4446330000000  0.5272490000000 1.0
C      1  0.5465070000000  0.4663260000000  0.5243700000000 1.0
C      1  0.5462360000000  0.5335290000000  0.5246610000000 1.0
C      1  0.4820410000000  0.5554040000000  0.5271220000000 1.0
END
