TITL C-3985247-764-506 0.000562233635429448 125000 -351.484157077015 0 0 60 (C6) n - 1
REM
REM in /home/nfs/bkarasulu/CARBON/AIRSS/Generating-Clusters/TERSOFF/Higher-Symm/Only-C60
REM
REM
REM
REM
REM
REM ./C.cell (28575a23ae977d3b5fae324c64b13b57)
REM
REM compiler GCC version 9.2.1 20190827 (Red Hat 9.2.1-1)
REM options -cpp -mtune=generic -march=x86-64 -g -O0 -fpre-include=/usr/include/finclude/math-vector-fortran.h
REM seed -1238144057 -172700542 2001373845 1534466144 -1568030994 1049319508 -336480754 -1403194750 1131099750 403212242 321264882 -2032806794 2037031131 -1826222099 166063549 120708228 -503915437 1065270669 609733490 1441023143 -1200233846 -2092250978 -165168992 -958864662 1193771395 1943295850 -782659963 -803835294 1504980017 883217336 -555252389 -1458435642 -651821323
REM
CELL 1.54180   50.00000   50.00000   50.00000   90.00000   90.00000   90.00000
LATT -1
SFAC C  
C      1  0.5071860000000  0.4608930000000  0.4729280000000 1.0
C      1  0.5270380000000  0.4608970000000  0.4926480000000 1.0
C      1  0.5198670000000  0.4608930000000  0.5197770000000 1.0
C      1  0.4928140000000  0.4608910000000  0.5270690000000 1.0
C      1  0.4729620000000  0.4608980000000  0.5073540000000 1.0
C      1  0.4801350000000  0.4608910000000  0.4802240000000 1.0
C      1  0.4928360000000  0.5391070000000  0.4729370000000 1.0
C      1  0.4729520000000  0.5391000000000  0.4926330000000 1.0
C      1  0.4801550000000  0.5391150000000  0.5197990000000 1.0
C      1  0.5071620000000  0.5391070000000  0.5270510000000 1.0
C      1  0.5270380000000  0.5391170000000  0.5073650000000 1.0
C      1  0.5198460000000  0.5391050000000  0.4801980000000 1.0
C      1  0.4581370000000  0.5385920000000  0.5412690000000 1.0
C      1  0.4433250000000  0.5385910000000  0.4843930000000 1.0
C      1  0.4851810000000  0.5385910000000  0.4431070000000 1.0
C      1  0.5418620000000  0.5385920000000  0.4587310000000 1.0
C      1  0.5566740000000  0.5385900000000  0.5156060000000 1.0
C      1  0.5148180000000  0.5385900000000  0.5568920000000 1.0
C      1  0.5418600000000  0.4614090000000  0.5412720000000 1.0
C      1  0.5566760000000  0.4614100000000  0.4843910000000 1.0
C      1  0.5148150000000  0.4614090000000  0.4431090000000 1.0
C      1  0.4581410000000  0.4614080000000  0.4587280000000 1.0
C      1  0.4433240000000  0.4614090000000  0.5156090000000 1.0
C      1  0.4851860000000  0.4614090000000  0.5568910000000 1.0
C      1  0.4956910000000  0.4167480000000  0.5296740000000 1.0
C      1  0.4721470000000  0.4167490000000  0.5111050000000 1.0
C      1  0.4764570000000  0.4167490000000  0.4814320000000 1.0
C      1  0.5043080000000  0.4167480000000  0.4703260000000 1.0
C      1  0.5278530000000  0.4167490000000  0.4888950000000 1.0
C      1  0.5235430000000  0.4167490000000  0.5185680000000 1.0
C      1  0.5043090000000  0.5832530000000  0.5296750000000 1.0
C      1  0.5278530000000  0.5832500000000  0.5111040000000 1.0
C      1  0.5235430000000  0.5832510000000  0.4814320000000 1.0
C      1  0.4956910000000  0.5832520000000  0.4703250000000 1.0
C      1  0.4721480000000  0.5832500000000  0.4888960000000 1.0
C      1  0.4764580000000  0.5832510000000  0.5185680000000 1.0
C      1  0.4915310000000  0.4303730000000  0.5558740000000 1.0
C      1  0.4473730000000  0.4303680000000  0.5206060000000 1.0
C      1  0.4558360000000  0.4303610000000  0.4647230000000 1.0
C      1  0.5084690000000  0.4303740000000  0.4441270000000 1.0
C      1  0.5526280000000  0.4303670000000  0.4793940000000 1.0
C      1  0.5441630000000  0.4303610000000  0.5352770000000 1.0
C      1  0.5084710000000  0.5696280000000  0.5558750000000 1.0
C      1  0.5526330000000  0.5696390000000  0.5206100000000 1.0
C      1  0.5441620000000  0.5696380000000  0.4647230000000 1.0
C      1  0.4915310000000  0.5696210000000  0.4441320000000 1.0
C      1  0.4473650000000  0.5696430000000  0.4793900000000 1.0
C      1  0.4558410000000  0.5696350000000  0.5352760000000 1.0
C      1  0.4859430000000  0.4931910000000  0.5529840000000 1.0
C      1  0.4470880000000  0.4931990000000  0.5143180000000 1.0
C      1  0.4611380000000  0.4932080000000  0.4613270000000 1.0
C      1  0.5140570000000  0.4931880000000  0.4470190000000 1.0
C      1  0.5529130000000  0.4932010000000  0.4856820000000 1.0
C      1  0.5388610000000  0.4932060000000  0.5386730000000 1.0
C      1  0.5140570000000  0.5068130000000  0.5529820000000 1.0
C      1  0.5529290000000  0.5067780000000  0.5143230000000 1.0
C      1  0.5388580000000  0.5067970000000  0.4613290000000 1.0
C      1  0.4859440000000  0.5068170000000  0.4470230000000 1.0
C      1  0.4470810000000  0.5067910000000  0.4856800000000 1.0
C      1  0.4611380000000  0.5067900000000  0.5386750000000 1.0
END
