TITL C-3985254-1270-1226 -2.89669129634423e-07 125000 -269.982244509277 0 0 60 (C5) n - 1
REM
REM in /home/nfs/bkarasulu/CARBON/AIRSS/Generating-Clusters/TERSOFF/Higher-Symm/Only-C60
REM
REM
REM
REM
REM
REM ./C.cell (28575a23ae977d3b5fae324c64b13b57)
REM
REM compiler GCC version 9.2.1 20190827 (Red Hat 9.2.1-1)
REM options -cpp -mtune=generic -march=x86-64 -g -O0 -fpre-include=/usr/include/finclude/math-vector-fortran.h
REM seed 1041570702 -480391837 -121932324 -498515289 704759120 586701441 -1748466719 1567242816 426516910 1911171351 2007157425 884100685 797106991 1207091719 944301009 -1781263273 -1054320614 1393992452 -895108925 -2075317583 1534286637 1560693651 793679470 -1940920206 -1674971737 -1537513297 -651444309 -820014826 921324833 726320253 -184258849 1020439251 -2094510691
REM
CELL 1.54180   50.00000   50.00000   50.00000   90.00000   90.00000   90.00000
LATT -1
SFAC C  
C      1  0.5368190000000  0.4693490000000  0.5385040000000 1.0
C      1  0.4747580000000  0.4693490000000  0.5469150000000 1.0
C      1  0.4475810000000  0.4693490000000  0.4904910000000 1.0
C      1  0.4928450000000  0.4693490000000  0.4472080000000 1.0
C      1  0.5479970000000  0.4693490000000  0.4768820000000 1.0
C      1  0.5368190000000  0.5306510000000  0.5385040000000 1.0
C      1  0.4747580000000  0.5306510000000  0.5469150000000 1.0
C      1  0.4475810000000  0.5306510000000  0.4904910000000 1.0
C      1  0.4928450000000  0.5306510000000  0.4472080000000 1.0
C      1  0.5479970000000  0.5306510000000  0.4768820000000 1.0
C      1  0.5204540000000  0.4487660000000  0.4462900000000 1.0
C      1  0.5574020000000  0.4487660000000  0.5028560000000 1.0
C      1  0.5150220000000  0.4487660000000  0.5554750000000 1.0
C      1  0.4518820000000  0.4487660000000  0.5314300000000 1.0
C      1  0.4552390000000  0.4487660000000  0.4639490000000 1.0
C      1  0.5204540000000  0.5512340000000  0.4462900000000 1.0
C      1  0.5574020000000  0.5512340000000  0.5028560000000 1.0
C      1  0.5150220000000  0.5512340000000  0.5554750000000 1.0
C      1  0.4518820000000  0.5512340000000  0.5314300000000 1.0
C      1  0.4552390000000  0.5512340000000  0.4639490000000 1.0
C      1  0.5627130000000  0.5155620000000  0.5320780000000 1.0
C      1  0.4888720000000  0.5155620000000  0.5695560000000 1.0
C      1  0.4304090000000  0.5155620000000  0.5109100000000 1.0
C      1  0.4681190000000  0.5155620000000  0.4371870000000 1.0
C      1  0.5498870000000  0.5155620000000  0.4502690000000 1.0
C      1  0.5627130000000  0.4844380000000  0.5320780000000 1.0
C      1  0.4888720000000  0.4844380000000  0.5695560000000 1.0
C      1  0.4304090000000  0.4844380000000  0.5109100000000 1.0
C      1  0.4681190000000  0.4844380000000  0.4371870000000 1.0
C      1  0.5498870000000  0.4844380000000  0.4502690000000 1.0
C      1  0.5719990000000  0.4819390000000  0.5011380000000 1.0
C      1  0.5211670000000  0.4819390000000  0.5688270000000 1.0
C      1  0.4410830000000  0.4819390000000  0.5414000000000 1.0
C      1  0.4424200000000  0.4819390000000  0.4567590000000 1.0
C      1  0.5233310000000  0.4819390000000  0.4318760000000 1.0
C      1  0.5719990000000  0.5180610000000  0.5011380000000 1.0
C      1  0.5211670000000  0.5180610000000  0.5688270000000 1.0
C      1  0.4410830000000  0.5180610000000  0.5414000000000 1.0
C      1  0.4424200000000  0.5180610000000  0.4567590000000 1.0
C      1  0.5233310000000  0.5180610000000  0.4318760000000 1.0
C      1  0.4694970000000  0.5568470000000  0.5032050000000 1.0
C      1  0.4875260000000  0.5568470000000  0.4719810000000 1.0
C      1  0.5227930000000  0.5568470000000  0.4794780000000 1.0
C      1  0.5265610000000  0.5568470000000  0.5153360000000 1.0
C      1  0.4936220000000  0.5568470000000  0.5300000000000 1.0
C      1  0.4694970000000  0.4431530000000  0.5032050000000 1.0
C      1  0.4875260000000  0.4431530000000  0.4719810000000 1.0
C      1  0.5227930000000  0.4431530000000  0.4794780000000 1.0
C      1  0.5265610000000  0.4431530000000  0.5153360000000 1.0
C      1  0.4936220000000  0.4431530000000  0.5300000000000 1.0
C      1  0.5182140000000  0.4841010000000  0.5193390000000 1.0
C      1  0.4872350000000  0.4841010000000  0.5232990000000 1.0
C      1  0.4738970000000  0.4841010000000  0.4950600000000 1.0
C      1  0.4966320000000  0.4841010000000  0.4736480000000 1.0
C      1  0.5240210000000  0.4841010000000  0.4886540000000 1.0
C      1  0.5182140000000  0.5158990000000  0.5193390000000 1.0
C      1  0.4872350000000  0.5158990000000  0.5232990000000 1.0
C      1  0.4738970000000  0.5158990000000  0.4950600000000 1.0
C      1  0.4966320000000  0.5158990000000  0.4736480000000 1.0
C      1  0.5240210000000  0.5158990000000  0.4886540000000 1.0
END
