TITL C-3985250-725-1259 -4.68639792705165e-05 125000 -313.138971407458 0 0 60 (C1) n - 1
REM
REM in /home/nfs/bkarasulu/CARBON/AIRSS/Generating-Clusters/TERSOFF/Higher-Symm/Only-C60
REM
REM
REM
REM
REM
REM ./C.cell (28575a23ae977d3b5fae324c64b13b57)
REM
REM compiler GCC version 9.2.1 20190827 (Red Hat 9.2.1-1)
REM options -cpp -mtune=generic -march=x86-64 -g -O0 -fpre-include=/usr/include/finclude/math-vector-fortran.h
REM seed 1514745920 462529975 559273503 -1605762538 -652991675 1824969581 2077594738 1187853270 -1299412064 111879585 34270857 1234693144 961186341 43340460 1889816804 -1611973137 -1575468263 774643353 1863690575 596470138 1153878962 -1950841313 816636324 1770034114 -361454999 524837443 613753849 1281292836 1079735876 1675375222 1725683589 999408043 -2127450945
REM
CELL 1.54180   50.00000   50.00000   50.00000   90.00000   90.00000   90.00000
LATT -1
SFAC C  
C      1  0.5198990000000  0.5596140000000  0.4828270000000 1.0
C      1  0.4790620000000  0.5608750000000  0.5151700000000 1.0
C      1  0.5463370000000  0.5005520000000  0.4857160000000 1.0
C      1  0.4510330000000  0.5032170000000  0.5134250000000 1.0
C      1  0.5402910000000  0.4584850000000  0.4521230000000 1.0
C      1  0.4589070000000  0.4588010000000  0.5409480000000 1.0
C      1  0.5491870000000  0.4751750000000  0.5022730000000 1.0
C      1  0.4459930000000  0.4783900000000  0.4956360000000 1.0
C      1  0.5497770000000  0.4684320000000  0.5504700000000 1.0
C      1  0.4511140000000  0.4682770000000  0.4487650000000 1.0
C      1  0.5258610000000  0.4482000000000  0.5491120000000 1.0
C      1  0.4775790000000  0.4487640000000  0.4486070000000 1.0
C      1  0.5436820000000  0.5195290000000  0.5445910000000 1.0
C      1  0.4563230000000  0.5201760000000  0.4530900000000 1.0
C      1  0.4563590000000  0.5265380000000  0.5477520000000 1.0
C      1  0.5404130000000  0.5250450000000  0.4524470000000 1.0
C      1  0.5046380000000  0.5370230000000  0.4341040000000 1.0
C      1  0.4944350000000  0.5351510000000  0.5631740000000 1.0
C      1  0.5691560000000  0.5319480000000  0.5052970000000 1.0
C      1  0.4298200000000  0.5337000000000  0.4916020000000 1.0
C      1  0.4808670000000  0.5071170000000  0.5606770000000 1.0
C      1  0.5179400000000  0.5090740000000  0.4364730000000 1.0
C      1  0.4301800000000  0.4827300000000  0.4702590000000 1.0
C      1  0.5677090000000  0.4807290000000  0.5262090000000 1.0
C      1  0.4551870000000  0.5539330000000  0.4902860000000 1.0
C      1  0.5444720000000  0.5530080000000  0.5071820000000 1.0
C      1  0.5811960000000  0.5238300000000  0.4798560000000 1.0
C      1  0.4162530000000  0.5264950000000  0.5168440000000 1.0
C      1  0.4949720000000  0.4564230000000  0.5392680000000 1.0
C      1  0.5062290000000  0.4595000000000  0.4399680000000 1.0
C      1  0.4685850000000  0.4887100000000  0.5344270000000 1.0
C      1  0.5274740000000  0.4867620000000  0.4638020000000 1.0
C      1  0.5030650000000  0.5506650000000  0.5400220000000 1.0
C      1  0.4965520000000  0.5515570000000  0.4579940000000 1.0
C      1  0.5309950000000  0.5440410000000  0.5328860000000 1.0
C      1  0.4687560000000  0.5447460000000  0.4649150000000 1.0
C      1  0.4959100000000  0.4880300000000  0.4362310000000 1.0
C      1  0.5031960000000  0.4847490000000  0.5577380000000 1.0
C      1  0.5656090000000  0.5075020000000  0.4591060000000 1.0
C      1  0.4303200000000  0.5095960000000  0.5389960000000 1.0
C      1  0.5688760000000  0.5123320000000  0.5291910000000 1.0
C      1  0.4302040000000  0.5140340000000  0.4671820000000 1.0
C      1  0.4756580000000  0.5288490000000  0.5168880000000 1.0
C      1  0.5217580000000  0.5269740000000  0.4835190000000 1.0
C      1  0.4308060000000  0.4794020000000  0.5500950000000 1.0
C      1  0.5645480000000  0.4794900000000  0.4454780000000 1.0
C      1  0.4459960000000  0.4545390000000  0.5130140000000 1.0
C      1  0.5495710000000  0.4525350000000  0.4822440000000 1.0
C      1  0.4720340000000  0.4836290000000  0.4827770000000 1.0
C      1  0.5239100000000  0.4804150000000  0.5179930000000 1.0
C      1  0.4715410000000  0.4933180000000  0.4524410000000 1.0
C      1  0.5293700000000  0.4925480000000  0.5463130000000 1.0
C      1  0.4970500000000  0.4162810000000  0.5022630000000 1.0
C      1  0.4987590000000  0.5148400000000  0.5011760000000 1.0
C      1  0.5131680000000  0.3946810000000  0.5127600000000 1.0
C      1  0.5016060000000  0.4445960000000  0.5076440000000 1.0
C      1  0.4972500000000  0.4859330000000  0.5016280000000 1.0
C      1  0.5000170000000  0.5760870000000  0.4990260000000 1.0
C      1  0.5093180000000  0.4644050000000  0.4820430000000 1.0
C      1  0.5008400000000  0.6051010000000  0.4989180000000 1.0
END
