TITL C-3985250-725-1157 -0.000837589913260694 125000 -320.866753615903 0 0 60 (C1) n - 1
REM
REM in /home/nfs/bkarasulu/CARBON/AIRSS/Generating-Clusters/TERSOFF/Higher-Symm/Only-C60
REM
REM
REM
REM
REM
REM ./C.cell (28575a23ae977d3b5fae324c64b13b57)
REM
REM compiler GCC version 9.2.1 20190827 (Red Hat 9.2.1-1)
REM options -cpp -mtune=generic -march=x86-64 -g -O0 -fpre-include=/usr/include/finclude/math-vector-fortran.h
REM seed 258078462 593458193 1853662957 -1029663854 -1415722691 -597133581 -636586149 -1635788890 1486864127 2114733010 1889034261 1625720980 174674032 -1723956430 -1745001395 1582200403 -1205847075 -1781082222 -1192064107 2010268011 1476096653 -1415090400 -498551417 -247316932 -435754798 -737486321 449875778 470728594 -428743509 -2032183861 -552189793 -1592160612 -1247986837
REM
CELL 1.54180   50.00000   50.00000   50.00000   90.00000   90.00000   90.00000
LATT -1
SFAC C  
C      1  0.4332500000000  0.5294010000000  0.4856360000000 1.0
C      1  0.4318390000000  0.5304760000000  0.5159350000000 1.0
C      1  0.4259230000000  0.5084040000000  0.5359920000000 1.0
C      1  0.4314300000000  0.4790800000000  0.5325460000000 1.0
C      1  0.4291700000000  0.4644900000000  0.5067000000000 1.0
C      1  0.4274980000000  0.4766650000000  0.4788310000000 1.0
C      1  0.4253500000000  0.5055610000000  0.4695370000000 1.0
C      1  0.4456460000000  0.4401050000000  0.5079700000000 1.0
C      1  0.4455620000000  0.4638320000000  0.4594640000000 1.0
C      1  0.4392520000000  0.5070040000000  0.4426310000000 1.0
C      1  0.4549590000000  0.5455030000000  0.4721570000000 1.0
C      1  0.4551510000000  0.5444320000000  0.5269870000000 1.0
C      1  0.4403910000000  0.5170930000000  0.5607480000000 1.0
C      1  0.4511590000000  0.4674110000000  0.5519960000000 1.0
C      1  0.4946150000000  0.4239440000000  0.5234890000000 1.0
C      1  0.4881180000000  0.4472150000000  0.4638020000000 1.0
C      1  0.4918570000000  0.5012050000000  0.4189070000000 1.0
C      1  0.4973650000000  0.5526160000000  0.4371630000000 1.0
C      1  0.4877280000000  0.5636860000000  0.4975330000000 1.0
C      1  0.4876560000000  0.5303540000000  0.5774400000000 1.0
C      1  0.4971620000000  0.4768420000000  0.5828760000000 1.0
C      1  0.5047510000000  0.4719770000000  0.5387670000000 1.0
C      1  0.4946050000000  0.4668790000000  0.5077040000000 1.0
C      1  0.5071030000000  0.4872660000000  0.4588770000000 1.0
C      1  0.5263270000000  0.5162660000000  0.4549910000000 1.0
C      1  0.5055230000000  0.5308870000000  0.4720920000000 1.0
C      1  0.5079640000000  0.5363950000000  0.5310700000000 1.0
C      1  0.5158520000000  0.5058870000000  0.5436340000000 1.0
C      1  0.5627830000000  0.5002730000000  0.4683740000000 1.0
C      1  0.5612870000000  0.5281990000000  0.4800330000000 1.0
C      1  0.5550320000000  0.5332220000000  0.5093350000000 1.0
C      1  0.5591570000000  0.5150740000000  0.5335040000000 1.0
C      1  0.5582050000000  0.4846870000000  0.5331980000000 1.0
C      1  0.5584920000000  0.4667680000000  0.5093890000000 1.0
C      1  0.5518630000000  0.4763680000000  0.4824470000000 1.0
C      1  0.4685860000000  0.5103700000000  0.5659600000000 1.0
C      1  0.4769720000000  0.4809880000000  0.5599690000000 1.0
C      1  0.4748350000000  0.4401330000000  0.5073060000000 1.0
C      1  0.4742210000000  0.4738200000000  0.4529680000000 1.0
C      1  0.4702100000000  0.5068730000000  0.4407240000000 1.0
C      1  0.4780020000000  0.5336250000000  0.4562800000000 1.0
C      1  0.4814010000000  0.5393580000000  0.5151170000000 1.0
C      1  0.5294910000000  0.5472160000000  0.5122400000000 1.0
C      1  0.5411630000000  0.5251150000000  0.5584930000000 1.0
C      1  0.5386580000000  0.4718290000000  0.5521140000000 1.0
C      1  0.5439450000000  0.4415000000000  0.5181380000000 1.0
C      1  0.5275120000000  0.4667710000000  0.4707890000000 1.0
C      1  0.5499210000000  0.4996530000000  0.4383390000000 1.0
C      1  0.5513950000000  0.5495600000000  0.4604540000000 1.0
C      1  0.5275810000000  0.5450730000000  0.4393070000000 1.0
C      1  0.5140780000000  0.5544740000000  0.4879940000000 1.0
C      1  0.5102060000000  0.5428330000000  0.5625070000000 1.0
C      1  0.5229880000000  0.4889400000000  0.5745460000000 1.0
C      1  0.5173690000000  0.4415510000000  0.5322720000000 1.0
C      1  0.5091790000000  0.4488350000000  0.4848670000000 1.0
C      1  0.5186910000000  0.4869180000000  0.4261330000000 1.0
C      1  0.5267640000000  0.5028800000000  0.5032030000000 1.0
C      1  0.5011750000000  0.4942590000000  0.4921220000000 1.0
C      1  0.4546190000000  0.4976760000000  0.5029360000000 1.0
C      1  0.4785120000000  0.5125450000000  0.4992150000000 1.0
END
