TITL C-3985254-1270-572 -6.05289722511417e-07 125000 -308.722026857605 0 0 60 (C5) n - 1
REM
REM in /home/nfs/bkarasulu/CARBON/AIRSS/Generating-Clusters/TERSOFF/Higher-Symm/Only-C60
REM
REM
REM
REM
REM
REM ./C.cell (28575a23ae977d3b5fae324c64b13b57)
REM
REM compiler GCC version 9.2.1 20190827 (Red Hat 9.2.1-1)
REM options -cpp -mtune=generic -march=x86-64 -g -O0 -fpre-include=/usr/include/finclude/math-vector-fortran.h
REM seed -1572063646 1380928731 -2095005161 -1800684304 -540107361 -45285523 1945914666 245644769 798475890 -1821101785 -1093356940 1157733238 -1444296893 1072926319 1111540702 2015649314 1425672071 185271611 1249799570 652393745 -1867011855 -1362895156 646815289 1591038492 -1975063326 -1633056165 1824963136 1626720147 -2084404495 1237742990 1332699223 1659785706 -1578951048
REM
CELL 1.54180   50.00000   50.00000   50.00000   90.00000   90.00000   90.00000
LATT -1
SFAC C  
C      1  0.4765620000000  0.5283390000000  0.4342890000000 1.0
C      1  0.4765620000000  0.5712520000000  0.5066460000000 1.0
C      1  0.4765620000000  0.5156970000000  0.5698180000000 1.0
C      1  0.4765610000000  0.4384500000000  0.5365040000000 1.0
C      1  0.4765610000000  0.4462630000000  0.4527420000000 1.0
C      1  0.5022600000000  0.5266960000000  0.5003890000000 1.0
C      1  0.5022600000000  0.5078800000000  0.5255100000000 1.0
C      1  0.5022600000000  0.4781740000000  0.5153770000000 1.0
C      1  0.5022600000000  0.4786310000000  0.4839940000000 1.0
C      1  0.5022600000000  0.5086190000000  0.4747310000000 1.0
C      1  0.4751260000000  0.4690950000000  0.5323490000000 1.0
C      1  0.4751250000000  0.4596840000000  0.4806040000000 1.0
C      1  0.4751260000000  0.5059890000000  0.4556640000000 1.0
C      1  0.4751260000000  0.5440170000000  0.4919950000000 1.0
C      1  0.4751260000000  0.5212160000000  0.5393890000000 1.0
C      1  0.5720970000000  0.4982200000000  0.4694070000000 1.0
C      1  0.5720980000000  0.5285440000000  0.4888540000000 1.0
C      1  0.5720980000000  0.5194210000000  0.5237040000000 1.0
C      1  0.5720970000000  0.4834570000000  0.5257950000000 1.0
C      1  0.5720970000000  0.4703540000000  0.4922390000000 1.0
C      1  0.5174860000000  0.5678780000000  0.4859570000000 1.0
C      1  0.5174860000000  0.5343310000000  0.5602170000000 1.0
C      1  0.5174850000000  0.4533390000000  0.5512590000000 1.0
C      1  0.5174850000000  0.4368310000000  0.4714630000000 1.0
C      1  0.5174850000000  0.5076200000000  0.4311040000000 1.0
C      1  0.4982450000000  0.5308680000000  0.5820420000000 1.0
C      1  0.4982440000000  0.4315120000000  0.5547100000000 1.0
C      1  0.4982440000000  0.4268040000000  0.4517700000000 1.0
C      1  0.4982450000000  0.5232500000000  0.4154830000000 1.0
C      1  0.4982460000000  0.5875650000000  0.4959950000000 1.0
C      1  0.4478350000000  0.5060220000000  0.5269150000000 1.0
C      1  0.4478350000000  0.4762640000000  0.5140440000000 1.0
C      1  0.4478350000000  0.4793090000000  0.4817650000000 1.0
C      1  0.4478350000000  0.5109490000000  0.4746860000000 1.0
C      1  0.4478350000000  0.5274590000000  0.5025910000000 1.0
C      1  0.5537480000000  0.4561160000000  0.5179890000000 1.0
C      1  0.5537480000000  0.4693300000000  0.4638240000000 1.0
C      1  0.5537490000000  0.5249270000000  0.4596520000000 1.0
C      1  0.5537490000000  0.5460760000000  0.5112400000000 1.0
C      1  0.5537490000000  0.5035480000000  0.5472940000000 1.0
C      1  0.4766090000000  0.5571310000000  0.5358400000000 1.0
C      1  0.4766080000000  0.4835690000000  0.5654100000000 1.0
C      1  0.4766070000000  0.4327140000000  0.5045860000000 1.0
C      1  0.4766080000000  0.4748460000000  0.4374240000000 1.0
C      1  0.4766090000000  0.5517400000000  0.4567400000000 1.0
C      1  0.5244950000000  0.4545660000000  0.5215800000000 1.0
C      1  0.5244940000000  0.4654360000000  0.4634580000000 1.0
C      1  0.5244950000000  0.5240720000000  0.4558360000000 1.0
C      1  0.5244960000000  0.5494410000000  0.5092470000000 1.0
C      1  0.5244950000000  0.5064840000000  0.5498790000000 1.0
C      1  0.5088920000000  0.5523380000000  0.5375490000000 1.0
C      1  0.5088910000000  0.4804620000000  0.5613790000000 1.0
C      1  0.5088900000000  0.4355870000000  0.5003860000000 1.0
C      1  0.5088900000000  0.4797280000000  0.4388590000000 1.0
C      1  0.5088910000000  0.5518840000000  0.4618270000000 1.0
C      1  0.4466460000000  0.4454350000000  0.5079460000000 1.0
C      1  0.4466460000000  0.4755820000000  0.4505610000000 1.0
C      1  0.4466470000000  0.5394750000000  0.4614990000000 1.0
C      1  0.4466480000000  0.5488150000000  0.5256450000000 1.0
C      1  0.4466470000000  0.4906960000000  0.5543500000000 1.0
END
