TITL C-3985244-725-735 -7.50589850918449e-05 125000 -343.527540523821 0 0 60 (S10) n - 1
REM
REM in /home/nfs/bkarasulu/CARBON/AIRSS/Generating-Clusters/TERSOFF/Higher-Symm/Only-C60
REM
REM
REM
REM
REM
REM ./C.cell (28575a23ae977d3b5fae324c64b13b57)
REM
REM compiler GCC version 9.2.1 20190827 (Red Hat 9.2.1-1)
REM options -cpp -mtune=generic -march=x86-64 -g -O0 -fpre-include=/usr/include/finclude/math-vector-fortran.h
REM seed -1720422026 1665584483 -1100406074 1995445692 -336551198 1475347657 1109391012 884313621 -1088808388 -646136601 -853176084 -1039085490 -1372090479 -729793434 886095476 1194441997 363478843 654142885 1305168627 -1297556640 932758507 1079330302 1577271065 1087055719 1223314616 -1074351917 126688441 -1380469946 34651294 615963948 -1262439186 -182122602 1149837786
REM
CELL 1.54180   50.00000   50.00000   50.00000   90.00000   90.00000   90.00000
LATT -1
SFAC C  
C      1  0.5171250000000  0.4507540000000  0.4504860000000 1.0
C      1  0.4847430000000  0.5492480000000  0.4498780000000 1.0
C      1  0.4581970000000  0.4507530000000  0.4684150000000 1.0
C      1  0.4476180000000  0.5492460000000  0.4990190000000 1.0
C      1  0.4570470000000  0.4507530000000  0.5300010000000 1.0
C      1  0.4828740000000  0.5492480000000  0.5495150000000 1.0
C      1  0.5152570000000  0.4507540000000  0.5501210000000 1.0
C      1  0.5418020000000  0.5492450000000  0.5315840000000 1.0
C      1  0.5523850000000  0.4507510000000  0.5009830000000 1.0
C      1  0.5429530000000  0.5492460000000  0.4699990000000 1.0
C      1  0.4663670000000  0.5024810000000  0.4550910000000 1.0
C      1  0.4463980000000  0.4975180000000  0.4834370000000 1.0
C      1  0.4468990000000  0.5024830000000  0.5181090000000 1.0
C      1  0.4676820000000  0.4975190000000  0.5458630000000 1.0
C      1  0.5008130000000  0.5024840000000  0.5560960000000 1.0
C      1  0.5336320000000  0.4975190000000  0.5449090000000 1.0
C      1  0.5536020000000  0.5024820000000  0.5165630000000 1.0
C      1  0.5531010000000  0.4975170000000  0.4818910000000 1.0
C      1  0.5323180000000  0.5024810000000  0.4541370000000 1.0
C      1  0.4991870000000  0.4975160000000  0.4439040000000 1.0
C      1  0.5247780000000  0.5194030000000  0.5074910000000 1.0
C      1  0.5244480000000  0.4806020000000  0.4914970000000 1.0
C      1  0.5147800000000  0.5193990000000  0.4787480000000 1.0
C      1  0.4994700000000  0.4805970000000  0.4741200000000 1.0
C      1  0.4843570000000  0.5193970000000  0.4793740000000 1.0
C      1  0.4752230000000  0.4805980000000  0.4925120000000 1.0
C      1  0.4755480000000  0.5194000000000  0.5085010000000 1.0
C      1  0.4852200000000  0.4806020000000  0.5212520000000 1.0
C      1  0.5005320000000  0.5194020000000  0.5258780000000 1.0
C      1  0.5156440000000  0.4806020000000  0.5206270000000 1.0
C      1  0.5076200000000  0.4362690000000  0.5250170000000 1.0
C      1  0.5208660000000  0.5637340000000  0.5157550000000 1.0
C      1  0.5261480000000  0.4362690000000  0.5004810000000 1.0
C      1  0.5214370000000  0.5637320000000  0.4850260000000 1.0
C      1  0.5085330000000  0.4362680000000  0.4752810000000 1.0
C      1  0.4923800000000  0.5637310000000  0.4749830000000 1.0
C      1  0.4791340000000  0.4362660000000  0.4842450000000 1.0
C      1  0.4738520000000  0.5637310000000  0.4995190000000 1.0
C      1  0.4785630000000  0.4362680000000  0.5149740000000 1.0
C      1  0.4914670000000  0.5637320000000  0.5247190000000 1.0
C      1  0.5631460000000  0.5350170000000  0.5161180000000 1.0
C      1  0.5605620000000  0.4649820000000  0.4759240000000 1.0
C      1  0.5348440000000  0.5350170000000  0.4449260000000 1.0
C      1  0.4958150000000  0.4649830000000  0.4349620000000 1.0
C      1  0.4583880000000  0.5350170000000  0.4498430000000 1.0
C      1  0.4368540000000  0.4649830000000  0.4838820000000 1.0
C      1  0.4394380000000  0.5350180000000  0.5240760000000 1.0
C      1  0.4651560000000  0.4649830000000  0.5550740000000 1.0
C      1  0.5041850000000  0.5350170000000  0.5650380000000 1.0
C      1  0.5416120000000  0.4649830000000  0.5501570000000 1.0
C      1  0.5565270000000  0.4695200000000  0.5236000000000 1.0
C      1  0.5596040000000  0.5304820000000  0.4858680000000 1.0
C      1  0.5399140000000  0.4695180000000  0.4535310000000 1.0
C      1  0.5049770000000  0.5304800000000  0.4389470000000 1.0
C      1  0.4681400000000  0.4695170000000  0.4476790000000 1.0
C      1  0.4434730000000  0.5304800000000  0.4764000000000 1.0
C      1  0.4403960000000  0.4695180000000  0.5141320000000 1.0
C      1  0.4600870000000  0.5304820000000  0.5464690000000 1.0
C      1  0.4950230000000  0.4695200000000  0.5610530000000 1.0
C      1  0.5318600000000  0.5304830000000  0.5523210000000 1.0
END
