TITL C-3985254-1270-1035 3.46528940472514e-07 125000 -341.657749531758 0 0 60 (D2d) n - 1
REM
REM in /home/nfs/bkarasulu/CARBON/AIRSS/Generating-Clusters/TERSOFF/Higher-Symm/Only-C60
REM
REM
REM
REM
REM
REM ./C.cell (28575a23ae977d3b5fae324c64b13b57)
REM
REM compiler GCC version 9.2.1 20190827 (Red Hat 9.2.1-1)
REM options -cpp -mtune=generic -march=x86-64 -g -O0 -fpre-include=/usr/include/finclude/math-vector-fortran.h
REM seed 734266435 -247883950 617602238 1838977287 -25329284 -1870087535 -2093242624 -2140739251 -977745687 -1074666837 -1640341674 1515156369 -8527742 813010767 -1741699843 446957061 1061719878 -1442857848 1309943978 753413438 -2099753231 -380575429 1596900127 847130460 -1735019241 -175810721 -106677756 -546726829 468479491 198157305 392637312 1032861100 -567823134
REM
CELL 1.54180   50.00000   50.00000   50.00000   90.00000   90.00000   90.00000
LATT -1
SFAC C  
C      1  0.5009150000000  0.4527120000000  0.5621440000000 1.0
C      1  0.4990850000000  0.5472880000000  0.5621440000000 1.0
C      1  0.5009150000000  0.5472880000000  0.4378560000000 1.0
C      1  0.4990850000000  0.4527120000000  0.4378560000000 1.0
C      1  0.4527120000000  0.5009150000000  0.5621440000000 1.0
C      1  0.5472880000000  0.4990850000000  0.5621440000000 1.0
C      1  0.5472880000000  0.5009150000000  0.4378560000000 1.0
C      1  0.4527120000000  0.4990850000000  0.4378560000000 1.0
C      1  0.4774180000000  0.4998250000000  0.4226440000000 1.0
C      1  0.5225820000000  0.5001750000000  0.4226440000000 1.0
C      1  0.4774180000000  0.5001750000000  0.5773560000000 1.0
C      1  0.5225820000000  0.4998250000000  0.5773560000000 1.0
C      1  0.4998250000000  0.4774180000000  0.4226440000000 1.0
C      1  0.5001750000000  0.5225820000000  0.4226440000000 1.0
C      1  0.5001750000000  0.4774180000000  0.5773560000000 1.0
C      1  0.4998250000000  0.5225820000000  0.5773560000000 1.0
C      1  0.5000030000000  0.5235720000000  0.5169350000000 1.0
C      1  0.4999970000000  0.4764280000000  0.5169350000000 1.0
C      1  0.5000030000000  0.4764280000000  0.4830650000000 1.0
C      1  0.4999970000000  0.5235720000000  0.4830650000000 1.0
C      1  0.5235720000000  0.5000030000000  0.5169350000000 1.0
C      1  0.4764280000000  0.4999970000000  0.5169350000000 1.0
C      1  0.4764280000000  0.5000030000000  0.4830650000000 1.0
C      1  0.5235720000000  0.4999970000000  0.4830650000000 1.0
C      1  0.5624560000000  0.4603020000000  0.5048510000000 1.0
C      1  0.4375440000000  0.5396980000000  0.5048510000000 1.0
C      1  0.5624560000000  0.5396980000000  0.4951490000000 1.0
C      1  0.4375440000000  0.4603020000000  0.4951490000000 1.0
C      1  0.4603020000000  0.5624560000000  0.5048510000000 1.0
C      1  0.5396980000000  0.4375440000000  0.5048510000000 1.0
C      1  0.5396980000000  0.5624560000000  0.4951490000000 1.0
C      1  0.4603020000000  0.4375440000000  0.4951490000000 1.0
C      1  0.5548400000000  0.4677900000000  0.4745580000000 1.0
C      1  0.4451600000000  0.5322100000000  0.4745580000000 1.0
C      1  0.5548400000000  0.5322100000000  0.5254420000000 1.0
C      1  0.4451600000000  0.4677900000000  0.5254420000000 1.0
C      1  0.4677900000000  0.5548400000000  0.4745580000000 1.0
C      1  0.5322100000000  0.4451600000000  0.4745580000000 1.0
C      1  0.5322100000000  0.5548400000000  0.5254420000000 1.0
C      1  0.4677900000000  0.4451600000000  0.5254420000000 1.0
C      1  0.4972300000000  0.5493230000000  0.4670520000000 1.0
C      1  0.5027700000000  0.4506770000000  0.4670520000000 1.0
C      1  0.4972300000000  0.4506770000000  0.5329480000000 1.0
C      1  0.5027700000000  0.5493230000000  0.5329480000000 1.0
C      1  0.5493230000000  0.4972300000000  0.4670520000000 1.0
C      1  0.4506770000000  0.5027700000000  0.4670520000000 1.0
C      1  0.4506770000000  0.4972300000000  0.5329480000000 1.0
C      1  0.5493230000000  0.5027700000000  0.5329480000000 1.0
C      1  0.4292600000000  0.5149510000000  0.5195900000000 1.0
C      1  0.5707400000000  0.4850490000000  0.5195900000000 1.0
C      1  0.4292600000000  0.4850490000000  0.4804100000000 1.0
C      1  0.5707400000000  0.5149510000000  0.4804100000000 1.0
C      1  0.5149510000000  0.4292600000000  0.5195900000000 1.0
C      1  0.4850490000000  0.5707400000000  0.5195900000000 1.0
C      1  0.4850490000000  0.4292600000000  0.4804100000000 1.0
C      1  0.5149510000000  0.5707400000000  0.4804100000000 1.0
C      1  0.4132240000000  0.5000000000000  0.5000000000000 1.0
C      1  0.5000000000000  0.4132240000000  0.5000000000000 1.0
C      1  0.5000000000000  0.5867760000000  0.5000000000000 1.0
C      1  0.5867760000000  0.5000000000000  0.5000000000000 1.0
END
