TITL C-3985246-2097-17 0.000239026842660514 125000 -283.665450870295 0 0 60 (C5) n - 1
REM
REM in /home/nfs/bkarasulu/CARBON/AIRSS/Generating-Clusters/TERSOFF/Higher-Symm/Only-C60
REM
REM
REM
REM
REM
REM ./C.cell (28575a23ae977d3b5fae324c64b13b57)
REM
REM compiler GCC version 9.2.1 20190827 (Red Hat 9.2.1-1)
REM options -cpp -mtune=generic -march=x86-64 -g -O0 -fpre-include=/usr/include/finclude/math-vector-fortran.h
REM seed 908767057 -521235442 -1411160453 862489389 1543271376 86899569 312504573 -1756532365 1000130121 -1417130345 515817350 107205892 -1470155470 -689004175 -1082942685 -1282849956 70170050 -737388277 -1994245261 1320153915 -1844317763 801587113 927806965 -768452980 1658561563 1864497260 674311281 -1817403744 1173103167 1402348704 -1049070593 795547363 -693926704
REM
CELL 1.54180   50.00000   50.00000   50.00000   90.00000   90.00000   90.00000
LATT -1
SFAC C  
C      1  0.4390310000000  0.4555280000000  0.5033910000000 1.0
C      1  0.4388620000000  0.5442400000000  0.5033920000000 1.0
C      1  0.5231820000000  0.5718180000000  0.5033900000000 1.0
C      1  0.5754690000000  0.5001490000000  0.5033930000000 1.0
C      1  0.5234600000000  0.4282720000000  0.5033910000000 1.0
C      1  0.4633580000000  0.5199850000000  0.5006320000000 1.0
C      1  0.5076840000000  0.5410150000000  0.5006390000000 1.0
C      1  0.5413850000000  0.5053670000000  0.5006400000000 1.0
C      1  0.5178920000000  0.4623010000000  0.5006380000000 1.0
C      1  0.4696750000000  0.4713330000000  0.5006380000000 1.0
C      1  0.5306250000000  0.5521840000000  0.4611960000000 1.0
C      1  0.5590960000000  0.4869990000000  0.4611970000000 1.0
C      1  0.5058880000000  0.4397780000000  0.4611950000000 1.0
C      1  0.4445540000000  0.4757790000000  0.4611940000000 1.0
C      1  0.4598360000000  0.5452570000000  0.4611970000000 1.0
C      1  0.4290020000000  0.4902790000000  0.5019950000000 1.0
C      1  0.4688190000000  0.5645190000000  0.5019930000000 1.0
C      1  0.5517320000000  0.5495900000000  0.5019920000000 1.0
C      1  0.5631480000000  0.4661250000000  0.5019930000000 1.0
C      1  0.4872970000000  0.4294750000000  0.5019910000000 1.0
C      1  0.4571310000000  0.4353180000000  0.4830540000000 1.0
C      1  0.4252360000000  0.5207940000000  0.4830580000000 1.0
C      1  0.4966630000000  0.5775250000000  0.4830530000000 1.0
C      1  0.5727020000000  0.5271310000000  0.4830560000000 1.0
C      1  0.5482700000000  0.4392420000000  0.4830560000000 1.0
C      1  0.5089410000000  0.5788240000000  0.5296140000000 1.0
C      1  0.5777300000000  0.5158570000000  0.5296160000000 1.0
C      1  0.5390970000000  0.4309770000000  0.5296150000000 1.0
C      1  0.4464360000000  0.4414850000000  0.5296150000000 1.0
C      1  0.4277980000000  0.5328610000000  0.5296170000000 1.0
C      1  0.4608930000000  0.4504430000000  0.4563570000000 1.0
C      1  0.4407850000000  0.5218750000000  0.4563610000000 1.0
C      1  0.5025060000000  0.5630770000000  0.4563580000000 1.0
C      1  0.5607670000000  0.5171090000000  0.4563590000000 1.0
C      1  0.5350490000000  0.4474960000000  0.4563590000000 1.0
C      1  0.5209450000000  0.4776250000000  0.5316910000000 1.0
C      1  0.4851940000000  0.4731600000000  0.5316890000000 1.0
C      1  0.4699030000000  0.5058010000000  0.5316890000000 1.0
C      1  0.4962030000000  0.5304130000000  0.5316910000000 1.0
C      1  0.5277570000000  0.5130060000000  0.5316910000000 1.0
C      1  0.4854870000000  0.4779580000000  0.5650070000000 1.0
C      1  0.4745500000000  0.5069910000000  0.5650090000000 1.0
C      1  0.4987820000000  0.5263640000000  0.5650100000000 1.0
C      1  0.5246950000000  0.5093030000000  0.5650090000000 1.0
C      1  0.5164780000000  0.4793870000000  0.5650080000000 1.0
C      1  0.4972680000000  0.5276410000000  0.4541620000000 1.0
C      1  0.5254450000000  0.5111370000000  0.4541620000000 1.0
C      1  0.5184570000000  0.4792540000000  0.4541590000000 1.0
C      1  0.4859560000000  0.4760220000000  0.4541640000000 1.0
C      1  0.4728750000000  0.5059440000000  0.4541580000000 1.0
C      1  0.4818610000000  0.5384060000000  0.4833590000000 1.0
C      1  0.5309240000000  0.5291200000000  0.4833590000000 1.0
C      1  0.5372500000000  0.4795900000000  0.4833580000000 1.0
C      1  0.4921000000000  0.4582650000000  0.4833580000000 1.0
C      1  0.4578720000000  0.4946100000000  0.4833540000000 1.0
C      1  0.4762740000000  0.4416210000000  0.5295340000000 1.0
C      1  0.4371450000000  0.5045240000000  0.5295370000000 1.0
C      1  0.4848810000000  0.5611750000000  0.5295350000000 1.0
C      1  0.5535100000000  0.5332850000000  0.5295350000000 1.0
C      1  0.5481890000000  0.4593960000000  0.5295350000000 1.0
END
