TITL C-3985259-1859-457 0.000499050492541171 125000 -324.697764114594 0 0 60 (C1) n - 1
REM
REM in /home/nfs/bkarasulu/CARBON/AIRSS/Generating-Clusters/TERSOFF/Higher-Symm/Only-C60
REM
REM
REM
REM
REM
REM ./C.cell (28575a23ae977d3b5fae324c64b13b57)
REM
REM compiler GCC version 9.2.1 20190827 (Red Hat 9.2.1-1)
REM options -cpp -mtune=generic -march=x86-64 -g -O0 -fpre-include=/usr/include/finclude/math-vector-fortran.h
REM seed 161212705 -1326353423 78810015 -325622849 -228945906 -1327824949 1263879823 1951236729 -1696211516 -1092098719 1039421236 -1109940287 237686565 434732182 159042476 -344733839 1181760227 -1962480019 379565053 -572890776 -786805241 1015087222 -913399174 -795573821 1719238210 839388938 -377426594 -155938869 450568420 -73015396 932563009 393492985 -1128996567
REM
CELL 1.54180   50.00000   50.00000   50.00000   90.00000   90.00000   90.00000
LATT -1
SFAC C  
C      1  0.5552890000000  0.5081130000000  0.4776380000000 1.0
C      1  0.4730940000000  0.5285760000000  0.5022600000000 1.0
C      1  0.4816720000000  0.4836590000000  0.5810150000000 1.0
C      1  0.5186380000000  0.5557220000000  0.5347420000000 1.0
C      1  0.5052700000000  0.4503620000000  0.4556650000000 1.0
C      1  0.5552650000000  0.4380180000000  0.4787370000000 1.0
C      1  0.4565470000000  0.5152900000000  0.4445940000000 1.0
C      1  0.4514480000000  0.5422350000000  0.4578010000000 1.0
C      1  0.4843450000000  0.4608420000000  0.5283790000000 1.0
C      1  0.4357050000000  0.4965950000000  0.4562540000000 1.0
C      1  0.5022150000000  0.4486540000000  0.5495790000000 1.0
C      1  0.5509820000000  0.5011810000000  0.5551130000000 1.0
C      1  0.4262340000000  0.5548690000000  0.4999910000000 1.0
C      1  0.5017850000000  0.5030460000000  0.4775770000000 1.0
C      1  0.4784610000000  0.4922720000000  0.5286120000000 1.0
C      1  0.5584120000000  0.4735050000000  0.4441940000000 1.0
C      1  0.4375360000000  0.5388800000000  0.5220400000000 1.0
C      1  0.5089700000000  0.4949000000000  0.4294570000000 1.0
C      1  0.5032730000000  0.5297180000000  0.4966960000000 1.0
C      1  0.4521300000000  0.4598890000000  0.5330200000000 1.0
C      1  0.5522780000000  0.4475480000000  0.5362920000000 1.0
C      1  0.5055430000000  0.4757890000000  0.5014530000000 1.0
C      1  0.4409380000000  0.4535380000000  0.5068050000000 1.0
C      1  0.5277500000000  0.4746170000000  0.4439680000000 1.0
C      1  0.5259950000000  0.4352110000000  0.4789800000000 1.0
C      1  0.5687160000000  0.4619740000000  0.4898460000000 1.0
C      1  0.4251580000000  0.5409000000000  0.4739470000000 1.0
C      1  0.5034230000000  0.5105780000000  0.5395240000000 1.0
C      1  0.5065770000000  0.4715170000000  0.5690440000000 1.0
C      1  0.5653970000000  0.5009510000000  0.5286940000000 1.0
C      1  0.4461420000000  0.4903940000000  0.5427510000000 1.0
C      1  0.5222670000000  0.4911100000000  0.5525460000000 1.0
C      1  0.4833190000000  0.4987580000000  0.4467960000000 1.0
C      1  0.4638950000000  0.5032680000000  0.5663970000000 1.0
C      1  0.4998660000000  0.5639870000000  0.4891440000000 1.0
C      1  0.5250030000000  0.4376720000000  0.5322060000000 1.0
C      1  0.5290890000000  0.4933190000000  0.4688500000000 1.0
C      1  0.4219410000000  0.5105450000000  0.4802410000000 1.0
C      1  0.5609780000000  0.4704070000000  0.5176170000000 1.0
C      1  0.4628560000000  0.4978310000000  0.5010870000000 1.0
C      1  0.5157610000000  0.4452990000000  0.5044190000000 1.0
C      1  0.5526210000000  0.5201650000000  0.5075400000000 1.0
C      1  0.5711540000000  0.4829420000000  0.4697160000000 1.0
C      1  0.4582580000000  0.4657380000000  0.4857590000000 1.0
C      1  0.4923100000000  0.5647000000000  0.5216090000000 1.0
C      1  0.4762190000000  0.4687370000000  0.4447650000000 1.0
C      1  0.4480020000000  0.4698050000000  0.4585410000000 1.0
C      1  0.5101460000000  0.5299290000000  0.4551450000000 1.0
C      1  0.4815680000000  0.4470190000000  0.4803060000000 1.0
C      1  0.4711380000000  0.5499430000000  0.4789050000000 1.0
C      1  0.5201190000000  0.5277230000000  0.5209410000000 1.0
C      1  0.5309140000000  0.5626230000000  0.4815080000000 1.0
C      1  0.4797610000000  0.5259730000000  0.5536200000000 1.0
C      1  0.4337280000000  0.5083050000000  0.5141860000000 1.0
C      1  0.5501540000000  0.5545000000000  0.5039530000000 1.0
C      1  0.5340630000000  0.5465470000000  0.4575100000000 1.0
C      1  0.5292710000000  0.4802200000000  0.5234050000000 1.0
C      1  0.4681060000000  0.5440780000000  0.5309300000000 1.0
C      1  0.5444540000000  0.5691540000000  0.5292520000000 1.0
C      1  0.5578500000000  0.5303610000000  0.4584390000000 1.0
END
