TITL C-3985250-725-1118 0.000692450582027791 125000 -325.815642732123 0 0 60 (S4) n - 1
REM
REM in /home/nfs/bkarasulu/CARBON/AIRSS/Generating-Clusters/TERSOFF/Higher-Symm/Only-C60
REM
REM
REM
REM
REM
REM ./C.cell (28575a23ae977d3b5fae324c64b13b57)
REM
REM compiler GCC version 9.2.1 20190827 (Red Hat 9.2.1-1)
REM options -cpp -mtune=generic -march=x86-64 -g -O0 -fpre-include=/usr/include/finclude/math-vector-fortran.h
REM seed -313693328 -2008849625 -502564827 291280242 -1691147517 1849322432 284403122 -440016482 11960644 -1240153203 1598127471 -176826227 -262111767 -1507049225 611888078 1386698625 1614982275 -1628681748 1615431709 -648036861 -430989889 -412020867 80651971 386437640 993813640 -1412407319 1283122916 -2088879172 615583465 -1548490658 -731234448 -270327573 136833779
REM
CELL 1.54180   50.00000   50.00000   50.00000   90.00000   90.00000   90.00000
LATT -1
SFAC C  
C      1  0.5561860000000  0.4998090000000  0.4612980000000 1.0
C      1  0.5001910000000  0.5561860000000  0.5387020000000 1.0
C      1  0.4438140000000  0.5001910000000  0.4612980000000 1.0
C      1  0.4998090000000  0.4438140000000  0.5387020000000 1.0
C      1  0.4847580000000  0.5257310000000  0.4430440000000 1.0
C      1  0.4742690000000  0.4847580000000  0.5569560000000 1.0
C      1  0.5152420000000  0.4742690000000  0.4430440000000 1.0
C      1  0.5257310000000  0.5152420000000  0.5569560000000 1.0
C      1  0.4677550000000  0.5000150000000  0.4385220000000 1.0
C      1  0.4999850000000  0.4677550000000  0.5614780000000 1.0
C      1  0.5322450000000  0.4999850000000  0.4385220000000 1.0
C      1  0.5000150000000  0.5322450000000  0.5614780000000 1.0
C      1  0.4828770000000  0.4784360000000  0.4717870000000 1.0
C      1  0.5215640000000  0.4828770000000  0.5282130000000 1.0
C      1  0.5171230000000  0.5215640000000  0.4717870000000 1.0
C      1  0.4784360000000  0.5171230000000  0.5282130000000 1.0
C      1  0.4489570000000  0.5367220000000  0.5507650000000 1.0
C      1  0.4632780000000  0.4489570000000  0.4492350000000 1.0
C      1  0.5510430000000  0.4632780000000  0.5507650000000 1.0
C      1  0.5367220000000  0.5510420000000  0.4492350000000 1.0
C      1  0.5694490000000  0.4977680000000  0.5088980000000 1.0
C      1  0.5022320000000  0.5694490000000  0.4911020000000 1.0
C      1  0.4305510000000  0.5022320000000  0.5088980000000 1.0
C      1  0.4977680000000  0.4305510000000  0.4911020000000 1.0
C      1  0.5165430000000  0.5269550000000  0.4409850000000 1.0
C      1  0.4730450000000  0.5165430000000  0.5590150000000 1.0
C      1  0.4834570000000  0.4730450000000  0.4409840000000 1.0
C      1  0.5269550000000  0.4834570000000  0.5590160000000 1.0
C      1  0.5239520000000  0.4697220000000  0.4721880000000 1.0
C      1  0.5302780000000  0.5239520000000  0.5278120000000 1.0
C      1  0.4760480000000  0.5302780000000  0.4721880000000 1.0
C      1  0.4697220000000  0.4760480000000  0.5278120000000 1.0
C      1  0.5221670000000  0.4288010000000  0.5181690000000 1.0
C      1  0.5711990000000  0.5221670000000  0.4818310000000 1.0
C      1  0.4778330000000  0.5711990000000  0.5181690000000 1.0
C      1  0.4288010000000  0.4778330000000  0.4818310000000 1.0
C      1  0.4980830000000  0.4682460000000  0.5181510000000 1.0
C      1  0.5317540000000  0.4980830000000  0.4818490000000 1.0
C      1  0.5019170000000  0.5317540000000  0.5181510000000 1.0
C      1  0.4682460000000  0.5019170000000  0.4818490000000 1.0
C      1  0.4596890000000  0.5647970000000  0.5456010000000 1.0
C      1  0.4352030000000  0.4596890000000  0.4543990000000 1.0
C      1  0.5403110000000  0.4352030000000  0.5456010000000 1.0
C      1  0.5647970000000  0.5403110000000  0.4543990000000 1.0
C      1  0.4450710000000  0.4507630000000  0.4948920000000 1.0
C      1  0.5492370000000  0.4450710000000  0.5051080000000 1.0
C      1  0.5549290000000  0.5492370000000  0.4948920000000 1.0
C      1  0.4507630000000  0.5549290000000  0.5051080000000 1.0
C      1  0.5456390000000  0.4513190000000  0.4774060000000 1.0
C      1  0.5486810000000  0.5456390000000  0.5225940000000 1.0
C      1  0.4543610000000  0.5486810000000  0.4774050000000 1.0
C      1  0.4513190000000  0.4543610000000  0.5225940000000 1.0
C      1  0.4616250000000  0.5000250000000  0.5105920000000 1.0
C      1  0.4999750000000  0.4616250000000  0.4894080000000 1.0
C      1  0.5383750000000  0.4999750000000  0.5105920000000 1.0
C      1  0.5000250000000  0.5383750000000  0.4894080000000 1.0
C      1  0.5330380000000  0.5626970000000  0.4778060000000 1.0
C      1  0.4373030000000  0.5330380000000  0.5221940000000 1.0
C      1  0.4669620000000  0.4373030000000  0.4778060000000 1.0
C      1  0.5626970000000  0.4669620000000  0.5221940000000 1.0
END
