TITL C-3985247-764-735 -4.41453635342549e-05 125000 -295.651037422901 0 0 60 (C5) n - 1
REM
REM in /home/nfs/bkarasulu/CARBON/AIRSS/Generating-Clusters/TERSOFF/Higher-Symm/Only-C60
REM
REM
REM
REM
REM
REM ./C.cell (28575a23ae977d3b5fae324c64b13b57)
REM
REM compiler GCC version 9.2.1 20190827 (Red Hat 9.2.1-1)
REM options -cpp -mtune=generic -march=x86-64 -g -O0 -fpre-include=/usr/include/finclude/math-vector-fortran.h
REM seed 1767417236 -391846402 928681464 -563618739 -1165682575 -1584842987 -691902749 161626044 -1942346235 -7351324 -1410282327 -1297081303 2137417783 -422082092 -1143535664 -1373737283 1669075881 -487835326 1258135655 -1623457627 -2048580502 429038373 -1456933248 -1811832328 708413383 -1181084663 -1259486048 -2042992520 -887230218 539185669 131767839 482393395 -1487496024
REM
CELL 1.54180   50.00000   50.00000   50.00000   90.00000   90.00000   90.00000
LATT -1
SFAC C  
C      1  0.4350850000000  0.5090540000000  0.5065580000000 1.0
C      1  0.4885510000000  0.5645360000000  0.5065570000000 1.0
C      1  0.5578380000000  0.5308310000000  0.5065560000000 1.0
C      1  0.5471940000000  0.4545200000000  0.5065560000000 1.0
C      1  0.4713300000000  0.4410600000000  0.5065590000000 1.0
C      1  0.5657930000000  0.4645150000000  0.4629880000000 1.0
C      1  0.4865820000000  0.4264620000000  0.4629890000000 1.0
C      1  0.4259140000000  0.4900340000000  0.4629880000000 1.0
C      1  0.4676290000000  0.5673810000000  0.4629870000000 1.0
C      1  0.5540790000000  0.5516080000000  0.4629870000000 1.0
C      1  0.4743480000000  0.4947340000000  0.5024740000000 1.0
C      1  0.4870640000000  0.5227690000000  0.5024740000000 1.0
C      1  0.5176570000000  0.5193390000000  0.5024730000000 1.0
C      1  0.5238480000000  0.4891840000000  0.5024740000000 1.0
C      1  0.4970820000000  0.4739770000000  0.5024750000000 1.0
C      1  0.5304850000000  0.4936300000000  0.5364770000000 1.0
C      1  0.5033620000000  0.4690400000000  0.5364780000000 1.0
C      1  0.4715940000000  0.4872360000000  0.5364770000000 1.0
C      1  0.4790830000000  0.5230720000000  0.5364760000000 1.0
C      1  0.5154790000000  0.5270240000000  0.5364760000000 1.0
C      1  0.5299810000000  0.4540350000000  0.5500400000000 1.0
C      1  0.4655480000000  0.4572840000000  0.5500400000000 1.0
C      1  0.4487290000000  0.5195660000000  0.5500400000000 1.0
C      1  0.5027650000000  0.5548090000000  0.5500390000000 1.0
C      1  0.5529810000000  0.5143090000000  0.5500390000000 1.0
C      1  0.4548690000000  0.4604260000000  0.4559960000000 1.0
C      1  0.4484180000000  0.5306940000000  0.4559950000000 1.0
C      1  0.5132510000000  0.5585430000000  0.4559940000000 1.0
C      1  0.5597730000000  0.5054870000000  0.4559920000000 1.0
C      1  0.5236880000000  0.4448470000000  0.4559930000000 1.0
C      1  0.4358240000000  0.4516640000000  0.4768880000000 1.0
C      1  0.4341990000000  0.5460990000000  0.4768870000000 1.0
C      1  0.5235090000000  0.5768260000000  0.4768860000000 1.0
C      1  0.5803310000000  0.5013820000000  0.4768840000000 1.0
C      1  0.5261370000000  0.4240270000000  0.4768860000000 1.0
C      1  0.4810850000000  0.4775390000000  0.4615120000000 1.0
C      1  0.4727930000000  0.5110480000000  0.4615120000000 1.0
C      1  0.5021010000000  0.5292890000000  0.4615110000000 1.0
C      1  0.5285050000000  0.5070520000000  0.4615090000000 1.0
C      1  0.5155160000000  0.4750690000000  0.4615090000000 1.0
C      1  0.4800860000000  0.5472420000000  0.4826350000000 1.0
C      1  0.5387750000000  0.5335360000000  0.4826330000000 1.0
C      1  0.5438760000000  0.4734860000000  0.4826340000000 1.0
C      1  0.4883430000000  0.4500760000000  0.4826370000000 1.0
C      1  0.4489160000000  0.4956590000000  0.4826360000000 1.0
C      1  0.5762230000000  0.5082150000000  0.5050850000000 1.0
C      1  0.5313660000000  0.4300470000000  0.5050860000000 1.0
C      1  0.4431640000000  0.4485520000000  0.5050880000000 1.0
C      1  0.4335060000000  0.5381570000000  0.5050870000000 1.0
C      1  0.5157410000000  0.5750310000000  0.5050860000000 1.0
C      1  0.5120830000000  0.4229140000000  0.5266180000000 1.0
C      1  0.4304220000000  0.4646880000000  0.5266200000000 1.0
C      1  0.4449150000000  0.5552620000000  0.5266180000000 1.0
C      1  0.5355350000000  0.5694650000000  0.5266170000000 1.0
C      1  0.5770470000000  0.4876700000000  0.5266160000000 1.0
C      1  0.4373450000000  0.4946150000000  0.5327360000000 1.0
C      1  0.4755170000000  0.5579250000000  0.5327350000000 1.0
C      1  0.5475240000000  0.5411850000000  0.5327330000000 1.0
C      1  0.5538550000000  0.4675290000000  0.5327340000000 1.0
C      1  0.4857610000000  0.4387470000000  0.5327370000000 1.0
END
