TITL C-3985254-1270-2091 3.807227103119e-07 125000 -346.329914853245 0 0 60 (C5v) n - 1
REM
REM in /home/nfs/bkarasulu/CARBON/AIRSS/Generating-Clusters/TERSOFF/Higher-Symm/Only-C60
REM
REM
REM
REM
REM
REM ./C.cell (28575a23ae977d3b5fae324c64b13b57)
REM
REM compiler GCC version 9.2.1 20190827 (Red Hat 9.2.1-1)
REM options -cpp -mtune=generic -march=x86-64 -g -O0 -fpre-include=/usr/include/finclude/math-vector-fortran.h
REM seed 1951345455 -1514523056 -1727776408 -1217496956 147865718 -657958892 -1179144683 -1643855432 -185245281 1416674485 710957794 -1687136967 1399509499 -2000783886 -674886943 -826721767 -469106421 -1257124676 -795434923 -1683065084 -1121766422 -327432273 187412883 871148374 114965243 -1639507521 1657368289 -1624820284 -922510321 -1294819111 -1399546589 1876117560 954833270
REM
CELL 1.54180   50.00000   50.00000   50.00000   90.00000   90.00000   90.00000
LATT -1
SFAC C  
C      1  0.5113230000000  0.5237100000000  0.4679930000000 1.0
C      1  0.4809500000000  0.5180960000000  0.4679930000000 1.0
C      1  0.4769030000000  0.4874740000000  0.4679930000000 1.0
C      1  0.5047750000000  0.4741630000000  0.4679930000000 1.0
C      1  0.5260480000000  0.4965580000000  0.4679930000000 1.0
C      1  0.5046580000000  0.4747970000000  0.5691510000000 1.0
C      1  0.5254090000000  0.4966420000000  0.5691510000000 1.0
C      1  0.5110460000000  0.5231280000000  0.5691510000000 1.0
C      1  0.4814170000000  0.5176520000000  0.5691510000000 1.0
C      1  0.4774700000000  0.4877820000000  0.5691510000000 1.0
C      1  0.4684450000000  0.4339280000000  0.5118760000000 1.0
C      1  0.5530870000000  0.4495720000000  0.5118760000000 1.0
C      1  0.5643650000000  0.5349060000000  0.5118760000000 1.0
C      1  0.4866920000000  0.5720010000000  0.5118760000000 1.0
C      1  0.4274110000000  0.5095930000000  0.5118760000000 1.0
C      1  0.4620380000000  0.5360600000000  0.4499680000000 1.0
C      1  0.4539740000000  0.4750390000000  0.4499680000000 1.0
C      1  0.5095160000000  0.4485130000000  0.4499680000000 1.0
C      1  0.5519070000000  0.4931400000000  0.4499680000000 1.0
C      1  0.5225640000000  0.5472470000000  0.4499680000000 1.0
C      1  0.4674070000000  0.5309610000000  0.4942370000000 1.0
C      1  0.4604830000000  0.4785690000000  0.4942370000000 1.0
C      1  0.5081700000000  0.4557950000000  0.4942370000000 1.0
C      1  0.5445670000000  0.4941100000000  0.4942370000000 1.0
C      1  0.5193730000000  0.5405650000000  0.4942370000000 1.0
C      1  0.5048970000000  0.4735050000000  0.5187620000000 1.0
C      1  0.5267110000000  0.4964700000000  0.5187620000000 1.0
C      1  0.5116120000000  0.5243130000000  0.5187620000000 1.0
C      1  0.4804650000000  0.5185560000000  0.5187620000000 1.0
C      1  0.4763150000000  0.4871550000000  0.5187620000000 1.0
C      1  0.5407090000000  0.4613300000000  0.5370100000000 1.0
C      1  0.5493580000000  0.5267670000000  0.5370100000000 1.0
C      1  0.4897950000000  0.5552130000000  0.5370100000000 1.0
C      1  0.4443360000000  0.5073570000000  0.5370100000000 1.0
C      1  0.4758020000000  0.4493330000000  0.5370100000000 1.0
C      1  0.5082950000000  0.4551180000000  0.5455680000000 1.0
C      1  0.5452480000000  0.4940200000000  0.5455680000000 1.0
C      1  0.5196700000000  0.5411860000000  0.5455680000000 1.0
C      1  0.4669080000000  0.5314340000000  0.5455680000000 1.0
C      1  0.4598780000000  0.4782420000000  0.5455680000000 1.0
C      1  0.4304990000000  0.4935530000000  0.4610740000000 1.0
C      1  0.4846540000000  0.4319090000000  0.4610740000000 1.0
C      1  0.5600160000000  0.4643640000000  0.4610740000000 1.0
C      1  0.5524380000000  0.5460670000000  0.4610740000000 1.0
C      1  0.4723920000000  0.5641070000000  0.4610740000000 1.0
C      1  0.4566860000000  0.4452660000000  0.4610740000000 1.0
C      1  0.5386700000000  0.4418920000000  0.4610740000000 1.0
C      1  0.5672130000000  0.5188210000000  0.4610740000000 1.0
C      1  0.5028700000000  0.5697400000000  0.4610740000000 1.0
C      1  0.4345600000000  0.5242800000000  0.4610740000000 1.0
C      1  0.4525910000000  0.4494550000000  0.4916430000000 1.0
C      1  0.5334210000000  0.4392920000000  0.4916430000000 1.0
C      1  0.5680650000000  0.5130260000000  0.4916430000000 1.0
C      1  0.5086450000000  0.5687580000000  0.4916430000000 1.0
C      1  0.4372780000000  0.5294690000000  0.4916430000000 1.0
C      1  0.4317760000000  0.4878360000000  0.4916430000000 1.0
C      1  0.4904860000000  0.4313560000000  0.4916430000000 1.0
C      1  0.5623440000000  0.4697400000000  0.4916430000000 1.0
C      1  0.5480450000000  0.5499420000000  0.4916430000000 1.0
C      1  0.4673490000000  0.5611260000000  0.4916430000000 1.0
END
