TITL C-3985259-1859-971 5.26534927955935e-07 125000 -291.483015819604 0 0 60 (D4) n - 1
REM
REM in /home/nfs/bkarasulu/CARBON/AIRSS/Generating-Clusters/TERSOFF/Higher-Symm/Only-C60
REM
REM
REM
REM
REM
REM ./C.cell (28575a23ae977d3b5fae324c64b13b57)
REM
REM compiler GCC version 9.2.1 20190827 (Red Hat 9.2.1-1)
REM options -cpp -mtune=generic -march=x86-64 -g -O0 -fpre-include=/usr/include/finclude/math-vector-fortran.h
REM seed 272787235 1628652283 400065150 -1237891742 -752706710 1907371771 1774079268 -511452541 -1770644371 -1814873006 926323801 -286333048 -275005496 2060399063 -611942359 -1575814885 -132534857 479831242 771730378 2118916543 1176711440 -72015958 399622101 -1607999513 -384826211 -1736883813 1813638916 -153595594 -1403569081 967114454 -1596846756 -1359289 1445200186
REM
CELL 1.54180   50.00000   50.00000   50.00000   90.00000   90.00000   90.00000
LATT -1
SFAC C  
C      1  0.5305020000000  0.4772550000000  0.4988190000000 1.0
C      1  0.5305020000000  0.4988190000000  0.5227450000000 1.0
C      1  0.5305020000000  0.5227450000000  0.5011810000000 1.0
C      1  0.5305020000000  0.5011810000000  0.4772550000000 1.0
C      1  0.4669390000000  0.4772550000000  0.5011830000000 1.0
C      1  0.4669390000000  0.4988170000000  0.4772550000000 1.0
C      1  0.4669390000000  0.5227450000000  0.4988170000000 1.0
C      1  0.4669390000000  0.5011830000000  0.5227450000000 1.0
C      1  0.4870450000000  0.5094450000000  0.5663740000000 1.0
C      1  0.4870450000000  0.5663740000000  0.4905550000000 1.0
C      1  0.4870450000000  0.4905550000000  0.4336260000000 1.0
C      1  0.4870450000000  0.4336260000000  0.5094450000000 1.0
C      1  0.5103970000000  0.5094420000000  0.4336250000000 1.0
C      1  0.5103970000000  0.5663750000000  0.5094420000000 1.0
C      1  0.5103970000000  0.4905580000000  0.5663750000000 1.0
C      1  0.5103970000000  0.4336250000000  0.4905580000000 1.0
C      1  0.5081030000000  0.5349870000000  0.5187500000000 1.0
C      1  0.5081030000000  0.5187500000000  0.4650130000000 1.0
C      1  0.5081030000000  0.4650120000000  0.4812500000000 1.0
C      1  0.5081030000000  0.4812500000000  0.5349880000000 1.0
C      1  0.4893380000000  0.5349870000000  0.4812490000000 1.0
C      1  0.4893380000000  0.5187510000000  0.5349870000000 1.0
C      1  0.4893380000000  0.4650130000000  0.5187510000000 1.0
C      1  0.4893390000000  0.4812490000000  0.4650130000000 1.0
C      1  0.4442340000000  0.4695190000000  0.4568170000000 1.0
C      1  0.4442340000000  0.4568170000000  0.5304810000000 1.0
C      1  0.4442340000000  0.5304820000000  0.5431830000000 1.0
C      1  0.4442340000000  0.5431830000000  0.4695180000000 1.0
C      1  0.5532070000000  0.4695200000000  0.5431840000000 1.0
C      1  0.5532070000000  0.4568160000000  0.4695200000000 1.0
C      1  0.5532070000000  0.5304800000000  0.4568160000000 1.0
C      1  0.5532060000000  0.5431840000000  0.5304800000000 1.0
C      1  0.5311750000000  0.5534720000000  0.4610490000000 1.0
C      1  0.5311750000000  0.4610490000000  0.4465280000000 1.0
C      1  0.5311750000000  0.4465280000000  0.5389510000000 1.0
C      1  0.5311750000000  0.5389510000000  0.5534720000000 1.0
C      1  0.4662660000000  0.5534730000000  0.5389480000000 1.0
C      1  0.4662660000000  0.4610520000000  0.5534730000000 1.0
C      1  0.4662660000000  0.4465270000000  0.4610520000000 1.0
C      1  0.4662660000000  0.5389480000000  0.4465270000000 1.0
C      1  0.4641320000000  0.5088990000000  0.4460620000000 1.0
C      1  0.4641320000000  0.4460620000000  0.4911010000000 1.0
C      1  0.4641320000000  0.4911010000000  0.5539380000000 1.0
C      1  0.4641320000000  0.5539380000000  0.5088990000000 1.0
C      1  0.5333090000000  0.5089020000000  0.5539380000000 1.0
C      1  0.5333090000000  0.4460620000000  0.5089020000000 1.0
C      1  0.5333090000000  0.4910980000000  0.4460620000000 1.0
C      1  0.5333090000000  0.5539380000000  0.4910980000000 1.0
C      1  0.5698580000000  0.4798960000000  0.4847740000000 1.0
C      1  0.5698580000000  0.4847740000000  0.5201040000000 1.0
C      1  0.5698580000000  0.5201040000000  0.5152260000000 1.0
C      1  0.5698580000000  0.5152260000000  0.4798960000000 1.0
C      1  0.4275820000000  0.4798970000000  0.5152260000000 1.0
C      1  0.4275830000000  0.4847740000000  0.4798970000000 1.0
C      1  0.4275830000000  0.5201030000000  0.4847740000000 1.0
C      1  0.4275820000000  0.5152260000000  0.5201030000000 1.0
C      1  0.4987200000000  0.4453750000000  0.5546280000000 1.0
C      1  0.4987200000000  0.5546280000000  0.5546250000000 1.0
C      1  0.4987200000000  0.5546250000000  0.4453720000000 1.0
C      1  0.4987200000000  0.4453720000000  0.4453750000000 1.0
END
