TITL C-3985253-1688-335 2.64404704921993e-07 125000 -322.859718591504 0 0 60 (Th) n - 1
REM
REM in /home/nfs/bkarasulu/CARBON/AIRSS/Generating-Clusters/TERSOFF/Higher-Symm/Only-C60
REM
REM
REM
REM
REM
REM ./C.cell (28575a23ae977d3b5fae324c64b13b57)
REM
REM compiler GCC version 9.2.1 20190827 (Red Hat 9.2.1-1)
REM options -cpp -mtune=generic -march=x86-64 -g -O0 -fpre-include=/usr/include/finclude/math-vector-fortran.h
REM seed 1194084585 40879842 -137718505 -1718538718 -480600379 120297693 -572364803 2034624929 253283245 -515823462 1622717767 -1557658246 374964322 -959177310 383060966 606032692 -87015425 1436686346 836260533 -288708061 -2114364189 1749226853 1182817187 -1576460647 368223182 -933686017 1150379108 -2045084349 86416006 392777593 1572882038 -2072735451 461768890
REM
CELL 1.54180   50.00000   50.00000   50.00000   90.00000   90.00000   90.00000
LATT -1
SFAC C  
C      1  0.4258380000000  0.4572600000000  0.5145090000000 1.0
C      1  0.5145090000000  0.4258380000000  0.4572600000000 1.0
C      1  0.4572600000000  0.5145090000000  0.4258380000000 1.0
C      1  0.4258380000000  0.5427400000000  0.4854910000000 1.0
C      1  0.5741620000000  0.5427400000000  0.5145090000000 1.0
C      1  0.5741620000000  0.4572600000000  0.4854910000000 1.0
C      1  0.5145090000000  0.5741620000000  0.5427400000000 1.0
C      1  0.4854910000000  0.5741620000000  0.4572600000000 1.0
C      1  0.4854910000000  0.4258380000000  0.5427400000000 1.0
C      1  0.4572600000000  0.4854910000000  0.5741620000000 1.0
C      1  0.5427400000000  0.4854910000000  0.4258380000000 1.0
C      1  0.5427400000000  0.5145090000000  0.5741620000000 1.0
C      1  0.5741620000000  0.4572600000000  0.5145090000000 1.0
C      1  0.4854910000000  0.4258380000000  0.4572600000000 1.0
C      1  0.5427400000000  0.5145090000000  0.4258380000000 1.0
C      1  0.5741620000000  0.5427400000000  0.4854910000000 1.0
C      1  0.4258380000000  0.5427400000000  0.5145090000000 1.0
C      1  0.4258380000000  0.4572600000000  0.4854910000000 1.0
C      1  0.4854910000000  0.5741620000000  0.5427400000000 1.0
C      1  0.5145090000000  0.5741620000000  0.4572600000000 1.0
C      1  0.5145090000000  0.4258380000000  0.5427400000000 1.0
C      1  0.5427400000000  0.4854910000000  0.5741620000000 1.0
C      1  0.4572600000000  0.4854910000000  0.4258380000000 1.0
C      1  0.4572600000000  0.5145090000000  0.5741620000000 1.0
C      1  0.4472010000000  0.4736700000000  0.5290120000000 1.0
C      1  0.5290120000000  0.4472010000000  0.4736700000000 1.0
C      1  0.4736700000000  0.5290120000000  0.4472010000000 1.0
C      1  0.4472010000000  0.5263300000000  0.4709880000000 1.0
C      1  0.5527990000000  0.5263300000000  0.5290120000000 1.0
C      1  0.5527990000000  0.4736700000000  0.4709880000000 1.0
C      1  0.5290120000000  0.5527990000000  0.5263300000000 1.0
C      1  0.4709880000000  0.5527990000000  0.4736700000000 1.0
C      1  0.4709880000000  0.4472010000000  0.5263300000000 1.0
C      1  0.4736700000000  0.4709880000000  0.5527990000000 1.0
C      1  0.5263300000000  0.4709880000000  0.4472010000000 1.0
C      1  0.5263300000000  0.5290120000000  0.5527990000000 1.0
C      1  0.5527990000000  0.4736700000000  0.5290120000000 1.0
C      1  0.4709880000000  0.4472010000000  0.4736700000000 1.0
C      1  0.5263300000000  0.5290120000000  0.4472010000000 1.0
C      1  0.5527990000000  0.5263300000000  0.4709880000000 1.0
C      1  0.4472010000000  0.5263300000000  0.5290120000000 1.0
C      1  0.4472010000000  0.4736700000000  0.4709880000000 1.0
C      1  0.4709880000000  0.5527990000000  0.5263300000000 1.0
C      1  0.5290120000000  0.5527990000000  0.4736700000000 1.0
C      1  0.5290120000000  0.4472010000000  0.5263300000000 1.0
C      1  0.5263300000000  0.4709880000000  0.5527990000000 1.0
C      1  0.4736700000000  0.4709880000000  0.4472010000000 1.0
C      1  0.4736700000000  0.5290120000000  0.5527990000000 1.0
C      1  0.5146010000000  0.5503190000000  0.5000000000000 1.0
C      1  0.5000000000000  0.5146010000000  0.5503190000000 1.0
C      1  0.5503190000000  0.5000000000000  0.5146010000000 1.0
C      1  0.5146010000000  0.4496810000000  0.5000000000000 1.0
C      1  0.4853990000000  0.4496810000000  0.5000000000000 1.0
C      1  0.4853990000000  0.5503190000000  0.5000000000000 1.0
C      1  0.5000000000000  0.4853990000000  0.4496810000000 1.0
C      1  0.5000000000000  0.4853990000000  0.5503190000000 1.0
C      1  0.5000000000000  0.5146010000000  0.4496810000000 1.0
C      1  0.5503190000000  0.5000000000000  0.4853990000000 1.0
C      1  0.4496810000000  0.5000000000000  0.5146010000000 1.0
C      1  0.4496810000000  0.5000000000000  0.4853990000000 1.0
END
