TITL C-3985254-1270-1929 0.00119887297205768 125000 -323.948900332989 0 0 60 (C1) n - 1
REM
REM in /home/nfs/bkarasulu/CARBON/AIRSS/Generating-Clusters/TERSOFF/Higher-Symm/Only-C60
REM
REM
REM
REM
REM
REM ./C.cell (28575a23ae977d3b5fae324c64b13b57)
REM
REM compiler GCC version 9.2.1 20190827 (Red Hat 9.2.1-1)
REM options -cpp -mtune=generic -march=x86-64 -g -O0 -fpre-include=/usr/include/finclude/math-vector-fortran.h
REM seed -1396486949 -175201081 656450126 567245846 -1440590075 1616090260 -2116566181 -96067962 -2047033134 2000746850 45471034 1975422943 -1848482897 -1702010226 793730914 -698873110 109055836 -757808679 -1435409 1485465438 1852743902 -888822295 -1621636241 -1901057188 972802145 714601443 1902469920 -1982191866 -80696056 -1438470908 -1164554160 699629442 1645752245
REM
CELL 1.54180   50.00000   50.00000   50.00000   90.00000   90.00000   90.00000
LATT -1
SFAC C  
C      1  0.4666690000000  0.4753570000000  0.4311860000000 1.0
C      1  0.5041560000000  0.4585120000000  0.4619820000000 1.0
C      1  0.4447940000000  0.5388230000000  0.4610460000000 1.0
C      1  0.5149620000000  0.4734940000000  0.5643690000000 1.0
C      1  0.5042060000000  0.5041170000000  0.5366010000000 1.0
C      1  0.5393030000000  0.4711450000000  0.5445950000000 1.0
C      1  0.5694280000000  0.5259830000000  0.5251070000000 1.0
C      1  0.4528130000000  0.4355510000000  0.5281480000000 1.0
C      1  0.4767720000000  0.4554860000000  0.4509390000000 1.0
C      1  0.4799480000000  0.5191010000000  0.5674050000000 1.0
C      1  0.4689390000000  0.4745570000000  0.5119620000000 1.0
C      1  0.4597350000000  0.5518230000000  0.5325150000000 1.0
C      1  0.4544230000000  0.5339700000000  0.4882370000000 1.0
C      1  0.4626360000000  0.5603420000000  0.5015280000000 1.0
C      1  0.5544010000000  0.4371800000000  0.4998960000000 1.0
C      1  0.5104590000000  0.4332680000000  0.4775650000000 1.0
C      1  0.5376650000000  0.4999420000000  0.5338050000000 1.0
C      1  0.5760250000000  0.4997780000000  0.5128490000000 1.0
C      1  0.4389740000000  0.5287050000000  0.5158730000000 1.0
C      1  0.4591320000000  0.4558520000000  0.4756770000000 1.0
C      1  0.4823440000000  0.5439760000000  0.5505270000000 1.0
C      1  0.4677930000000  0.4407050000000  0.5022240000000 1.0
C      1  0.5100630000000  0.4893010000000  0.4796290000000 1.0
C      1  0.4835720000000  0.5773050000000  0.4586940000000 1.0
C      1  0.5133590000000  0.5508910000000  0.5467590000000 1.0
C      1  0.4915460000000  0.5592290000000  0.4350430000000 1.0
C      1  0.5202330000000  0.5097200000000  0.4307300000000 1.0
C      1  0.5546350000000  0.5200930000000  0.5513990000000 1.0
C      1  0.4521350000000  0.4935940000000  0.4495210000000 1.0
C      1  0.5310350000000  0.4925390000000  0.4525720000000 1.0
C      1  0.5262100000000  0.5134810000000  0.5024260000000 1.0
C      1  0.4986510000000  0.4768480000000  0.5235600000000 1.0
C      1  0.5261870000000  0.5588350000000  0.5203090000000 1.0
C      1  0.4983830000000  0.5258660000000  0.4627420000000 1.0
C      1  0.5101120000000  0.4356000000000  0.5281550000000 1.0
C      1  0.4566460000000  0.4875660000000  0.4816120000000 1.0
C      1  0.5379910000000  0.4476280000000  0.5237980000000 1.0
C      1  0.4810240000000  0.5108780000000  0.4850300000000 1.0
C      1  0.5528000000000  0.5043150000000  0.4693070000000 1.0
C      1  0.4568560000000  0.5214490000000  0.4415160000000 1.0
C      1  0.5079800000000  0.5542260000000  0.4966590000000 1.0
C      1  0.5348450000000  0.4599070000000  0.4490490000000 1.0
C      1  0.5412350000000  0.4343600000000  0.4737420000000 1.0
C      1  0.4319330000000  0.5021580000000  0.5257530000000 1.0
C      1  0.5073790000000  0.5057000000000  0.5695800000000 1.0
C      1  0.5284580000000  0.4717900000000  0.5039550000000 1.0
C      1  0.4943250000000  0.4550770000000  0.5479830000000 1.0
C      1  0.4893260000000  0.5265140000000  0.4329020000000 1.0
C      1  0.5497000000000  0.5398430000000  0.5068390000000 1.0
C      1  0.5279880000000  0.5297400000000  0.5628150000000 1.0
C      1  0.4509680000000  0.4840590000000  0.5414460000000 1.0
C      1  0.5208840000000  0.5431870000000  0.4719160000000 1.0
C      1  0.4626480000000  0.4545700000000  0.5483510000000 1.0
C      1  0.4965280000000  0.5253730000000  0.5105080000000 1.0
C      1  0.4570220000000  0.5017850000000  0.5651750000000 1.0
C      1  0.4957300000000  0.4297840000000  0.5028040000000 1.0
C      1  0.4859270000000  0.5710960000000  0.4883380000000 1.0
C      1  0.5577500000000  0.4874140000000  0.4934520000000 1.0
C      1  0.5497540000000  0.5338690000000  0.4744410000000 1.0
C      1  0.4826070000000  0.4967440000000  0.4174540000000 1.0
END
