TITL C-3985253-1688-590 7.35274842604136e-06 125000 -307.379877878489 0 0 60 (C1) n - 1
REM
REM in /home/nfs/bkarasulu/CARBON/AIRSS/Generating-Clusters/TERSOFF/Higher-Symm/Only-C60
REM
REM
REM
REM
REM
REM ./C.cell (28575a23ae977d3b5fae324c64b13b57)
REM
REM compiler GCC version 9.2.1 20190827 (Red Hat 9.2.1-1)
REM options -cpp -mtune=generic -march=x86-64 -g -O0 -fpre-include=/usr/include/finclude/math-vector-fortran.h
REM seed 1456646324 864175533 1848554228 69390990 473375868 -2032656536 1024278008 2068048993 53608360 -1697633607 -1723552716 2105969007 -1244383678 -749008286 1399020315 1151411938 407332154 -1500560721 1979251979 803915466 -825613423 -1315089459 -383893436 1505361629 -1567927361 324610327 -1174507209 -1511212028 -1219290887 142581826 -98119490 -7507050 413035791
REM
CELL 1.54180   50.00000   50.00000   50.00000   90.00000   90.00000   90.00000
LATT -1
SFAC C  
C      1  0.4393550000000  0.5361470000000  0.4977220000000 1.0
C      1  0.4635340000000  0.4324080000000  0.4787420000000 1.0
C      1  0.4654530000000  0.5211350000000  0.5655560000000 1.0
C      1  0.4968340000000  0.5015380000000  0.4235920000000 1.0
C      1  0.4296220000000  0.5015370000000  0.4760480000000 1.0
C      1  0.5396750000000  0.4555460000000  0.5186510000000 1.0
C      1  0.5051170000000  0.5505480000000  0.5537120000000 1.0
C      1  0.4365250000000  0.4936370000000  0.5268630000000 1.0
C      1  0.4891860000000  0.4642560000000  0.5654230000000 1.0
C      1  0.4966400000000  0.5240080000000  0.5664320000000 1.0
C      1  0.5451620000000  0.5344190000000  0.4564010000000 1.0
C      1  0.4537180000000  0.4786460000000  0.4390470000000 1.0
C      1  0.4434790000000  0.5245490000000  0.5232050000000 1.0
C      1  0.4701970000000  0.4311540000000  0.4505390000000 1.0
C      1  0.4896570000000  0.5076290000000  0.5230100000000 1.0
C      1  0.5090360000000  0.5026680000000  0.5476950000000 1.0
C      1  0.5362050000000  0.4329240000000  0.4984300000000 1.0
C      1  0.5183580000000  0.5687280000000  0.4928460000000 1.0
C      1  0.5712480000000  0.4904290000000  0.5401450000000 1.0
C      1  0.5286030000000  0.4828020000000  0.4434200000000 1.0
C      1  0.4540790000000  0.5228350000000  0.4743470000000 1.0
C      1  0.5129000000000  0.5120190000000  0.4711500000000 1.0
C      1  0.5604200000000  0.5040350000000  0.4686630000000 1.0
C      1  0.4376440000000  0.4766470000000  0.4644100000000 1.0
C      1  0.4451520000000  0.4563160000000  0.4859960000000 1.0
C      1  0.5456290000000  0.5254760000000  0.5655690000000 1.0
C      1  0.5679310000000  0.4845170000000  0.5075570000000 1.0
C      1  0.5029470000000  0.4924420000000  0.4934930000000 1.0
C      1  0.5204260000000  0.5560650000000  0.4637800000000 1.0
C      1  0.5232600000000  0.4493550000000  0.5425180000000 1.0
C      1  0.5050000000000  0.4320370000000  0.5166540000000 1.0
C      1  0.4491090000000  0.4960730000000  0.5587570000000 1.0
C      1  0.5314810000000  0.5107480000000  0.5240290000000 1.0
C      1  0.4969720000000  0.5363840000000  0.4616780000000 1.0
C      1  0.5091840000000  0.5308890000000  0.5084860000000 1.0
C      1  0.4816320000000  0.5406470000000  0.4874250000000 1.0
C      1  0.4179470000000  0.4983250000000  0.5026110000000 1.0
C      1  0.4838490000000  0.4471480000000  0.4994260000000 1.0
C      1  0.5353780000000  0.4836550000000  0.5069240000000 1.0
C      1  0.4659360000000  0.5069610000000  0.4285120000000 1.0
C      1  0.4591560000000  0.4669150000000  0.5170480000000 1.0
C      1  0.5296950000000  0.4541930000000  0.4775570000000 1.0
C      1  0.4833560000000  0.5579220000000  0.5328980000000 1.0
C      1  0.4743320000000  0.4557550000000  0.4357550000000 1.0
C      1  0.5181040000000  0.4748300000000  0.5593460000000 1.0
C      1  0.5368430000000  0.5505430000000  0.5113080000000 1.0
C      1  0.5752710000000  0.5137860000000  0.4961190000000 1.0
C      1  0.5334250000000  0.5469540000000  0.5451830000000 1.0
C      1  0.5620640000000  0.5209760000000  0.5272020000000 1.0
C      1  0.5020480000000  0.4641710000000  0.4798600000000 1.0
C      1  0.5489650000000  0.4746260000000  0.4635170000000 1.0
C      1  0.4889520000000  0.5673770000000  0.5043230000000 1.0
C      1  0.5481480000000  0.4949640000000  0.5606370000000 1.0
C      1  0.4687250000000  0.5304120000000  0.5357360000000 1.0
C      1  0.5295660000000  0.5126930000000  0.4326270000000 1.0
C      1  0.4759880000000  0.5339510000000  0.4402840000000 1.0
C      1  0.4649910000000  0.4717170000000  0.5502520000000 1.0
C      1  0.4945490000000  0.4760780000000  0.4484640000000 1.0
C      1  0.5567690000000  0.5398970000000  0.4900840000000 1.0
C      1  0.4745740000000  0.4949620000000  0.4723350000000 1.0
END
