TITL C-3985250-725-1054 0.000244800128445981 125000 -308.491137319903 0 0 60 (C3h) n - 1
REM
REM in /home/nfs/bkarasulu/CARBON/AIRSS/Generating-Clusters/TERSOFF/Higher-Symm/Only-C60
REM
REM
REM
REM
REM
REM ./C.cell (28575a23ae977d3b5fae324c64b13b57)
REM
REM compiler GCC version 9.2.1 20190827 (Red Hat 9.2.1-1)
REM options -cpp -mtune=generic -march=x86-64 -g -O0 -fpre-include=/usr/include/finclude/math-vector-fortran.h
REM seed -1943378756 -914134350 1453241632 1291111053 -1090171743 1096195723 1394849375 -1052863720 -1690940348 -717393703 93406698 -1017737669 1342549296 -1596493273 568783737 -398169126 2110882925 1983160024 -693218080 1196152906 480415698 720030940 -395306246 739309428 -1856680680 1830396203 -918203023 1253536212 1313727613 1707052083 964715115 323340737 -1013865212
REM
CELL 1.54180   50.00000   50.00000   50.00000   90.00000   90.00000   90.00000
LATT -1
SFAC C  
C      1  0.5484030000000  0.4520960000000  0.5151000000000 1.0
C      1  0.5172810000000  0.5658730000000  0.5151000000000 1.0
C      1  0.4343110000000  0.4820320000000  0.5150990000000 1.0
C      1  0.5484050000000  0.4520950000000  0.4849000000000 1.0
C      1  0.5172800000000  0.5658730000000  0.4849000000000 1.0
C      1  0.4343130000000  0.4820340000000  0.4849000000000 1.0
C      1  0.5129850000000  0.5204520000000  0.4694550000000 1.0
C      1  0.4757970000000  0.5010180000000  0.4694550000000 1.0
C      1  0.5112210000000  0.4785290000000  0.4694560000000 1.0
C      1  0.5129840000000  0.5204520000000  0.5305440000000 1.0
C      1  0.4757950000000  0.5010170000000  0.5305470000000 1.0
C      1  0.5112210000000  0.4785280000000  0.5305450000000 1.0
C      1  0.5512130000000  0.5294270000000  0.4843910000000 1.0
C      1  0.4489120000000  0.5296440000000  0.4843910000000 1.0
C      1  0.4998750000000  0.4409340000000  0.4843910000000 1.0
C      1  0.5512200000000  0.5294300000000  0.5156100000000 1.0
C      1  0.4489110000000  0.5296440000000  0.5156090000000 1.0
C      1  0.4998740000000  0.4409360000000  0.5156090000000 1.0
C      1  0.5183620000000  0.4613900000000  0.5588770000000 1.0
C      1  0.5242550000000  0.5352060000000  0.5588770000000 1.0
C      1  0.4573840000000  0.5034030000000  0.5588760000000 1.0
C      1  0.5183610000000  0.4613900000000  0.4411240000000 1.0
C      1  0.5242550000000  0.5352050000000  0.4411240000000 1.0
C      1  0.4573840000000  0.5034030000000  0.4411230000000 1.0
C      1  0.4836050000000  0.4710540000000  0.5160150000000 1.0
C      1  0.5332670000000  0.5002780000000  0.5160110000000 1.0
C      1  0.4831290000000  0.5286680000000  0.5160140000000 1.0
C      1  0.4836070000000  0.4710540000000  0.4839880000000 1.0
C      1  0.5332660000000  0.5002760000000  0.4839860000000 1.0
C      1  0.4831300000000  0.5286680000000  0.4839870000000 1.0
C      1  0.4738560000000  0.5311650000000  0.4291920000000 1.0
C      1  0.4860820000000  0.4617760000000  0.4291940000000 1.0
C      1  0.5400610000000  0.5070580000000  0.4291950000000 1.0
C      1  0.4738570000000  0.5311650000000  0.5708070000000 1.0
C      1  0.4860830000000  0.4617750000000  0.5708050000000 1.0
C      1  0.5400620000000  0.5070580000000  0.5708050000000 1.0
C      1  0.5028260000000  0.5206140000000  0.5845920000000 1.0
C      1  0.4807350000000  0.4921380000000  0.5845920000000 1.0
C      1  0.5164400000000  0.4872460000000  0.5845920000000 1.0
C      1  0.5028250000000  0.5206130000000  0.4154070000000 1.0
C      1  0.4807350000000  0.4921390000000  0.4154070000000 1.0
C      1  0.5164400000000  0.4872460000000  0.4154080000000 1.0
C      1  0.4345570000000  0.5084110000000  0.4686590000000 1.0
C      1  0.5254400000000  0.4391180000000  0.4686590000000 1.0
C      1  0.5400020000000  0.5524750000000  0.4686590000000 1.0
C      1  0.4345560000000  0.5084090000000  0.5313400000000 1.0
C      1  0.5254390000000  0.4391180000000  0.5313410000000 1.0
C      1  0.5400020000000  0.5524740000000  0.5313410000000 1.0
C      1  0.4945770000000  0.5501810000000  0.5560220000000 1.0
C      1  0.4592550000000  0.4702140000000  0.5560190000000 1.0
C      1  0.5461680000000  0.4796050000000  0.5560200000000 1.0
C      1  0.4945760000000  0.5501800000000  0.4439790000000 1.0
C      1  0.4592540000000  0.4702140000000  0.4439800000000 1.0
C      1  0.5461680000000  0.4796050000000  0.4439800000000 1.0
C      1  0.4553190000000  0.4644710000000  0.4724310000000 1.0
C      1  0.5531120000000  0.4790690000000  0.4724310000000 1.0
C      1  0.4915690000000  0.5564570000000  0.4724300000000 1.0
C      1  0.4553180000000  0.4644690000000  0.5275690000000 1.0
C      1  0.5531110000000  0.4790690000000  0.5275690000000 1.0
C      1  0.4915690000000  0.5564590000000  0.5275700000000 1.0
END
