TITL C-3985250-725-454 0.0070805888830147 125000 -321.80938343377 0 0 60 (Cs) n - 1
REM
REM in /home/nfs/bkarasulu/CARBON/AIRSS/Generating-Clusters/TERSOFF/Higher-Symm/Only-C60
REM
REM
REM
REM
REM
REM ./C.cell (28575a23ae977d3b5fae324c64b13b57)
REM
REM compiler GCC version 9.2.1 20190827 (Red Hat 9.2.1-1)
REM options -cpp -mtune=generic -march=x86-64 -g -O0 -fpre-include=/usr/include/finclude/math-vector-fortran.h
REM seed 865661899 329197766 1682408550 1376488663 2063957048 -1948325886 722704010 1328408227 288095081 -417410136 -1670113517 1483224436 -639798558 -178566500 -1958269552 -318950152 -783822344 -281946098 -1050912364 -1937373732 89829408 66002716 618824947 1670090083 877206618 -294596261 -1169299898 1288348353 -1439647446 -977430716 -743389115 -571523472 -1864802397
REM
CELL 1.54180   50.00000   50.00000   50.00000   90.00000   90.00000   90.00000
LATT -1
SFAC C  
C      1  0.5269180000000  0.4805460000000  0.4867700000000 1.0
C      1  0.4749670000000  0.4805230000000  0.4866650000000 1.0
C      1  0.4354960000000  0.4939920000000  0.4831590000000 1.0
C      1  0.5665050000000  0.4940540000000  0.4831770000000 1.0
C      1  0.5225090000000  0.5130550000000  0.4816090000000 1.0
C      1  0.4793510000000  0.5130290000000  0.4815700000000 1.0
C      1  0.5237270000000  0.5675840000000  0.5058720000000 1.0
C      1  0.4781260000000  0.5676180000000  0.5058540000000 1.0
C      1  0.5579560000000  0.5178940000000  0.5034380000000 1.0
C      1  0.4439000000000  0.5179010000000  0.5033870000000 1.0
C      1  0.5431590000000  0.4579360000000  0.4684090000000 1.0
C      1  0.4588340000000  0.4579160000000  0.4683410000000 1.0
C      1  0.4489790000000  0.4861910000000  0.4541250000000 1.0
C      1  0.5529190000000  0.4862080000000  0.4541320000000 1.0
C      1  0.4623510000000  0.5415830000000  0.4899440000000 1.0
C      1  0.5395160000000  0.5415630000000  0.4899880000000 1.0
C      1  0.4747290000000  0.4334550000000  0.4561850000000 1.0
C      1  0.5273090000000  0.4334700000000  0.4562460000000 1.0
C      1  0.4745040000000  0.4560890000000  0.5309050000000 1.0
C      1  0.5274840000000  0.4560850000000  0.5309340000000 1.0
C      1  0.5259160000000  0.5475770000000  0.5825400000000 1.0
C      1  0.4758430000000  0.5476630000000  0.5824900000000 1.0
C      1  0.4768090000000  0.4837930000000  0.4386410000000 1.0
C      1  0.5251190000000  0.4838310000000  0.4386500000000 1.0
C      1  0.5158070000000  0.4073870000000  0.5345230000000 1.0
C      1  0.4862350000000  0.4074200000000  0.5345390000000 1.0
C      1  0.4526910000000  0.5028130000000  0.5315060000000 1.0
C      1  0.5492040000000  0.5028090000000  0.5315310000000 1.0
C      1  0.5301090000000  0.5189920000000  0.5781220000000 1.0
C      1  0.4716140000000  0.5190710000000  0.5780790000000 1.0
C      1  0.5675560000000  0.4705320000000  0.5016880000000 1.0
C      1  0.4344250000000  0.4705080000000  0.5016530000000 1.0
C      1  0.4774620000000  0.4303660000000  0.5172590000000 1.0
C      1  0.5245520000000  0.4303580000000  0.5172580000000 1.0
C      1  0.5153360000000  0.5020670000000  0.5973180000000 1.0
C      1  0.4862640000000  0.5021710000000  0.5973910000000 1.0
C      1  0.4769810000000  0.5615980000000  0.4644410000000 1.0
C      1  0.5249160000000  0.5615920000000  0.4644430000000 1.0
C      1  0.4503610000000  0.4732020000000  0.5262430000000 1.0
C      1  0.5516240000000  0.4732030000000  0.5263070000000 1.0
C      1  0.5266100000000  0.5093730000000  0.5502340000000 1.0
C      1  0.4752000000000  0.5094120000000  0.5502240000000 1.0
C      1  0.5009880000000  0.4956930000000  0.5461110000000 1.0
C      1  0.5009510000000  0.5754480000000  0.5506080000000 1.0
C      1  0.5008840000000  0.5329760000000  0.5268400000000 1.0
C      1  0.5009200000000  0.5147460000000  0.5042120000000 1.0
C      1  0.5010500000000  0.4384910000000  0.4349250000000 1.0
C      1  0.5010100000000  0.4206380000000  0.4727600000000 1.0
C      1  0.5009860000000  0.5221510000000  0.4101950000000 1.0
C      1  0.5009160000000  0.5612740000000  0.5755580000000 1.0
C      1  0.5009630000000  0.5496210000000  0.4200560000000 1.0
C      1  0.5009620000000  0.5491650000000  0.4498200000000 1.0
C      1  0.5009930000000  0.4655630000000  0.4503960000000 1.0
C      1  0.5009570000000  0.5814670000000  0.4823120000000 1.0
C      1  0.5009660000000  0.5040970000000  0.4337660000000 1.0
C      1  0.5010210000000  0.4643670000000  0.4842220000000 1.0
C      1  0.5009400000000  0.4685980000000  0.5385340000000 1.0
C      1  0.5009400000000  0.5615910000000  0.5251980000000 1.0
C      1  0.5009510000000  0.5203750000000  0.4584450000000 1.0
C      1  0.5010110000000  0.4359270000000  0.4977750000000 1.0
END
