TITL C-3985248-2097-174 1.95349842085522e-07 125000 -305.256788878014 0 0 60 (C2v) n - 1
REM
REM in /home/nfs/bkarasulu/CARBON/AIRSS/Generating-Clusters/TERSOFF/Higher-Symm/Only-C60
REM
REM
REM
REM
REM
REM ./C.cell (28575a23ae977d3b5fae324c64b13b57)
REM
REM compiler GCC version 9.2.1 20190827 (Red Hat 9.2.1-1)
REM options -cpp -mtune=generic -march=x86-64 -g -O0 -fpre-include=/usr/include/finclude/math-vector-fortran.h
REM seed 1648798610 44595892 -1733751818 -393413765 -1703583067 -1425911529 -310514073 -1373592913 -1493755365 -2069876901 222395249 1621816438 534944429 -144935161 -679232410 -1566983521 -1576675097 491804730 -1894267118 -1969436313 1407579572 -755840046 1339980646 1211828515 -501307747 -1814047729 411285550 1143481976 -1901437143 -1103769135 1218524540 2127861352 -1891100252
REM
CELL 1.54180   50.00000   50.00000   50.00000   90.00000   90.00000   90.00000
LATT -1
SFAC C  
C      1  0.5199090000000  0.4495330000000  0.4834660000000 1.0
C      1  0.5199090000000  0.5504670000000  0.5165340000000 1.0
C      1  0.5199090000000  0.5504670000000  0.4834660000000 1.0
C      1  0.5199090000000  0.4495330000000  0.5165340000000 1.0
C      1  0.4650750000000  0.4383600000000  0.5145570000000 1.0
C      1  0.4650750000000  0.5616400000000  0.4854430000000 1.0
C      1  0.4650750000000  0.5616400000000  0.5145570000000 1.0
C      1  0.4650750000000  0.4383600000000  0.4854430000000 1.0
C      1  0.5278010000000  0.4374550000000  0.5470400000000 1.0
C      1  0.5278010000000  0.5625450000000  0.4529600000000 1.0
C      1  0.5278010000000  0.5625450000000  0.5470400000000 1.0
C      1  0.5278010000000  0.4374550000000  0.4529600000000 1.0
C      1  0.4980380000000  0.5615760000000  0.4409240000000 1.0
C      1  0.4980380000000  0.4384240000000  0.5590760000000 1.0
C      1  0.4980380000000  0.4384240000000  0.4409240000000 1.0
C      1  0.4980380000000  0.5615760000000  0.5590760000000 1.0
C      1  0.4937820000000  0.5322040000000  0.4319800000000 1.0
C      1  0.4937820000000  0.4677960000000  0.5680200000000 1.0
C      1  0.4937820000000  0.4677960000000  0.4319800000000 1.0
C      1  0.4937820000000  0.5322040000000  0.5680200000000 1.0
C      1  0.4614110000000  0.4831930000000  0.5355230000000 1.0
C      1  0.4614110000000  0.5168070000000  0.4644770000000 1.0
C      1  0.4614110000000  0.5168070000000  0.5355230000000 1.0
C      1  0.4614110000000  0.4831930000000  0.4644770000000 1.0
C      1  0.5091810000000  0.5158480000000  0.5482290000000 1.0
C      1  0.5091810000000  0.4841520000000  0.4517710000000 1.0
C      1  0.5091810000000  0.4841520000000  0.5482290000000 1.0
C      1  0.5091810000000  0.5158480000000  0.4517710000000 1.0
C      1  0.4486870000000  0.5417320000000  0.4728010000000 1.0
C      1  0.4486870000000  0.4582680000000  0.5271990000000 1.0
C      1  0.4486870000000  0.4582680000000  0.4728010000000 1.0
C      1  0.4486870000000  0.5417320000000  0.5271990000000 1.0
C      1  0.5362340000000  0.4817890000000  0.5163420000000 1.0
C      1  0.5362340000000  0.5182110000000  0.4836580000000 1.0
C      1  0.5362340000000  0.5182110000000  0.5163420000000 1.0
C      1  0.5362340000000  0.4817890000000  0.4836580000000 1.0
C      1  0.4914260000000  0.4833760000000  0.5180240000000 1.0
C      1  0.4914260000000  0.5166240000000  0.4819760000000 1.0
C      1  0.4914260000000  0.5166240000000  0.5180240000000 1.0
C      1  0.4914260000000  0.4833760000000  0.4819760000000 1.0
C      1  0.4675900000000  0.5165150000000  0.4330200000000 1.0
C      1  0.4675900000000  0.4834850000000  0.5669800000000 1.0
C      1  0.4675900000000  0.4834850000000  0.4330200000000 1.0
C      1  0.4675900000000  0.5165150000000  0.5669800000000 1.0
C      1  0.4913020000000  0.5694690000000  0.4725410000000 1.0
C      1  0.4913020000000  0.4305310000000  0.5274590000000 1.0
C      1  0.4913020000000  0.4305310000000  0.4725410000000 1.0
C      1  0.4913020000000  0.5694690000000  0.5274590000000 1.0
C      1  0.5424250000000  0.4831410000000  0.5489210000000 1.0
C      1  0.5424250000000  0.5168590000000  0.4510790000000 1.0
C      1  0.5424250000000  0.5168590000000  0.5489210000000 1.0
C      1  0.5424250000000  0.4831410000000  0.4510790000000 1.0
C      1  0.5475510000000  0.4554410000000  0.5593730000000 1.0
C      1  0.5475510000000  0.5445590000000  0.4406270000000 1.0
C      1  0.5475510000000  0.5445590000000  0.5593730000000 1.0
C      1  0.5475510000000  0.4554410000000  0.4406270000000 1.0
C      1  0.4995890000000  0.4042690000000  0.4854170000000 1.0
C      1  0.4995890000000  0.5957310000000  0.5145830000000 1.0
C      1  0.4995890000000  0.5957310000000  0.4854170000000 1.0
C      1  0.4995890000000  0.4042690000000  0.5145830000000 1.0
END
