TITL C-3985245-9316-1085 0.00410525617693962 125000 -307.386194238367 0 0 60 (C2h) n - 1
REM
REM in /home/nfs/bkarasulu/CARBON/AIRSS/Generating-Clusters/TERSOFF/Higher-Symm/Only-C60
REM
REM
REM
REM
REM
REM ./C.cell (28575a23ae977d3b5fae324c64b13b57)
REM
REM compiler GCC version 9.2.1 20190827 (Red Hat 9.2.1-1)
REM options -cpp -mtune=generic -march=x86-64 -g -O0 -fpre-include=/usr/include/finclude/math-vector-fortran.h
REM seed -747613046 1637105693 -673953113 -1335140636 -962638538 767883560 -411537808 1441241490 -1039657831 -1263062106 1471963021 -218310254 -990410739 -446323415 -1811385063 -1606727454 1838791303 1935428002 473038646 1825811332 1995466435 -321908910 10564038 483041603 -1882212077 2125517982 -1933845589 -974559612 38126715 1608064365 179320998 -941375489 -80855973
REM
CELL 1.54180   50.00000   50.00000   50.00000   90.00000   90.00000   90.00000
LATT -1
SFAC C  
C      1  0.5184940000000  0.5811230000000  0.5165680000000 1.0
C      1  0.4203820000000  0.4748250000000  0.5171270000000 1.0
C      1  0.5607530000000  0.4437310000000  0.5161690000000 1.0
C      1  0.4815060000000  0.5811230000000  0.4834320000000 1.0
C      1  0.5796180000000  0.4748250000000  0.4828730000000 1.0
C      1  0.4392470000000  0.4437310000000  0.4838310000000 1.0
C      1  0.4815060000000  0.4188770000000  0.4834320000000 1.0
C      1  0.5796180000000  0.5251750000000  0.4828730000000 1.0
C      1  0.4392470000000  0.5562690000000  0.4838310000000 1.0
C      1  0.5184940000000  0.4188770000000  0.5165680000000 1.0
C      1  0.4203820000000  0.5251750000000  0.5171270000000 1.0
C      1  0.5607530000000  0.5562690000000  0.5161690000000 1.0
C      1  0.4242910000000  0.4858630000000  0.4897140000000 1.0
C      1  0.5506630000000  0.4405690000000  0.4883140000000 1.0
C      1  0.5258250000000  0.5733600000000  0.4886840000000 1.0
C      1  0.5757100000000  0.4858630000000  0.5102860000000 1.0
C      1  0.4493370000000  0.4405690000000  0.5116860000000 1.0
C      1  0.4741750000000  0.5733600000000  0.5113160000000 1.0
C      1  0.5757100000000  0.5141370000000  0.5102860000000 1.0
C      1  0.4493370000000  0.5594310000000  0.5116860000000 1.0
C      1  0.4741750000000  0.4266400000000  0.5113160000000 1.0
C      1  0.4242900000000  0.5141370000000  0.4897140000000 1.0
C      1  0.5506630000000  0.5594310000000  0.4883140000000 1.0
C      1  0.5258250000000  0.4266400000000  0.4886840000000 1.0
C      1  0.4959530000000  0.4310820000000  0.5319660000000 1.0
C      1  0.5607850000000  0.5303750000000  0.5308390000000 1.0
C      1  0.4419780000000  0.5388980000000  0.5331140000000 1.0
C      1  0.5040460000000  0.4310830000000  0.4680340000000 1.0
C      1  0.4392140000000  0.5303750000000  0.4691600000000 1.0
C      1  0.5580230000000  0.5388990000000  0.4668860000000 1.0
C      1  0.5040470000000  0.5689180000000  0.4680340000000 1.0
C      1  0.4392150000000  0.4696250000000  0.4691610000000 1.0
C      1  0.5580220000000  0.4611020000000  0.4668860000000 1.0
C      1  0.4959530000000  0.5689170000000  0.5319660000000 1.0
C      1  0.5607860000000  0.4696250000000  0.5308400000000 1.0
C      1  0.4419780000000  0.4611020000000  0.5331140000000 1.0
C      1  0.5293810000000  0.4850110000000  0.4858370000000 1.0
C      1  0.5027930000000  0.5302860000000  0.4842730000000 1.0
C      1  0.4759840000000  0.4844810000000  0.4828520000000 1.0
C      1  0.4706190000000  0.4850090000000  0.5141630000000 1.0
C      1  0.4972080000000  0.5302850000000  0.5157290000000 1.0
C      1  0.5240160000000  0.4844800000000  0.5171480000000 1.0
C      1  0.4706190000000  0.5149900000000  0.5141640000000 1.0
C      1  0.4972070000000  0.4697140000000  0.5157270000000 1.0
C      1  0.5240160000000  0.5155180000000  0.5171480000000 1.0
C      1  0.5293800000000  0.5149910000000  0.4858370000000 1.0
C      1  0.5027930000000  0.4697160000000  0.4842710000000 1.0
C      1  0.4759840000000  0.5155200000000  0.4828520000000 1.0
C      1  0.4683810000000  0.5183620000000  0.5469760000000 1.0
C      1  0.4999670000000  0.4634240000000  0.5474570000000 1.0
C      1  0.5316160000000  0.5182100000000  0.5479900000000 1.0
C      1  0.5316190000000  0.5183630000000  0.4530250000000 1.0
C      1  0.5000340000000  0.4634240000000  0.4525430000000 1.0
C      1  0.4683840000000  0.5182100000000  0.4520100000000 1.0
C      1  0.5316190000000  0.4816380000000  0.4530240000000 1.0
C      1  0.5000330000000  0.5365760000000  0.4525430000000 1.0
C      1  0.4683840000000  0.4817900000000  0.4520090000000 1.0
C      1  0.4683810000000  0.4816370000000  0.5469750000000 1.0
C      1  0.4999660000000  0.5365760000000  0.5474570000000 1.0
C      1  0.5316160000000  0.4817900000000  0.5479900000000 1.0
END
