TITL C-3985247-764-338 -4.76994638866263e-05 125000 -297.936511321127 0 0 60 (C3i) n - 1
REM
REM in /home/nfs/bkarasulu/CARBON/AIRSS/Generating-Clusters/TERSOFF/Higher-Symm/Only-C60
REM
REM
REM
REM
REM
REM ./C.cell (28575a23ae977d3b5fae324c64b13b57)
REM
REM compiler GCC version 9.2.1 20190827 (Red Hat 9.2.1-1)
REM options -cpp -mtune=generic -march=x86-64 -g -O0 -fpre-include=/usr/include/finclude/math-vector-fortran.h
REM seed -1812575739 728245783 523826005 292561315 1785894975 -871746182 -1831748165 464468590 905865414 179616757 -455676304 -1201687307 -38868254 1912280801 992762416 -2054027598 -1820349699 -305552990 -2115542955 -1762382605 -1943828060 -500508921 1818171999 -740884291 -1015665322 -1881293357 -613883549 -2113255151 125391178 -1643008256 -2071306158 -870220944 -1791677576
REM
CELL 1.54180   50.00000   50.00000   50.00000   90.00000   90.00000   90.00000
LATT -1
SFAC C  
C      1  0.4560840000000  0.4787840000000  0.5488490000000 1.0
C      1  0.5203500000000  0.5212070000000  0.5624620000000 1.0
C      1  0.5642690000000  0.4787940000000  0.5136100000000 1.0
C      1  0.5439160000000  0.5212160000000  0.4511510000000 1.0
C      1  0.4796500000000  0.4787930000000  0.4375380000000 1.0
C      1  0.4357310000000  0.5212060000000  0.4863900000000 1.0
C      1  0.5104040000000  0.4750690000000  0.5687740000000 1.0
C      1  0.5647660000000  0.5249290000000  0.5253830000000 1.0
C      1  0.5543550000000  0.4750750000000  0.4566060000000 1.0
C      1  0.4895960000000  0.5249310000000  0.4312260000000 1.0
C      1  0.4352340000000  0.4750710000000  0.4746170000000 1.0
C      1  0.4456450000000  0.5249250000000  0.5433940000000 1.0
C      1  0.5057310000000  0.4649420000000  0.5283690000000 1.0
C      1  0.5274440000000  0.5350640000000  0.5092200000000 1.0
C      1  0.5217100000000  0.4649290000000  0.4808610000000 1.0
C      1  0.4942690000000  0.5350580000000  0.4716310000000 1.0
C      1  0.4725560000000  0.4649360000000  0.4907800000000 1.0
C      1  0.4782900000000  0.5350710000000  0.5191390000000 1.0
C      1  0.4477690000000  0.5220370000000  0.4521020000000 1.0
C      1  0.4324020000000  0.4779680000000  0.5212860000000 1.0
C      1  0.4846370000000  0.5220290000000  0.5691830000000 1.0
C      1  0.5522310000000  0.4779630000000  0.5478980000000 1.0
C      1  0.5675980000000  0.5220320000000  0.4787140000000 1.0
C      1  0.5153630000000  0.4779710000000  0.4308170000000 1.0
C      1  0.4982100000000  0.5629160000000  0.5433460000000 1.0
C      1  0.5366460000000  0.4370930000000  0.5232290000000 1.0
C      1  0.5384460000000  0.5629210000000  0.4798790000000 1.0
C      1  0.5017900000000  0.4370840000000  0.4566540000000 1.0
C      1  0.4633540000000  0.5629070000000  0.4767710000000 1.0
C      1  0.4615540000000  0.4370790000000  0.5201210000000 1.0
C      1  0.4581080000000  0.5421430000000  0.4969260000000 1.0
C      1  0.4763930000000  0.4578390000000  0.5347550000000 1.0
C      1  0.5182880000000  0.5421450000000  0.5378090000000 1.0
C      1  0.5418920000000  0.4578570000000  0.5030740000000 1.0
C      1  0.5236070000000  0.5421610000000  0.4652450000000 1.0
C      1  0.4817120000000  0.4578550000000  0.4621910000000 1.0
C      1  0.4882310000000  0.4923370000000  0.5555450000000 1.0
C      1  0.5422260000000  0.5076570000000  0.5379610000000 1.0
C      1  0.5539940000000  0.4923410000000  0.4824150000000 1.0
C      1  0.5117690000000  0.5076630000000  0.4444550000000 1.0
C      1  0.4577740000000  0.4923430000000  0.4620390000000 1.0
C      1  0.4460060000000  0.5076590000000  0.5175850000000 1.0
C      1  0.5346770000000  0.4926320000000  0.5762210000000 1.0
C      1  0.5833540000000  0.5073730000000  0.5080790000000 1.0
C      1  0.5486720000000  0.4926320000000  0.4318490000000 1.0
C      1  0.4653230000000  0.5073680000000  0.4237790000000 1.0
C      1  0.4166460000000  0.4926270000000  0.4919210000000 1.0
C      1  0.4513280000000  0.5073680000000  0.5681510000000 1.0
C      1  0.5291200000000  0.4522710000000  0.4520410000000 1.0
C      1  0.4730200000000  0.5477450000000  0.4507910000000 1.0
C      1  0.4438920000000  0.4522650000000  0.4987580000000 1.0
C      1  0.4708800000000  0.5477290000000  0.5479590000000 1.0
C      1  0.5269800000000  0.4522550000000  0.5492090000000 1.0
C      1  0.5561080000000  0.5477350000000  0.5012420000000 1.0
C      1  0.5196930000000  0.4952060000000  0.5199120000000 1.0
C      1  0.5270970000000  0.5047950000000  0.4928970000000 1.0
C      1  0.5073960000000  0.4952000000000  0.4729880000000 1.0
C      1  0.4803070000000  0.5047940000000  0.4800880000000 1.0
C      1  0.4729030000000  0.4952050000000  0.5071030000000 1.0
C      1  0.4926040000000  0.5048000000000  0.5270120000000 1.0
END
