TITL C-3985253-1688-899 -2.88880909912864e-06 125000 -343.533077949289 0 0 60 (C1) n - 1
REM
REM in /home/nfs/bkarasulu/CARBON/AIRSS/Generating-Clusters/TERSOFF/Higher-Symm/Only-C60
REM
REM
REM
REM
REM
REM ./C.cell (28575a23ae977d3b5fae324c64b13b57)
REM
REM compiler GCC version 9.2.1 20190827 (Red Hat 9.2.1-1)
REM options -cpp -mtune=generic -march=x86-64 -g -O0 -fpre-include=/usr/include/finclude/math-vector-fortran.h
REM seed 1399562976 -903622678 -138822771 853064304 -1661679373 1560658455 -1451641007 142596030 -709032722 -1817711110 -273814202 -488082165 1561698689 1309215407 -649464720 518974856 -768155054 -862958013 -1917733264 -2083743477 744917385 -1688182202 -1220296406 1112528824 -1290314119 -205633923 -2005089529 373885789 1484126350 -1968378011 118153073 1633277836 -936654691
REM
CELL 1.54180   50.00000   50.00000   50.00000   90.00000   90.00000   90.00000
LATT -1
SFAC C  
C      1  0.5153680000000  0.5533320000000  0.5406580000000 1.0
C      1  0.5421120000000  0.5082690000000  0.5674220000000 1.0
C      1  0.5612370000000  0.5387090000000  0.5096800000000 1.0
C      1  0.5077460000000  0.4488860000000  0.5405610000000 1.0
C      1  0.5044410000000  0.5505140000000  0.4653720000000 1.0
C      1  0.5058970000000  0.4420100000000  0.4626630000000 1.0
C      1  0.4681780000000  0.4972250000000  0.5685240000000 1.0
C      1  0.4593570000000  0.4961040000000  0.4427400000000 1.0
C      1  0.5366080000000  0.4958210000000  0.4393910000000 1.0
C      1  0.4361970000000  0.4591450000000  0.4876290000000 1.0
C      1  0.4435660000000  0.5288870000000  0.5033170000000 1.0
C      1  0.5600620000000  0.4625450000000  0.4865690000000 1.0
C      1  0.5588690000000  0.4956180000000  0.5402250000000 1.0
C      1  0.4984020000000  0.5331190000000  0.5543970000000 1.0
C      1  0.5388970000000  0.5511780000000  0.4952160000000 1.0
C      1  0.4295190000000  0.4899440000000  0.5266930000000 1.0
C      1  0.5571060000000  0.5061410000000  0.4615450000000 1.0
C      1  0.4383000000000  0.5126120000000  0.4551510000000 1.0
C      1  0.5102010000000  0.4647140000000  0.5676790000000 1.0
C      1  0.4941650000000  0.4623110000000  0.4416340000000 1.0
C      1  0.4920240000000  0.5373670000000  0.4397970000000 1.0
C      1  0.4612190000000  0.4445620000000  0.5033810000000 1.0
C      1  0.5388530000000  0.4498280000000  0.5015450000000 1.0
C      1  0.4627800000000  0.5528590000000  0.4978760000000 1.0
C      1  0.5121450000000  0.4495110000000  0.4910500000000 1.0
C      1  0.5062680000000  0.4885960000000  0.4369520000000 1.0
C      1  0.4956160000000  0.4898370000000  0.5745400000000 1.0
C      1  0.4854940000000  0.5082180000000  0.4367890000000 1.0
C      1  0.4265450000000  0.4843780000000  0.4977920000000 1.0
C      1  0.5617000000000  0.5084450000000  0.5125310000000 1.0
C      1  0.5612650000000  0.4920080000000  0.4870240000000 1.0
C      1  0.4332610000000  0.5097540000000  0.4835800000000 1.0
C      1  0.4922300000000  0.5499910000000  0.4922070000000 1.0
C      1  0.4914250000000  0.4514630000000  0.5120280000000 1.0
C      1  0.5143320000000  0.5558560000000  0.5109450000000 1.0
C      1  0.5120320000000  0.5121180000000  0.5687620000000 1.0
C      1  0.4422330000000  0.5176720000000  0.5301560000000 1.0
C      1  0.5376450000000  0.4487870000000  0.5303940000000 1.0
C      1  0.5271410000000  0.5294270000000  0.4371350000000 1.0
C      1  0.5562420000000  0.4648410000000  0.5461960000000 1.0
C      1  0.5615770000000  0.5342480000000  0.4606820000000 1.0
C      1  0.4348170000000  0.4555440000000  0.4591440000000 1.0
C      1  0.4624640000000  0.5546670000000  0.5305480000000 1.0
C      1  0.5399280000000  0.4743080000000  0.5710620000000 1.0
C      1  0.5371790000000  0.5522210000000  0.4635020000000 1.0
C      1  0.4725370000000  0.4412870000000  0.4707430000000 1.0
C      1  0.4605160000000  0.4636640000000  0.4445830000000 1.0
C      1  0.4652830000000  0.5275220000000  0.5505930000000 1.0
C      1  0.4478180000000  0.4770920000000  0.5683780000000 1.0
C      1  0.5627340000000  0.4505000000000  0.4598080000000 1.0
C      1  0.4510470000000  0.5638090000000  0.4711670000000 1.0
C      1  0.5497090000000  0.5365360000000  0.5737800000000 1.0
C      1  0.5487420000000  0.4678020000000  0.4335460000000 1.0
C      1  0.4670170000000  0.5553580000000  0.4397280000000 1.0
C      1  0.4375550000000  0.5409440000000  0.4471100000000 1.0
C      1  0.4362770000000  0.4681380000000  0.5440280000000 1.0
C      1  0.5653810000000  0.5551640000000  0.5332890000000 1.0
C      1  0.5325830000000  0.4384090000000  0.4467310000000 1.0
C      1  0.5439360000000  0.5562230000000  0.5530800000000 1.0
C      1  0.4462230000000  0.4439600000000  0.5307500000000 1.0
END
