TITL C-3985258-5380-34 0.00114639712980223 125000 -325.124980227597 0 0 60 (C1) n - 1
REM
REM in /home/nfs/bkarasulu/CARBON/AIRSS/Generating-Clusters/TERSOFF/Higher-Symm/Only-C60
REM
REM
REM
REM
REM
REM ./C.cell (28575a23ae977d3b5fae324c64b13b57)
REM
REM compiler GCC version 9.2.1 20190827 (Red Hat 9.2.1-1)
REM options -cpp -mtune=generic -march=x86-64 -g -O0 -fpre-include=/usr/include/finclude/math-vector-fortran.h
REM seed 824179567 1055926926 624868296 -3555355 1352422480 -1184108293 2040308470 -767374904 998493070 1739400377 1130082404 -785096539 -1174310070 -1740045291 966262589 526563303 1522577947 1336848348 -374246252 273298268 98448369 1564848509 -66872537 1339996808 746897084 -1016026127 -346171587 -2103920191 1370037628 -447446131 -735622879 1055100816 -1231402061
REM
CELL 1.54180   50.00000   50.00000   50.00000   90.00000   90.00000   90.00000
LATT -1
SFAC C  
C      1  0.5779650000000  0.4892500000000  0.4915260000000 1.0
C      1  0.5551030000000  0.4889660000000  0.5568280000000 1.0
C      1  0.4903940000000  0.4885620000000  0.5789120000000 1.0
C      1  0.4328960000000  0.4885130000000  0.5417160000000 1.0
C      1  0.4254490000000  0.4887720000000  0.4749100000000 1.0
C      1  0.4737300000000  0.4893170000000  0.4260040000000 1.0
C      1  0.5415000000000  0.4892370000000  0.4336930000000 1.0
C      1  0.5333080000000  0.4783490000000  0.4792240000000 1.0
C      1  0.5370640000000  0.4780440000000  0.5140420000000 1.0
C      1  0.5121770000000  0.4741680000000  0.5365310000000 1.0
C      1  0.4809050000000  0.4701830000000  0.5309950000000 1.0
C      1  0.4650510000000  0.4687260000000  0.5042580000000 1.0
C      1  0.4745640000000  0.4708440000000  0.4746430000000 1.0
C      1  0.5038950000000  0.4750260000000  0.4624560000000 1.0
C      1  0.5063570000000  0.4511050000000  0.4404760000000 1.0
C      1  0.5502890000000  0.4517580000000  0.4686500000000 1.0
C      1  0.5564940000000  0.4529610000000  0.5206990000000 1.0
C      1  0.5194870000000  0.4506710000000  0.5578950000000 1.0
C      1  0.4670750000000  0.4502580000000  0.5519550000000 1.0
C      1  0.4405650000000  0.4492930000000  0.5069020000000 1.0
C      1  0.4567260000000  0.4506900000000  0.4572250000000 1.0
C      1  0.5422420000000  0.5116810000000  0.5436730000000 1.0
C      1  0.4926380000000  0.5115110000000  0.5608090000000 1.0
C      1  0.4484400000000  0.5116870000000  0.5325330000000 1.0
C      1  0.4425820000000  0.5119530000000  0.4805990000000 1.0
C      1  0.4796700000000  0.5121710000000  0.4434680000000 1.0
C      1  0.5319390000000  0.5122330000000  0.4493610000000 1.0
C      1  0.5599510000000  0.5121080000000  0.4938110000000 1.0
C      1  0.5062490000000  0.5251290000000  0.4424850000000 1.0
C      1  0.5496390000000  0.5249890000000  0.4693560000000 1.0
C      1  0.5550080000000  0.5246430000000  0.5202310000000 1.0
C      1  0.5188440000000  0.5243820000000  0.5562980000000 1.0
C      1  0.4682610000000  0.5243700000000  0.5503600000000 1.0
C      1  0.4416110000000  0.5247460000000  0.5070720000000 1.0
C      1  0.4579570000000  0.5248180000000  0.4589200000000 1.0
C      1  0.4404590000000  0.4606440000000  0.5372990000000 1.0
C      1  0.4338940000000  0.4608970000000  0.4773400000000 1.0
C      1  0.4764460000000  0.4613550000000  0.4338070000000 1.0
C      1  0.5371830000000  0.4612410000000  0.4409350000000 1.0
C      1  0.5693480000000  0.4616360000000  0.4928240000000 1.0
C      1  0.5495430000000  0.4612000000000  0.5505780000000 1.0
C      1  0.4914740000000  0.4607610000000  0.5704640000000 1.0
C      1  0.5316300000000  0.4288210000000  0.4802850000000 1.0
C      1  0.5352810000000  0.4303970000000  0.5132690000000 1.0
C      1  0.5117500000000  0.4257820000000  0.5394610000000 1.0
C      1  0.4760800000000  0.4241110000000  0.5378940000000 1.0
C      1  0.4620290000000  0.4225610000000  0.5045010000000 1.0
C      1  0.4686680000000  0.4245530000000  0.4688820000000 1.0
C      1  0.5030320000000  0.4261140000000  0.4597980000000 1.0
C      1  0.4998950000000  0.4919270000000  0.5006050000000 1.0
C      1  0.4943760000000  0.6426950000000  0.5028840000000 1.0
C      1  0.4959630000000  0.3725910000000  0.5016200000000 1.0
C      1  0.5079290000000  0.6180310000000  0.4970280000000 1.0
C      1  0.5047930000000  0.4558640000000  0.4996050000000 1.0
C      1  0.4952710000000  0.4258510000000  0.5009430000000 1.0
C      1  0.5096010000000  0.3989810000000  0.4998400000000 1.0
C      1  0.5106410000000  0.5675340000000  0.4962500000000 1.0
C      1  0.4971170000000  0.5920510000000  0.5017020000000 1.0
C      1  0.4995040000000  0.5418700000000  0.5009340000000 1.0
C      1  0.5126550000000  0.5171040000000  0.4957900000000 1.0
END
