TITL C-3985254-1270-450 2.65316258127379e-05 125000 -319.407607088301 0 0 60 (C2) n - 1
REM
REM in /home/nfs/bkarasulu/CARBON/AIRSS/Generating-Clusters/TERSOFF/Higher-Symm/Only-C60
REM
REM
REM
REM
REM
REM ./C.cell (28575a23ae977d3b5fae324c64b13b57)
REM
REM compiler GCC version 9.2.1 20190827 (Red Hat 9.2.1-1)
REM options -cpp -mtune=generic -march=x86-64 -g -O0 -fpre-include=/usr/include/finclude/math-vector-fortran.h
REM seed -1984566942 -1490598764 -824934789 -2029006876 -1723304039 -1672952776 -1570882507 -1084056112 -512277309 -1730013004 1925297728 -1466847879 -152548515 813973683 1155000589 -766809093 -1335712517 1111656810 506432895 158110224 356720586 1949625792 -52555530 -1308954767 543703375 485280955 -709460235 1554168663 -1787607081 805925370 1419722348 985148172 -43951353
REM
CELL 1.54180   50.00000   50.00000   50.00000   90.00000   90.00000   90.00000
LATT -1
SFAC C  
C      1  0.4494630000000  0.5159570000000  0.5591740000000 1.0
C      1  0.4481710000000  0.4861670000000  0.5616460000000 1.0
C      1  0.4710230000000  0.4652870000000  0.5662520000000 1.0
C      1  0.4985750000000  0.4556300000000  0.5552200000000 1.0
C      1  0.5267130000000  0.4646230000000  0.5658810000000 1.0
C      1  0.5505380000000  0.4840430000000  0.5591750000000 1.0
C      1  0.5518300000000  0.5138320000000  0.5616450000000 1.0
C      1  0.5289760000000  0.5347120000000  0.5662530000000 1.0
C      1  0.5014260000000  0.5443720000000  0.5552180000000 1.0
C      1  0.4732860000000  0.5353760000000  0.5658810000000 1.0
C      1  0.4268820000000  0.5259380000000  0.4566410000000 1.0
C      1  0.4231630000000  0.4776670000000  0.4598860000000 1.0
C      1  0.4588650000000  0.4405290000000  0.4636540000000 1.0
C      1  0.4987390000000  0.4355620000000  0.4514520000000 1.0
C      1  0.5386610000000  0.4415000000000  0.4630530000000 1.0
C      1  0.5731190000000  0.4740620000000  0.4566430000000 1.0
C      1  0.5768360000000  0.5223340000000  0.4598850000000 1.0
C      1  0.5411340000000  0.5594700000000  0.4636550000000 1.0
C      1  0.5012600000000  0.5644380000000  0.4514510000000 1.0
C      1  0.4613380000000  0.5585000000000  0.4630520000000 1.0
C      1  0.5324840000000  0.4572140000000  0.5122450000000 1.0
C      1  0.5568580000000  0.4821600000000  0.5063340000000 1.0
C      1  0.5590960000000  0.5162700000000  0.5087910000000 1.0
C      1  0.5359260000000  0.5417150000000  0.5124480000000 1.0
C      1  0.5018380000000  0.5491140000000  0.5025590000000 1.0
C      1  0.4675180000000  0.5427870000000  0.5122440000000 1.0
C      1  0.4431430000000  0.5178400000000  0.5063320000000 1.0
C      1  0.4409040000000  0.4837300000000  0.5087910000000 1.0
C      1  0.4640730000000  0.4582840000000  0.5124470000000 1.0
C      1  0.4981630000000  0.4508850000000  0.5025600000000 1.0
C      1  0.5796070000000  0.5252410000000  0.4885120000000 1.0
C      1  0.5466980000000  0.5612150000000  0.4917430000000 1.0
C      1  0.5021220000000  0.5702210000000  0.4801540000000 1.0
C      1  0.4572600000000  0.5620010000000  0.4911480000000 1.0
C      1  0.4233140000000  0.5279860000000  0.4855080000000 1.0
C      1  0.4203930000000  0.4747590000000  0.4885120000000 1.0
C      1  0.4533020000000  0.4387850000000  0.4917410000000 1.0
C      1  0.4978790000000  0.4297800000000  0.4801540000000 1.0
C      1  0.5427400000000  0.4380000000000  0.4911490000000 1.0
C      1  0.5766870000000  0.4720140000000  0.4855090000000 1.0
C      1  0.5017660000000  0.5351140000000  0.4395460000000 1.0
C      1  0.4722790000000  0.5340590000000  0.4505660000000 1.0
C      1  0.4510150000000  0.5145570000000  0.4435970000000 1.0
C      1  0.4480710000000  0.4851870000000  0.4465800000000 1.0
C      1  0.4685480000000  0.4647160000000  0.4500900000000 1.0
C      1  0.4982340000000  0.4648870000000  0.4395460000000 1.0
C      1  0.5277200000000  0.4659410000000  0.4505670000000 1.0
C      1  0.5489850000000  0.4854420000000  0.4435990000000 1.0
C      1  0.5519280000000  0.5148130000000  0.4465800000000 1.0
C      1  0.5314500000000  0.5352830000000  0.4500920000000 1.0
C      1  0.4624680000000  0.5516840000000  0.5413330000000 1.0
C      1  0.4329670000000  0.5224390000000  0.5353290000000 1.0
C      1  0.4306320000000  0.4805850000000  0.5378520000000 1.0
C      1  0.4589270000000  0.4498330000000  0.5418180000000 1.0
C      1  0.4979710000000  0.4389110000000  0.5309840000000 1.0
C      1  0.5375320000000  0.4483170000000  0.5413340000000 1.0
C      1  0.5670340000000  0.4775610000000  0.5353320000000 1.0
C      1  0.5693690000000  0.5194150000000  0.5378520000000 1.0
C      1  0.5410740000000  0.5501670000000  0.5418190000000 1.0
C      1  0.5020300000000  0.5610890000000  0.5309860000000 1.0
END
