TITL C-3985254-1270-3 -9.15205061559656e-07 125000 -362.326564125572 0 0 60 (D5) n - 1
REM
REM in /home/nfs/bkarasulu/CARBON/AIRSS/Generating-Clusters/TERSOFF/Higher-Symm/Only-C60
REM
REM
REM
REM
REM
REM ./C.cell (28575a23ae977d3b5fae324c64b13b57)
REM
REM compiler GCC version 9.2.1 20190827 (Red Hat 9.2.1-1)
REM options -cpp -mtune=generic -march=x86-64 -g -O0 -fpre-include=/usr/include/finclude/math-vector-fortran.h
REM seed 420236403 -1616989615 -1115514414 -1802405841 -690095768 479940315 1250286971 711309709 -791877049 188265697 1523691478 -1836230147 -1454630799 -1249420389 -1442744413 1709923370 779857447 1369331685 -1476580299 720467014 -461238264 507769649 1333126153 932006298 1518107566 864996173 -1497042705 1133228445 -2054887150 1374035110 1525406846 -1877190293 -2125555805
REM
CELL 1.54180   50.00000   50.00000   50.00000   90.00000   90.00000   90.00000
LATT -1
SFAC C  
C      1  0.4693760000000  0.5143480000000  0.5837410000000 1.0
C      1  0.5701780000000  0.5143510000000  0.5550060000000 1.0
C      1  0.5739980000000  0.5143580000000  0.4502510000000 1.0
C      1  0.4755560000000  0.5143550000000  0.4142490000000 1.0
C      1  0.4108920000000  0.5143530000000  0.4967530000000 1.0
C      1  0.4693810000000  0.4856530000000  0.4162440000000 1.0
C      1  0.5701860000000  0.4856580000000  0.4449940000000 1.0
C      1  0.5740030000000  0.4856560000000  0.5497480000000 1.0
C      1  0.4755520000000  0.4856530000000  0.5857490000000 1.0
C      1  0.4108870000000  0.4856540000000  0.5032420000000 1.0
C      1  0.5148970000000  0.5617690000000  0.5214620000000 1.0
C      1  0.5250090000000  0.5617640000000  0.4924580000000 1.0
C      1  0.5005570000000  0.5617610000000  0.4738870000000 1.0
C      1  0.4753350000000  0.5617610000000  0.4914020000000 1.0
C      1  0.4841940000000  0.5617610000000  0.5208040000000 1.0
C      1  0.5148930000000  0.4382350000000  0.4785410000000 1.0
C      1  0.5250060000000  0.4382330000000  0.5075270000000 1.0
C      1  0.5005530000000  0.4382340000000  0.5261180000000 1.0
C      1  0.4753290000000  0.4382390000000  0.5085990000000 1.0
C      1  0.4842060000000  0.4382280000000  0.4791940000000 1.0
C      1  0.5140700000000  0.4802150000000  0.4792030000000 1.0
C      1  0.4845690000000  0.4802210000000  0.4801880000000 1.0
C      1  0.4763970000000  0.4802200000000  0.5085540000000 1.0
C      1  0.5008430000000  0.4802150000000  0.5250900000000 1.0
C      1  0.5241220000000  0.4802130000000  0.5069490000000 1.0
C      1  0.5140690000000  0.5197870000000  0.5208010000000 1.0
C      1  0.4845710000000  0.5197800000000  0.5198120000000 1.0
C      1  0.4763940000000  0.5197810000000  0.4914530000000 1.0
C      1  0.5008430000000  0.5197800000000  0.4749090000000 1.0
C      1  0.5241280000000  0.5197830000000  0.4930570000000 1.0
C      1  0.4518040000000  0.4629380000000  0.5463290000000 1.0
C      1  0.5291710000000  0.4629340000000  0.5601530000000 1.0
C      1  0.5662260000000  0.4629270000000  0.4908460000000 1.0
C      1  0.5117560000000  0.4629410000000  0.4341870000000 1.0
C      1  0.4410420000000  0.4629410000000  0.4684770000000 1.0
C      1  0.4518000000000  0.5370560000000  0.4536750000000 1.0
C      1  0.5291690000000  0.5370550000000  0.4398500000000 1.0
C      1  0.5662210000000  0.5370610000000  0.5091550000000 1.0
C      1  0.5117620000000  0.5370610000000  0.5658110000000 1.0
C      1  0.4410460000000  0.5370600000000  0.5315260000000 1.0
C      1  0.5525970000000  0.4669190000000  0.5424830000000 1.0
C      1  0.5566590000000  0.4669220000000  0.4631050000000 1.0
C      1  0.4824190000000  0.4669190000000  0.4347120000000 1.0
C      1  0.4324780000000  0.4669220000000  0.4965400000000 1.0
C      1  0.4758480000000  0.4669220000000  0.5631460000000 1.0
C      1  0.5525890000000  0.5330800000000  0.4575200000000 1.0
C      1  0.5566540000000  0.5330810000000  0.5368920000000 1.0
C      1  0.4824260000000  0.5330770000000  0.5652820000000 1.0
C      1  0.4324860000000  0.5330780000000  0.5034600000000 1.0
C      1  0.4758490000000  0.5330780000000  0.4368620000000 1.0
C      1  0.5466240000000  0.5391530000000  0.4866630000000 1.0
C      1  0.5017220000000  0.5391510000000  0.4515410000000 1.0
C      1  0.4544380000000  0.5391520000000  0.4833900000000 1.0
C      1  0.4701210000000  0.5391560000000  0.5382040000000 1.0
C      1  0.5270960000000  0.5391550000000  0.5402230000000 1.0
C      1  0.5466290000000  0.4608420000000  0.5133390000000 1.0
C      1  0.5017210000000  0.4608490000000  0.5484650000000 1.0
C      1  0.4544380000000  0.4608520000000  0.5166090000000 1.0
C      1  0.4701180000000  0.4608500000000  0.4617970000000 1.0
C      1  0.5271000000000  0.4608490000000  0.4597710000000 1.0
END
