TITL C-3985244-725-645 0.010202599048912 125000 -311.232494820356 0 0 60 (C6) n - 1
REM
REM in /home/nfs/bkarasulu/CARBON/AIRSS/Generating-Clusters/TERSOFF/Higher-Symm/Only-C60
REM
REM
REM
REM
REM
REM ./C.cell (28575a23ae977d3b5fae324c64b13b57)
REM
REM compiler GCC version 9.2.1 20190827 (Red Hat 9.2.1-1)
REM options -cpp -mtune=generic -march=x86-64 -g -O0 -fpre-include=/usr/include/finclude/math-vector-fortran.h
REM seed 1724656560 -140979553 -946063794 -132353672 -1135597065 -756064810 -761248985 671999439 1689730217 768588069 -409416281 -1916608484 -1250110975 -2070868938 1130076586 415161557 -1047114799 396878254 1615853190 424677255 -310934048 1867963186 1269716636 -805157472 790453774 -2019424196 1766819903 1767844721 -417284054 -618962015 -530663455 86791681 357017323
REM
CELL 1.54180   50.00000   50.00000   50.00000   90.00000   90.00000   90.00000
LATT -1
SFAC C  
C      1  0.5208450000000  0.4850760000000  0.5611940000000 1.0
C      1  0.5207880000000  0.4395850000000  0.5177340000000 1.0
C      1  0.5208370000000  0.4544570000000  0.4564770000000 1.0
C      1  0.5208450000000  0.5149240000000  0.4388060000000 1.0
C      1  0.5207880000000  0.5604150000000  0.4822660000000 1.0
C      1  0.5208370000000  0.5455430000000  0.5435230000000 1.0
C      1  0.5629150000000  0.5269650000000  0.4863780000000 1.0
C      1  0.5628940000000  0.5252750000000  0.5165590000000 1.0
C      1  0.5629020000000  0.4982980000000  0.5301490000000 1.0
C      1  0.5629150000000  0.4730350000000  0.5136220000000 1.0
C      1  0.5628940000000  0.4747250000000  0.4834410000000 1.0
C      1  0.5629020000000  0.5017020000000  0.4698510000000 1.0
C      1  0.5211470000000  0.5212860000000  0.5191220000000 1.0
C      1  0.5211650000000  0.4940710000000  0.5279860000000 1.0
C      1  0.5211790000000  0.4727880000000  0.5088640000000 1.0
C      1  0.5211470000000  0.4787140000000  0.4808780000000 1.0
C      1  0.5211690000000  0.5059280000000  0.4720110000000 1.0
C      1  0.5211790000000  0.5272120000000  0.4911360000000 1.0
C      1  0.4836460000000  0.4636830000000  0.4922950000000 1.0
C      1  0.4836860000000  0.4885130000000  0.4647210000000 1.0
C      1  0.4836010000000  0.5248190000000  0.4724030000000 1.0
C      1  0.4836460000000  0.5363170000000  0.5077050000000 1.0
C      1  0.4836850000000  0.5114870000000  0.5352790000000 1.0
C      1  0.4836030000000  0.4751820000000  0.5275970000000 1.0
C      1  0.5508590000000  0.4520720000000  0.4678020000000 1.0
C      1  0.5508970000000  0.5039230000000  0.4423870000000 1.0
C      1  0.5508600000000  0.5518170000000  0.4746000000000 1.0
C      1  0.5508590000000  0.5479280000000  0.5321980000000 1.0
C      1  0.5509000000000  0.4960770000000  0.5576160000000 1.0
C      1  0.5508600000000  0.4481830000000  0.5254000000000 1.0
C      1  0.5025240000000  0.4621750000000  0.5478020000000 1.0
C      1  0.5024930000000  0.4396390000000  0.4912300000000 1.0
C      1  0.5024860000000  0.4774010000000  0.4433590000000 1.0
C      1  0.5025240000000  0.5378250000000  0.4521980000000 1.0
C      1  0.5024930000000  0.5603610000000  0.5087700000000 1.0
C      1  0.5024860000000  0.5225990000000  0.5566410000000 1.0
C      1  0.4331160000000  0.4774390000000  0.4795650000000 1.0
C      1  0.4331110000000  0.5064140000000  0.4702520000000 1.0
C      1  0.4331390000000  0.5289770000000  0.4906840000000 1.0
C      1  0.4331160000000  0.5225610000000  0.5204350000000 1.0
C      1  0.4331110000000  0.4935860000000  0.5297480000000 1.0
C      1  0.4331390000000  0.4710230000000  0.5093160000000 1.0
C      1  0.4684850000000  0.5585040000000  0.5480820000000 1.0
C      1  0.4684920000000  0.4875830000000  0.5746780000000 1.0
C      1  0.4684800000000  0.4291640000000  0.5265760000000 1.0
C      1  0.4684850000000  0.4414960000000  0.4519180000000 1.0
C      1  0.4684920000000  0.5124170000000  0.4253220000000 1.0
C      1  0.4684800000000  0.5708360000000  0.4734240000000 1.0
C      1  0.4972990000000  0.5762130000000  0.4681450000000 1.0
C      1  0.4972850000000  0.5656970000000  0.5500890000000 1.0
C      1  0.4972930000000  0.4894690000000  0.5819030000000 1.0
C      1  0.4972990000000  0.4237870000000  0.5318550000000 1.0
C      1  0.4972850000000  0.4343030000000  0.4499110000000 1.0
C      1  0.4972930000000  0.5105310000000  0.4180970000000 1.0
C      1  0.4591700000000  0.5347610000000  0.5314100000000 1.0
C      1  0.4592150000000  0.4901990000000  0.5457650000000 1.0
C      1  0.4591870000000  0.4554480000000  0.5143990000000 1.0
C      1  0.4591700000000  0.4652390000000  0.4685900000000 1.0
C      1  0.4592150000000  0.5098010000000  0.4542350000000 1.0
C      1  0.4591870000000  0.5445520000000  0.4856010000000 1.0
END
