TITL C-3985247-764-727 -0.000260242757971099 125000 -273.43251584665 0 0 60 (T23) n - 1
REM
REM in /home/nfs/bkarasulu/CARBON/AIRSS/Generating-Clusters/TERSOFF/Higher-Symm/Only-C60
REM
REM
REM
REM
REM
REM ./C.cell (28575a23ae977d3b5fae324c64b13b57)
REM
REM compiler GCC version 9.2.1 20190827 (Red Hat 9.2.1-1)
REM options -cpp -mtune=generic -march=x86-64 -g -O0 -fpre-include=/usr/include/finclude/math-vector-fortran.h
REM seed -1355045999 -2030570832 382389091 1663402082 -2012318309 -324803156 -1107614825 -949034940 1235209056 1327140025 -159157374 1375251746 -1822174922 1758027935 -664608078 -109564891 1402560145 793682962 -1065377548 -1484525392 -2008236839 -913725764 -150058847 1857591822 -74150244 1092618231 1390864481 1321284848 251630082 93817605 -1978657216 1955179697 1237570155
REM
CELL 1.54180   50.00000   50.00000   50.00000   90.00000   90.00000   90.00000
LATT -1
SFAC C  
C      1  0.5215340000000  0.5006040000000  0.5287840000000 1.0
C      1  0.5287840000000  0.5215340000000  0.5006040000000 1.0
C      1  0.5006040000000  0.5287840000000  0.5215340000000 1.0
C      1  0.4784660000000  0.4993960000000  0.5287840000000 1.0
C      1  0.4784660000000  0.5006040000000  0.4712160000000 1.0
C      1  0.5215340000000  0.4993960000000  0.4712160000000 1.0
C      1  0.4712160000000  0.4784660000000  0.5006040000000 1.0
C      1  0.4712160000000  0.5215340000000  0.4993960000000 1.0
C      1  0.5287840000000  0.4784660000000  0.4993960000000 1.0
C      1  0.4993960000000  0.4712160000000  0.5215340000000 1.0
C      1  0.4993960000000  0.5287840000000  0.4784660000000 1.0
C      1  0.5006040000000  0.4712160000000  0.4784660000000 1.0
C      1  0.4637450000000  0.5713220000000  0.4857910000000 1.0
C      1  0.4857910000000  0.4637450000000  0.5713220000000 1.0
C      1  0.5713220000000  0.4857910000000  0.4637450000000 1.0
C      1  0.5362550000000  0.4286780000000  0.4857910000000 1.0
C      1  0.5362550000000  0.5713220000000  0.5142090000000 1.0
C      1  0.4637450000000  0.4286780000000  0.5142090000000 1.0
C      1  0.5142090000000  0.5362550000000  0.5713220000000 1.0
C      1  0.5142090000000  0.4637450000000  0.4286780000000 1.0
C      1  0.4857910000000  0.5362550000000  0.4286780000000 1.0
C      1  0.4286780000000  0.5142090000000  0.4637450000000 1.0
C      1  0.4286780000000  0.4857910000000  0.5362550000000 1.0
C      1  0.5713220000000  0.5142090000000  0.5362550000000 1.0
C      1  0.5051650000000  0.4857130000000  0.5730500000000 1.0
C      1  0.5730500000000  0.5051650000000  0.4857130000000 1.0
C      1  0.4857130000000  0.5730500000000  0.5051650000000 1.0
C      1  0.4948350000000  0.5142870000000  0.5730500000000 1.0
C      1  0.4948350000000  0.4857130000000  0.4269500000000 1.0
C      1  0.5051650000000  0.5142870000000  0.4269500000000 1.0
C      1  0.4269500000000  0.4948350000000  0.4857130000000 1.0
C      1  0.4269500000000  0.5051650000000  0.5142870000000 1.0
C      1  0.5730500000000  0.4948350000000  0.5142870000000 1.0
C      1  0.5142870000000  0.4269500000000  0.5051650000000 1.0
C      1  0.5142870000000  0.5730500000000  0.4948350000000 1.0
C      1  0.4857130000000  0.4269500000000  0.4948350000000 1.0
C      1  0.4477970000000  0.4711300000000  0.4769780000000 1.0
C      1  0.4769780000000  0.4477970000000  0.4711300000000 1.0
C      1  0.4711300000000  0.4769780000000  0.4477970000000 1.0
C      1  0.5522030000000  0.5288700000000  0.4769780000000 1.0
C      1  0.5522030000000  0.4711300000000  0.5230220000000 1.0
C      1  0.4477970000000  0.5288700000000  0.5230220000000 1.0
C      1  0.5230220000000  0.5522030000000  0.4711300000000 1.0
C      1  0.5230220000000  0.4477970000000  0.5288700000000 1.0
C      1  0.4769780000000  0.5522030000000  0.5288700000000 1.0
C      1  0.5288700000000  0.5230220000000  0.4477970000000 1.0
C      1  0.5288700000000  0.4769780000000  0.5522030000000 1.0
C      1  0.4711300000000  0.5230220000000  0.5522030000000 1.0
C      1  0.4844630000000  0.5460770000000  0.4556970000000 1.0
C      1  0.4556970000000  0.4844630000000  0.5460770000000 1.0
C      1  0.5460770000000  0.4556970000000  0.4844630000000 1.0
C      1  0.5155370000000  0.4539230000000  0.4556970000000 1.0
C      1  0.5155370000000  0.5460770000000  0.5443030000000 1.0
C      1  0.4844630000000  0.4539230000000  0.5443030000000 1.0
C      1  0.5443030000000  0.5155370000000  0.5460770000000 1.0
C      1  0.5443030000000  0.4844630000000  0.4539230000000 1.0
C      1  0.4556970000000  0.5155370000000  0.4539230000000 1.0
C      1  0.4539230000000  0.5443030000000  0.4844630000000 1.0
C      1  0.4539230000000  0.4556970000000  0.5155370000000 1.0
C      1  0.5460770000000  0.5443030000000  0.5155370000000 1.0
END
