TITL C-3985254-1270-1548 4.11325259616774e-08 125000 -292.411032137978 0 0 60 (Td) n - 1
REM
REM in /home/nfs/bkarasulu/CARBON/AIRSS/Generating-Clusters/TERSOFF/Higher-Symm/Only-C60
REM
REM
REM
REM
REM
REM ./C.cell (28575a23ae977d3b5fae324c64b13b57)
REM
REM compiler GCC version 9.2.1 20190827 (Red Hat 9.2.1-1)
REM options -cpp -mtune=generic -march=x86-64 -g -O0 -fpre-include=/usr/include/finclude/math-vector-fortran.h
REM seed -1886792619 -1715169367 -1856229076 -1551150382 -2147338573 651288012 -2109563881 1514612497 -581724381 -191348639 -700777489 -1061479663 1096782467 1383301231 1425194712 -569310033 2011161630 1726634076 -1663542053 655451222 1947082236 408235596 -121487092 -1372115906 247632941 2035964930 -1416505308 318932018 -228174477 -290921848 -1182823111 -637359001 1538668369
REM
CELL 1.54180   50.00000   50.00000   50.00000   90.00000   90.00000   90.00000
LATT -1
SFAC C  
C      1  0.4351160000000  0.5217050000000  0.5424790000000 1.0
C      1  0.5217050000000  0.5424790000000  0.4351160000000 1.0
C      1  0.5424790000000  0.4351160000000  0.5217050000000 1.0
C      1  0.5648840000000  0.5217050000000  0.4575210000000 1.0
C      1  0.5648840000000  0.4782950000000  0.5424790000000 1.0
C      1  0.4351160000000  0.4782950000000  0.4575210000000 1.0
C      1  0.4782950000000  0.5424790000000  0.5648840000000 1.0
C      1  0.4782950000000  0.4575210000000  0.4351160000000 1.0
C      1  0.5217050000000  0.4575210000000  0.5648840000000 1.0
C      1  0.4575210000000  0.4351160000000  0.4782950000000 1.0
C      1  0.4575210000000  0.5648840000000  0.5217050000000 1.0
C      1  0.5424790000000  0.5648840000000  0.4782950000000 1.0
C      1  0.5424790000000  0.5217050000000  0.4351160000000 1.0
C      1  0.4351160000000  0.5424790000000  0.5217050000000 1.0
C      1  0.5217050000000  0.4351160000000  0.5424790000000 1.0
C      1  0.4575210000000  0.5217050000000  0.5648840000000 1.0
C      1  0.5424790000000  0.4782950000000  0.5648840000000 1.0
C      1  0.4575210000000  0.4782950000000  0.4351160000000 1.0
C      1  0.5648840000000  0.5424790000000  0.4782950000000 1.0
C      1  0.4351160000000  0.4575210000000  0.4782950000000 1.0
C      1  0.5648840000000  0.4575210000000  0.5217050000000 1.0
C      1  0.4782950000000  0.4351160000000  0.4575210000000 1.0
C      1  0.5217050000000  0.5648840000000  0.4575210000000 1.0
C      1  0.4782950000000  0.5648840000000  0.5424790000000 1.0
C      1  0.5323400000000  0.5559420000000  0.5085700000000 1.0
C      1  0.5559420000000  0.5085700000000  0.5323400000000 1.0
C      1  0.5085700000000  0.5323400000000  0.5559420000000 1.0
C      1  0.4676600000000  0.5559420000000  0.4914300000000 1.0
C      1  0.4676600000000  0.4440580000000  0.5085700000000 1.0
C      1  0.5323400000000  0.4440580000000  0.4914300000000 1.0
C      1  0.4440580000000  0.5085700000000  0.4676600000000 1.0
C      1  0.4440580000000  0.4914300000000  0.5323400000000 1.0
C      1  0.5559420000000  0.4914300000000  0.4676600000000 1.0
C      1  0.4914300000000  0.5323400000000  0.4440580000000 1.0
C      1  0.4914300000000  0.4676600000000  0.5559420000000 1.0
C      1  0.5085700000000  0.4676600000000  0.4440580000000 1.0
C      1  0.5085700000000  0.5559420000000  0.5323400000000 1.0
C      1  0.5323400000000  0.5085700000000  0.5559420000000 1.0
C      1  0.5559420000000  0.5323400000000  0.5085700000000 1.0
C      1  0.4914300000000  0.5559420000000  0.4676600000000 1.0
C      1  0.5085700000000  0.4440580000000  0.4676600000000 1.0
C      1  0.4914300000000  0.4440580000000  0.5323400000000 1.0
C      1  0.4676600000000  0.5085700000000  0.4440580000000 1.0
C      1  0.5323400000000  0.4914300000000  0.4440580000000 1.0
C      1  0.4676600000000  0.4914300000000  0.5559420000000 1.0
C      1  0.4440580000000  0.5323400000000  0.4914300000000 1.0
C      1  0.5559420000000  0.4676600000000  0.4914300000000 1.0
C      1  0.4440580000000  0.4676600000000  0.5085700000000 1.0
C      1  0.5111730000000  0.5111730000000  0.4632050000000 1.0
C      1  0.5111730000000  0.4632050000000  0.5111730000000 1.0
C      1  0.4632050000000  0.5111730000000  0.5111730000000 1.0
C      1  0.4888270000000  0.4632050000000  0.4888270000000 1.0
C      1  0.4888270000000  0.5367950000000  0.5111730000000 1.0
C      1  0.5111730000000  0.5367950000000  0.4888270000000 1.0
C      1  0.5367950000000  0.5111730000000  0.4888270000000 1.0
C      1  0.5367950000000  0.4888270000000  0.5111730000000 1.0
C      1  0.4632050000000  0.4888270000000  0.4888270000000 1.0
C      1  0.4888270000000  0.5111730000000  0.5367950000000 1.0
C      1  0.4888270000000  0.4888270000000  0.4632050000000 1.0
C      1  0.5111730000000  0.4888270000000  0.5367950000000 1.0
END
