TITL C-3985257-5396-277 -0.0032929164410709 125000 -284.660059835687 0 0 60 (Cs) n - 1
REM
REM in /home/nfs/bkarasulu/CARBON/AIRSS/Generating-Clusters/TERSOFF/Higher-Symm/Only-C60
REM
REM
REM
REM
REM
REM ./C.cell (28575a23ae977d3b5fae324c64b13b57)
REM
REM compiler GCC version 9.2.1 20190827 (Red Hat 9.2.1-1)
REM options -cpp -mtune=generic -march=x86-64 -g -O0 -fpre-include=/usr/include/finclude/math-vector-fortran.h
REM seed 730833566 1763994166 -1560864500 596251950 -879697189 -1953342925 1793986528 1607223001 72242448 835696388 26581384 -826033810 1922930851 -2032226939 -170072764 -1085016327 -552830962 7642564 -1709459091 2087211031 1467822869 -804479538 -1603718341 -1750482677 -1577457240 -1850011405 1996464100 1923801166 1656482425 1820048857 1504349763 -102665975 -1421671829
REM
CELL 1.54180   50.00000   50.00000   50.00000   90.00000   90.00000   90.00000
LATT -1
SFAC C  
C      1  0.5261630000000  0.5286570000000  0.5712330000000 1.0
C      1  0.5251890000000  0.5773430000000  0.4955930000000 1.0
C      1  0.5259530000000  0.5182430000000  0.4265500000000 1.0
C      1  0.5273520000000  0.4370740000000  0.4625840000000 1.0
C      1  0.5275420000000  0.4438650000000  0.5484630000000 1.0
C      1  0.5261630000000  0.4713430000000  0.5712330000000 1.0
C      1  0.5251890000000  0.4226570000000  0.4955930000000 1.0
C      1  0.5259530000000  0.4817570000000  0.4265500000000 1.0
C      1  0.5273520000000  0.5629260000000  0.4625840000000 1.0
C      1  0.5275420000000  0.5561350000000  0.5484630000000 1.0
C      1  0.4767970000000  0.5521680000000  0.4550180000000 1.0
C      1  0.4759820000000  0.4728460000000  0.4332010000000 1.0
C      1  0.4755390000000  0.4272620000000  0.5051040000000 1.0
C      1  0.4761340000000  0.4830310000000  0.5696190000000 1.0
C      1  0.4768230000000  0.5594330000000  0.5360170000000 1.0
C      1  0.4767970000000  0.4478320000000  0.4550180000000 1.0
C      1  0.4759820000000  0.5271540000000  0.4332010000000 1.0
C      1  0.4755390000000  0.5727380000000  0.5051040000000 1.0
C      1  0.4761340000000  0.5169690000000  0.5696190000000 1.0
C      1  0.4768230000000  0.4405670000000  0.5360170000000 1.0
C      1  0.4506780000000  0.4588120000000  0.4714450000000 1.0
C      1  0.4507280000000  0.4594950000000  0.5305280000000 1.0
C      1  0.4508540000000  0.5165300000000  0.5494310000000 1.0
C      1  0.4509980000000  0.5526460000000  0.4997030000000 1.0
C      1  0.4510870000000  0.5152260000000  0.4501730000000 1.0
C      1  0.4506780000000  0.5411880000000  0.4714450000000 1.0
C      1  0.4507280000000  0.5405050000000  0.5305280000000 1.0
C      1  0.4508540000000  0.4834700000000  0.5494310000000 1.0
C      1  0.4509980000000  0.4473540000000  0.4997030000000 1.0
C      1  0.4510870000000  0.4847740000000  0.4501730000000 1.0
C      1  0.5496480000000  0.4599800000000  0.5269360000000 1.0
C      1  0.5456970000000  0.5153540000000  0.5482570000000 1.0
C      1  0.5447330000000  0.5516590000000  0.4991000000000 1.0
C      1  0.5485940000000  0.5157850000000  0.4505180000000 1.0
C      1  0.5511530000000  0.4612090000000  0.4705900000000 1.0
C      1  0.5496480000000  0.5400200000000  0.5269360000000 1.0
C      1  0.5456970000000  0.4846460000000  0.5482570000000 1.0
C      1  0.5447330000000  0.4483410000000  0.4991000000000 1.0
C      1  0.5485940000000  0.4842150000000  0.4505180000000 1.0
C      1  0.5511530000000  0.5387910000000  0.4705900000000 1.0
C      1  0.5035180000000  0.5393750000000  0.4721310000000 1.0
C      1  0.5022280000000  0.4840640000000  0.4513290000000 1.0
C      1  0.5021400000000  0.4474590000000  0.5010160000000 1.0
C      1  0.5031020000000  0.4846390000000  0.5493160000000 1.0
C      1  0.5039220000000  0.5396300000000  0.5289630000000 1.0
C      1  0.5035180000000  0.4606250000000  0.4721310000000 1.0
C      1  0.5022280000000  0.5159360000000  0.4513290000000 1.0
C      1  0.5021400000000  0.5525410000000  0.5010160000000 1.0
C      1  0.5031020000000  0.5153610000000  0.5493150000000 1.0
C      1  0.5039220000000  0.4603700000000  0.5289630000000 1.0
C      1  0.4955220000000  0.5155710000000  0.4099100000000 1.0
C      1  0.4961480000000  0.4219030000000  0.4576770000000 1.0
C      1  0.4960610000000  0.4354100000000  0.5617500000000 1.0
C      1  0.4950650000000  0.5405570000000  0.5817720000000 1.0
C      1  0.4946490000000  0.5909780000000  0.4860750000000 1.0
C      1  0.4955220000000  0.4844290000000  0.4099100000000 1.0
C      1  0.4961480000000  0.5780970000000  0.4576770000000 1.0
C      1  0.4960610000000  0.5645900000000  0.5617500000000 1.0
C      1  0.4950650000000  0.4594430000000  0.5817720000000 1.0
C      1  0.4946490000000  0.4090220000000  0.4860750000000 1.0
END
