TITL C-3985250-725-1289 1.06547415803917e-07 125000 -336.928238578065 0 0 60 (C3) n - 1
REM
REM in /home/nfs/bkarasulu/CARBON/AIRSS/Generating-Clusters/TERSOFF/Higher-Symm/Only-C60
REM
REM
REM
REM
REM
REM ./C.cell (28575a23ae977d3b5fae324c64b13b57)
REM
REM compiler GCC version 9.2.1 20190827 (Red Hat 9.2.1-1)
REM options -cpp -mtune=generic -march=x86-64 -g -O0 -fpre-include=/usr/include/finclude/math-vector-fortran.h
REM seed 1842584664 -969081328 -89405478 -1026016312 452084 1759306576 -1836110851 -818519257 -1376589379 1773238082 -1483112544 -45351718 -710016036 -286630663 735885988 -666736103 2123820278 -938242167 -926821890 2075612379 -462771689 -822293492 -1843023893 1658808400 -129020372 -961491941 -1421816955 1114684231 -23554596 -2018734944 1046536310 -404266050 1862132497
REM
CELL 1.54180   50.00000   50.00000   50.00000   90.00000   90.00000   90.00000
LATT -1
SFAC C  
C      1  0.5328250000000  0.4974260000000  0.5012070000000 1.0
C      1  0.4846330000000  0.4974250000000  0.4709700000000 1.0
C      1  0.4825420000000  0.4974260000000  0.5278240000000 1.0
C      1  0.4671750000000  0.4974260000000  0.5012070000000 1.0
C      1  0.5153670000000  0.4974250000000  0.4709700000000 1.0
C      1  0.5174580000000  0.4974260000000  0.5278240000000 1.0
C      1  0.4838860000000  0.4309960000000  0.5264990000000 1.0
C      1  0.5310070000000  0.4309960000000  0.5007040000000 1.0
C      1  0.4851070000000  0.4309940000000  0.4727930000000 1.0
C      1  0.5161140000000  0.4309960000000  0.5264990000000 1.0
C      1  0.4689930000000  0.4309960000000  0.5007040000000 1.0
C      1  0.5148930000000  0.4309940000000  0.4727930000000 1.0
C      1  0.5140190000000  0.4734500000000  0.4239440000000 1.0
C      1  0.4271220000000  0.4734530000000  0.5258890000000 1.0
C      1  0.5588580000000  0.4734510000000  0.5501700000000 1.0
C      1  0.4859810000000  0.4734500000000  0.4239440000000 1.0
C      1  0.5728780000000  0.4734530000000  0.5258890000000 1.0
C      1  0.4411420000000  0.4734510000000  0.5501700000000 1.0
C      1  0.4466050000000  0.4951630000000  0.4402000000000 1.0
C      1  0.4749090000000  0.4951630000000  0.5761420000000 1.0
C      1  0.5784880000000  0.4951640000000  0.4836590000000 1.0
C      1  0.5533950000000  0.4951630000000  0.4402000000000 1.0
C      1  0.5250910000000  0.4951630000000  0.5761420000000 1.0
C      1  0.4215120000000  0.4951640000000  0.4836590000000 1.0
C      1  0.4850510000000  0.5225480000000  0.5714210000000 1.0
C      1  0.5693270000000  0.5225490000000  0.4772360000000 1.0
C      1  0.4456230000000  0.5225480000000  0.4513430000000 1.0
C      1  0.5149490000000  0.5225480000000  0.5714210000000 1.0
C      1  0.4306730000000  0.5225490000000  0.4772360000000 1.0
C      1  0.5543770000000  0.5225480000000  0.4513430000000 1.0
C      1  0.5365240000000  0.4521350000000  0.4610860000000 1.0
C      1  0.4480340000000  0.4521360000000  0.4878280000000 1.0
C      1  0.5154400000000  0.4521350000000  0.5510870000000 1.0
C      1  0.4634760000000  0.4521350000000  0.4610860000000 1.0
C      1  0.5519660000000  0.4521360000000  0.4878280000000 1.0
C      1  0.4845600000000  0.4521350000000  0.5510870000000 1.0
C      1  0.4530920000000  0.5252140000000  0.4974910000000 1.0
C      1  0.5212820000000  0.5252140000000  0.5418780000000 1.0
C      1  0.5256270000000  0.5252130000000  0.4606300000000 1.0
C      1  0.5469080000000  0.5252140000000  0.4974910000000 1.0
C      1  0.4787180000000  0.5252140000000  0.5418780000000 1.0
C      1  0.4743730000000  0.5252130000000  0.4606300000000 1.0
C      1  0.5300350000000  0.4776870000000  0.5520070000000 1.0
C      1  0.5300220000000  0.4776870000000  0.4479860000000 1.0
C      1  0.4399420000000  0.4776890000000  0.5000090000000 1.0
C      1  0.4699650000000  0.4776870000000  0.5520070000000 1.0
C      1  0.4699780000000  0.4776870000000  0.4479860000000 1.0
C      1  0.5600580000000  0.4776890000000  0.5000090000000 1.0
C      1  0.5310400000000  0.5509600000000  0.5001680000000 1.0
C      1  0.4846250000000  0.5509600000000  0.4730340000000 1.0
C      1  0.4843340000000  0.5509600000000  0.5267980000000 1.0
C      1  0.4689600000000  0.5509600000000  0.5001680000000 1.0
C      1  0.5153750000000  0.5509600000000  0.4730340000000 1.0
C      1  0.5156660000000  0.5509600000000  0.5267980000000 1.0
C      1  0.4753220000000  0.5744200000000  0.5430960000000 1.0
C      1  0.5496600000000  0.5744200000000  0.4998240000000 1.0
C      1  0.4750170000000  0.5744190000000  0.4570800000000 1.0
C      1  0.5246780000000  0.5744200000000  0.5430960000000 1.0
C      1  0.4503400000000  0.5744200000000  0.4998240000000 1.0
C      1  0.5249830000000  0.5744190000000  0.4570800000000 1.0
END
