TITL C-3985253-1688-343 -0.000232276253024106 125000 -325.472741971747 0 0 60 (C1) n - 1
REM
REM in /home/nfs/bkarasulu/CARBON/AIRSS/Generating-Clusters/TERSOFF/Higher-Symm/Only-C60
REM
REM
REM
REM
REM
REM ./C.cell (28575a23ae977d3b5fae324c64b13b57)
REM
REM compiler GCC version 9.2.1 20190827 (Red Hat 9.2.1-1)
REM options -cpp -mtune=generic -march=x86-64 -g -O0 -fpre-include=/usr/include/finclude/math-vector-fortran.h
REM seed 780682683 -677398416 1687894159 -1847665395 -514026881 -2053992734 -861338973 1533731351 -1389208369 -166434601 2121278048 1122003847 1006121559 938407604 -526327179 -1271113549 -1247084402 1673786677 1782271636 659151109 320610793 -165003590 751594376 169444056 1241770178 -1991243652 -920092675 -278150598 -36499111 1883066507 -24992188 -1604314659 -190526098
REM
CELL 1.54180   50.00000   50.00000   50.00000   90.00000   90.00000   90.00000
LATT -1
SFAC C  
C      1  0.4842920000000  0.4865550000000  0.5249180000000 1.0
C      1  0.5298890000000  0.4859360000000  0.5015420000000 1.0
C      1  0.4867840000000  0.4862240000000  0.4739010000000 1.0
C      1  0.5541650000000  0.4455850000000  0.5060600000000 1.0
C      1  0.4781170000000  0.4458290000000  0.4501260000000 1.0
C      1  0.4678690000000  0.4455720000000  0.5439360000000 1.0
C      1  0.5161760000000  0.5638310000000  0.5277430000000 1.0
C      1  0.5169410000000  0.5651740000000  0.4711490000000 1.0
C      1  0.4666730000000  0.5650750000000  0.5003170000000 1.0
C      1  0.4586040000000  0.5498050000000  0.4734100000000 1.0
C      1  0.4971390000000  0.5496290000000  0.5492070000000 1.0
C      1  0.5440160000000  0.5491620000000  0.4780720000000 1.0
C      1  0.4477220000000  0.4492180000000  0.4925170000000 1.0
C      1  0.5197640000000  0.4490550000000  0.5491110000000 1.0
C      1  0.5326860000000  0.4491070000000  0.4585200000000 1.0
C      1  0.4285370000000  0.5058690000000  0.4817090000000 1.0
C      1  0.5200610000000  0.5059530000000  0.5713520000000 1.0
C      1  0.5519770000000  0.5059400000000  0.4473980000000 1.0
C      1  0.5165770000000  0.4840720000000  0.4757100000000 1.0
C      1  0.4710290000000  0.4844130000000  0.4982680000000 1.0
C      1  0.5132880000000  0.4843530000000  0.5264440000000 1.0
C      1  0.4434810000000  0.5318340000000  0.5231450000000 1.0
C      1  0.5476470000000  0.5312920000000  0.5365740000000 1.0
C      1  0.5086970000000  0.5320220000000  0.4401760000000 1.0
C      1  0.4381330000000  0.5311980000000  0.4933490000000 1.0
C      1  0.5250850000000  0.5311270000000  0.5568100000000 1.0
C      1  0.5369950000000  0.5311230000000  0.4504530000000 1.0
C      1  0.4837280000000  0.5265610000000  0.5123570000000 1.0
C      1  0.5164910000000  0.5255290000000  0.5048910000000 1.0
C      1  0.4940570000000  0.5271290000000  0.4795660000000 1.0
C      1  0.4399180000000  0.4819490000000  0.4958960000000 1.0
C      1  0.5266980000000  0.4818370000000  0.5546230000000 1.0
C      1  0.5341690000000  0.4818690000000  0.4498410000000 1.0
C      1  0.5362790000000  0.5472630000000  0.5118330000000 1.0
C      1  0.4920360000000  0.5506880000000  0.4601700000000 1.0
C      1  0.4698490000000  0.5496600000000  0.5266900000000 1.0
C      1  0.4948450000000  0.5061430000000  0.5877540000000 1.0
C      1  0.5790000000000  0.5059080000000  0.4607280000000 1.0
C      1  0.4268670000000  0.5059570000000  0.4516390000000 1.0
C      1  0.4821720000000  0.5245440000000  0.5636160000000 1.0
C      1  0.5642970000000  0.5242250000000  0.4838370000000 1.0
C      1  0.4539740000000  0.5245950000000  0.4530570000000 1.0
C      1  0.5794730000000  0.4850820000000  0.4845900000000 1.0
C      1  0.4476060000000  0.4854360000000  0.4393290000000 1.0
C      1  0.4739270000000  0.4853390000000  0.5761640000000 1.0
C      1  0.4953830000000  0.4390950000000  0.5358240000000 1.0
C      1  0.5333830000000  0.4390860000000  0.4862640000000 1.0
C      1  0.4712700000000  0.4390690000000  0.4779310000000 1.0
C      1  0.5125640000000  0.4819200000000  0.4271010000000 1.0
C      1  0.4306910000000  0.4816560000000  0.5258650000000 1.0
C      1  0.5572130000000  0.4815130000000  0.5473740000000 1.0
C      1  0.5051080000000  0.4530250000000  0.4406510000000 1.0
C      1  0.4460680000000  0.4527750000000  0.5254270000000 1.0
C      1  0.5490180000000  0.4527420000000  0.5342150000000 1.0
C      1  0.4691220000000  0.4990970000000  0.5478070000000 1.0
C      1  0.5572930000000  0.4985400000000  0.5030260000000 1.0
C      1  0.4745010000000  0.4991880000000  0.4495430000000 1.0
C      1  0.5624840000000  0.5055810000000  0.5307790000000 1.0
C      1  0.4958320000000  0.5061980000000  0.4310930000000 1.0
C      1  0.4423420000000  0.5058480000000  0.5386060000000 1.0
END
