TITL C-3985250-725-273 0.00684022510725773 125000 -310.510185098928 0 0 60 (Cs) n - 1
REM
REM in /home/nfs/bkarasulu/CARBON/AIRSS/Generating-Clusters/TERSOFF/Higher-Symm/Only-C60
REM
REM
REM
REM
REM
REM ./C.cell (28575a23ae977d3b5fae324c64b13b57)
REM
REM compiler GCC version 9.2.1 20190827 (Red Hat 9.2.1-1)
REM options -cpp -mtune=generic -march=x86-64 -g -O0 -fpre-include=/usr/include/finclude/math-vector-fortran.h
REM seed -286680687 819827556 -1140325311 -189466677 1089913628 13114849 -251690221 -687495910 -29055044 1343241647 -1719711339 113110887 -1857022889 1135452800 1536151310 -855044420 1583865547 1590475468 2080806611 2116957159 -680174637 -1986024352 -244736731 -1863790578 -50568765 -1168632356 2080756849 1003383900 -554702607 1275319775 1475256968 1789908817 -1700468269
REM
CELL 1.54180   50.00000   50.00000   50.00000   90.00000   90.00000   90.00000
LATT -1
SFAC C  
C      1  0.4737450000000  0.4357750000000  0.5183880000000 1.0
C      1  0.4737610000000  0.4357720000000  0.4816000000000 1.0
C      1  0.4829070000000  0.4694900000000  0.5611800000000 1.0
C      1  0.4829030000000  0.4695670000000  0.4388000000000 1.0
C      1  0.4814990000000  0.5517270000000  0.4516070000000 1.0
C      1  0.4815310000000  0.5518050000000  0.5484260000000 1.0
C      1  0.4957200000000  0.5234970000000  0.4838990000000 1.0
C      1  0.4956900000000  0.5235310000000  0.5162030000000 1.0
C      1  0.5557320000000  0.4826380000000  0.5513250000000 1.0
C      1  0.5557800000000  0.4825390000000  0.4486410000000 1.0
C      1  0.5441760000000  0.5122400000000  0.4415490000000 1.0
C      1  0.5441430000000  0.5122770000000  0.5584690000000 1.0
C      1  0.4858380000000  0.4391560000000  0.5511410000000 1.0
C      1  0.4858640000000  0.4392120000000  0.4488710000000 1.0
C      1  0.5649080000000  0.4898150000000  0.4818310000000 1.0
C      1  0.5649040000000  0.4898110000000  0.5181860000000 1.0
C      1  0.4806760000000  0.4806430000000  0.4682730000000 1.0
C      1  0.4806520000000  0.4806390000000  0.5317500000000 1.0
C      1  0.5206540000000  0.5048640000000  0.4843870000000 1.0
C      1  0.5206270000000  0.5048900000000  0.5156230000000 1.0
C      1  0.4784140000000  0.5880610000000  0.4856180000000 1.0
C      1  0.4784020000000  0.5880180000000  0.5143220000000 1.0
C      1  0.5480000000000  0.5433830000000  0.4838930000000 1.0
C      1  0.5479910000000  0.5433840000000  0.5161200000000 1.0
C      1  0.5167070000000  0.5083750000000  0.5695430000000 1.0
C      1  0.5167570000000  0.5083850000000  0.4304380000000 1.0
C      1  0.5196620000000  0.4379530000000  0.5457690000000 1.0
C      1  0.5196190000000  0.4379760000000  0.4541410000000 1.0
C      1  0.4616830000000  0.4874490000000  0.5726300000000 1.0
C      1  0.4616910000000  0.4874320000000  0.4273090000000 1.0
C      1  0.5102750000000  0.4791440000000  0.5698630000000 1.0
C      1  0.5103030000000  0.4791410000000  0.4300890000000 1.0
C      1  0.5418240000000  0.4671420000000  0.5148510000000 1.0
C      1  0.5418370000000  0.4671390000000  0.4851510000000 1.0
C      1  0.5457950000000  0.5161690000000  0.5278350000000 1.0
C      1  0.5458120000000  0.5161580000000  0.4721760000000 1.0
C      1  0.5074370000000  0.4433880000000  0.5154360000000 1.0
C      1  0.5074780000000  0.4433420000000  0.4845100000000 1.0
C      1  0.4949670000000  0.5295370000000  0.4309890000000 1.0
C      1  0.4949540000000  0.5295160000000  0.5690740000000 1.0
C      1  0.5219970000000  0.5634900000000  0.4839250000000 1.0
C      1  0.5219730000000  0.5634660000000  0.5159880000000 1.0
C      1  0.4952180000000  0.5697730000000  0.4703460000000 1.0
C      1  0.4951970000000  0.5697030000000  0.5296360000000 1.0
C      1  0.4492900000000  0.5413430000000  0.5438710000000 1.0
C      1  0.4492850000000  0.5413170000000  0.4562410000000 1.0
C      1  0.5120040000000  0.4753470000000  0.5241750000000 1.0
C      1  0.5120250000000  0.4753180000000  0.4758280000000 1.0
C      1  0.5329550000000  0.4621530000000  0.4399190000000 1.0
C      1  0.5329610000000  0.4621500000000  0.5600300000000 1.0
C      1  0.4736490000000  0.5099700000000  0.5306030000000 1.0
C      1  0.4736810000000  0.5099660000000  0.4694560000000 1.0
C      1  0.4657460000000  0.5158970000000  0.5631950000000 1.0
C      1  0.4657150000000  0.5158510000000  0.4367930000000 1.0
C      1  0.4593240000000  0.4654840000000  0.5163860000000 1.0
C      1  0.4593430000000  0.4654780000000  0.4835990000000 1.0
C      1  0.4452300000000  0.5187730000000  0.5172520000000 1.0
C      1  0.4452490000000  0.5187240000000  0.4828360000000 1.0
C      1  0.4339130000000  0.4873870000000  0.4838690000000 1.0
C      1  0.4339280000000  0.4874260000000  0.5161450000000 1.0
END
