TITL C-3985244-725-402 0.00129723831450505 125000 -331.100844058703 0 0 60 (C1) n - 1
REM
REM in /home/nfs/bkarasulu/CARBON/AIRSS/Generating-Clusters/TERSOFF/Higher-Symm/Only-C60
REM
REM
REM
REM
REM
REM ./C.cell (28575a23ae977d3b5fae324c64b13b57)
REM
REM compiler GCC version 9.2.1 20190827 (Red Hat 9.2.1-1)
REM options -cpp -mtune=generic -march=x86-64 -g -O0 -fpre-include=/usr/include/finclude/math-vector-fortran.h
REM seed 1579698810 1918572646 1821774042 1158920600 1814419269 1679519983 1167948242 -345620960 -2021748601 -1354889064 -2070902002 -210473179 -675164892 890391921 -1071980691 1892069006 -1624324165 935195363 481512032 -93205575 -124436535 -1203147644 -981070127 -525791671 -1074041068 1006181485 -1567755427 -32770095 894298676 1346191403 -1383764096 -295716170 1656554200
REM
CELL 1.54180   50.00000   50.00000   50.00000   90.00000   90.00000   90.00000
LATT -1
SFAC C  
C      1  0.5693060000000  0.4815360000000  0.4857900000000 1.0
C      1  0.4929650000000  0.5277340000000  0.5651710000000 1.0
C      1  0.5488700000000  0.4845610000000  0.4621650000000 1.0
C      1  0.4845490000000  0.5703090000000  0.4609100000000 1.0
C      1  0.5489890000000  0.5144790000000  0.4553750000000 1.0
C      1  0.4657340000000  0.4920780000000  0.4313460000000 1.0
C      1  0.5318840000000  0.5244470000000  0.4342030000000 1.0
C      1  0.4582820000000  0.5568470000000  0.4578150000000 1.0
C      1  0.4816710000000  0.5601150000000  0.5236820000000 1.0
C      1  0.4997340000000  0.4852770000000  0.4767450000000 1.0
C      1  0.4188010000000  0.4916140000000  0.4929430000000 1.0
C      1  0.4752270000000  0.4624140000000  0.5537410000000 1.0
C      1  0.4981290000000  0.4763820000000  0.4290090000000 1.0
C      1  0.5269730000000  0.5413590000000  0.5278870000000 1.0
C      1  0.4641200000000  0.5445400000000  0.5057710000000 1.0
C      1  0.5558660000000  0.5432890000000  0.5224890000000 1.0
C      1  0.5027380000000  0.5292990000000  0.4418830000000 1.0
C      1  0.5048890000000  0.5498150000000  0.4656400000000 1.0
C      1  0.5316700000000  0.4867720000000  0.5148880000000 1.0
C      1  0.4630890000000  0.5155850000000  0.5114470000000 1.0
C      1  0.4950640000000  0.4779900000000  0.5682430000000 1.0
C      1  0.5616440000000  0.4554750000000  0.5295460000000 1.0
C      1  0.5244660000000  0.4616370000000  0.4489150000000 1.0
C      1  0.4802320000000  0.4906520000000  0.5026660000000 1.0
C      1  0.5649810000000  0.5085870000000  0.5006630000000 1.0
C      1  0.4940240000000  0.5263430000000  0.4827610000000 1.0
C      1  0.5207120000000  0.5286820000000  0.5549400000000 1.0
C      1  0.5109940000000  0.4367620000000  0.5266750000000 1.0
C      1  0.5668180000000  0.4549930000000  0.5001580000000 1.0
C      1  0.5273780000000  0.4812080000000  0.4858990000000 1.0
C      1  0.4322050000000  0.5145980000000  0.4774730000000 1.0
C      1  0.5362040000000  0.5033530000000  0.5532020000000 1.0
C      1  0.4482160000000  0.5110300000000  0.5377130000000 1.0
C      1  0.5326950000000  0.4532840000000  0.5401330000000 1.0
C      1  0.5229030000000  0.4769920000000  0.5576950000000 1.0
C      1  0.4813990000000  0.4624660000000  0.4668180000000 1.0
C      1  0.5071340000000  0.5216240000000  0.5115050000000 1.0
C      1  0.4680370000000  0.5268020000000  0.4403580000000 1.0
C      1  0.4463990000000  0.5556330000000  0.4856440000000 1.0
C      1  0.5572580000000  0.5019950000000  0.5301840000000 1.0
C      1  0.4565390000000  0.4780070000000  0.4593290000000 1.0
C      1  0.4860610000000  0.4373830000000  0.5427070000000 1.0
C      1  0.5037340000000  0.4942680000000  0.5237930000000 1.0
C      1  0.4560170000000  0.4769160000000  0.5359680000000 1.0
C      1  0.5112450000000  0.5639540000000  0.5159110000000 1.0
C      1  0.4600360000000  0.4652570000000  0.5063740000000 1.0
C      1  0.4871050000000  0.5033530000000  0.5796200000000 1.0
C      1  0.5269350000000  0.5531590000000  0.4864860000000 1.0
C      1  0.4718860000000  0.5368740000000  0.5466370000000 1.0
C      1  0.5536910000000  0.4347600000000  0.4845820000000 1.0
C      1  0.4636900000000  0.5115290000000  0.4696850000000 1.0
C      1  0.5508410000000  0.5307670000000  0.4819590000000 1.0
C      1  0.4217950000000  0.5398020000000  0.4913330000000 1.0
C      1  0.4390890000000  0.4715450000000  0.4855100000000 1.0
C      1  0.5053870000000  0.4367930000000  0.4968990000000 1.0
C      1  0.4781710000000  0.4439510000000  0.4896190000000 1.0
C      1  0.5745790000000  0.4796090000000  0.5402800000000 1.0
C      1  0.5026460000000  0.4987770000000  0.4499940000000 1.0
C      1  0.5266640000000  0.4392200000000  0.4751370000000 1.0
C      1  0.4216400000000  0.5155190000000  0.5180870000000 1.0
END
