TITL C-3985253-1688-636 1.51584207513072e-06 125000 -348.606733119582 0 0 60 (D6d) n - 1
REM
REM in /home/nfs/bkarasulu/CARBON/AIRSS/Generating-Clusters/TERSOFF/Higher-Symm/Only-C60
REM
REM
REM
REM
REM
REM ./C.cell (28575a23ae977d3b5fae324c64b13b57)
REM
REM compiler GCC version 9.2.1 20190827 (Red Hat 9.2.1-1)
REM options -cpp -mtune=generic -march=x86-64 -g -O0 -fpre-include=/usr/include/finclude/math-vector-fortran.h
REM seed 2136857051 901066323 -305789552 -1704368168 -971656651 -1430695612 1519466264 -1571052433 735645282 -1295452003 963835677 -450718243 -1739158887 -2053646882 -1065710013 -1174079632 1212731724 1793812802 2018765820 -1824974846 -191158881 -1020402092 -2018127806 1007310830 -1258450612 -898950760 -1269642488 -406074469 -1742849496 -681267608 -1617231623 1666126722 -2099934278
REM
CELL 1.54180   50.00000   50.00000   50.00000   90.00000   90.00000   90.00000
LATT -1
SFAC C  
C      1  0.4550630000000  0.5147780000000  0.4433420000000 1.0
C      1  0.4327550000000  0.4852220000000  0.4734010000000 1.0
C      1  0.4284640000000  0.5147780000000  0.5105870000000 1.0
C      1  0.4433420000000  0.4852220000000  0.5449370000000 1.0
C      1  0.4734010000000  0.5147780000000  0.5672450000000 1.0
C      1  0.5105870000000  0.4852220000000  0.5715360000000 1.0
C      1  0.5449370000000  0.5147780000000  0.5566580000000 1.0
C      1  0.5672450000000  0.4852220000000  0.5265990000000 1.0
C      1  0.5715360000000  0.5147780000000  0.4894130000000 1.0
C      1  0.5566580000000  0.4852220000000  0.4550630000000 1.0
C      1  0.5265990000000  0.5147780000000  0.4327550000000 1.0
C      1  0.4894130000000  0.4852220000000  0.4284640000000 1.0
C      1  0.4689290000000  0.4387070000000  0.5112520000000 1.0
C      1  0.4787180000000  0.5612930000000  0.5252800000000 1.0
C      1  0.4942090000000  0.4387070000000  0.5325340000000 1.0
C      1  0.5112520000000  0.5612930000000  0.5310710000000 1.0
C      1  0.5252800000000  0.4387070000000  0.5212820000000 1.0
C      1  0.5325340000000  0.5612930000000  0.5057910000000 1.0
C      1  0.5310710000000  0.4387070000000  0.4887480000000 1.0
C      1  0.5212820000000  0.5612930000000  0.4747200000000 1.0
C      1  0.5057910000000  0.4387070000000  0.4674660000000 1.0
C      1  0.4887480000000  0.5612930000000  0.4689290000000 1.0
C      1  0.4747200000000  0.4387070000000  0.4787180000000 1.0
C      1  0.4674660000000  0.5612930000000  0.4942090000000 1.0
C      1  0.5376720000000  0.4852220000000  0.5617270000000 1.0
C      1  0.5634890000000  0.5147780000000  0.5346210000000 1.0
C      1  0.5722930000000  0.4852220000000  0.4982380000000 1.0
C      1  0.5617270000000  0.5147780000000  0.4623280000000 1.0
C      1  0.5346210000000  0.4852220000000  0.4365110000000 1.0
C      1  0.4982380000000  0.5147780000000  0.4277070000000 1.0
C      1  0.4623280000000  0.4852220000000  0.4382730000000 1.0
C      1  0.4365110000000  0.5147780000000  0.4653790000000 1.0
C      1  0.4277070000000  0.4852220000000  0.5017620000000 1.0
C      1  0.4382730000000  0.5147780000000  0.5376720000000 1.0
C      1  0.4653790000000  0.4852220000000  0.5634890000000 1.0
C      1  0.5017620000000  0.5147780000000  0.5722930000000 1.0
C      1  0.4465050000000  0.4661230000000  0.5193720000000 1.0
C      1  0.4633580000000  0.5338770000000  0.5435240000000 1.0
C      1  0.4900300000000  0.4661230000000  0.5560140000000 1.0
C      1  0.5193720000000  0.5338770000000  0.5534950000000 1.0
C      1  0.5435240000000  0.4661230000000  0.5366420000000 1.0
C      1  0.5560140000000  0.5338770000000  0.5099700000000 1.0
C      1  0.5534950000000  0.4661230000000  0.4806280000000 1.0
C      1  0.5366420000000  0.5338770000000  0.4564760000000 1.0
C      1  0.5099700000000  0.4661230000000  0.4439860000000 1.0
C      1  0.4806280000000  0.5338770000000  0.4465050000000 1.0
C      1  0.4564760000000  0.4661230000000  0.4633580000000 1.0
C      1  0.4439860000000  0.5338770000000  0.4900300000000 1.0
C      1  0.4949610000000  0.4803870000000  0.5283090000000 1.0
C      1  0.5097910000000  0.5196130000000  0.5270360000000 1.0
C      1  0.5219970000000  0.4803870000000  0.5185180000000 1.0
C      1  0.5283090000000  0.5196130000000  0.5050390000000 1.0
C      1  0.5270360000000  0.4803870000000  0.4902090000000 1.0
C      1  0.5185180000000  0.5196130000000  0.4780030000000 1.0
C      1  0.5050390000000  0.4803870000000  0.4716910000000 1.0
C      1  0.4902090000000  0.5196130000000  0.4729640000000 1.0
C      1  0.4780030000000  0.4803870000000  0.4814820000000 1.0
C      1  0.4716910000000  0.5196130000000  0.4949610000000 1.0
C      1  0.4729640000000  0.4803870000000  0.5097910000000 1.0
C      1  0.4814820000000  0.5196130000000  0.5219970000000 1.0
END
