TITL C-3985252-168-356 0.000394002291089194 125000 -325.625579024625 0 0 60 (C1) n - 1
REM
REM in /home/nfs/bkarasulu/CARBON/AIRSS/Generating-Clusters/TERSOFF/Higher-Symm/Only-C60
REM
REM
REM
REM
REM
REM ./C.cell (28575a23ae977d3b5fae324c64b13b57)
REM
REM compiler GCC version 9.2.1 20190827 (Red Hat 9.2.1-1)
REM options -cpp -mtune=generic -march=x86-64 -g -O0 -fpre-include=/usr/include/finclude/math-vector-fortran.h
REM seed 1553038662 -2037006535 -1444784068 126910282 1971858444 1832656193 1615772683 1100798645 849483345 -452526146 -365368128 511075147 -484918788 510322472 -533446488 -1115044391 -864316411 -1023809667 -100201176 703350739 -322135842 -1986582009 103450247 382089823 -611042891 -945655037 -1127513912 -2026573943 -105432744 820250214 1913847664 1684547454 -521170335
REM
CELL 1.54180   50.00000   50.00000   50.00000   90.00000   90.00000   90.00000
LATT -1
SFAC C  
C      1  0.4652510000000  0.4690330000000  0.5511410000000 1.0
C      1  0.4647170000000  0.5397060000000  0.5445180000000 1.0
C      1  0.4646710000000  0.5548010000000  0.4762940000000 1.0
C      1  0.4647190000000  0.4939390000000  0.4396260000000 1.0
C      1  0.4644550000000  0.4409400000000  0.4861080000000 1.0
C      1  0.5456440000000  0.4474280000000  0.4746860000000 1.0
C      1  0.5442980000000  0.4642690000000  0.5427900000000 1.0
C      1  0.5487570000000  0.5324080000000  0.5478840000000 1.0
C      1  0.5452400000000  0.5609540000000  0.4880160000000 1.0
C      1  0.5475650000000  0.4999660000000  0.4464970000000 1.0
C      1  0.5193040000000  0.5632870000000  0.5073970000000 1.0
C      1  0.5227970000000  0.5245220000000  0.4445320000000 1.0
C      1  0.5188750000000  0.4532940000000  0.4566940000000 1.0
C      1  0.5215770000000  0.4454940000000  0.5297590000000 1.0
C      1  0.5225550000000  0.5128500000000  0.5599730000000 1.0
C      1  0.5177480000000  0.4918260000000  0.4779480000000 1.0
C      1  0.5071570000000  0.4744290000000  0.4995050000000 1.0
C      1  0.5142240000000  0.4924790000000  0.5223670000000 1.0
C      1  0.5253860000000  0.5195560000000  0.5142970000000 1.0
C      1  0.5135450000000  0.5205440000000  0.4870170000000 1.0
C      1  0.4602060000000  0.4376990000000  0.5148290000000 1.0
C      1  0.4608960000000  0.4953450000000  0.5629860000000 1.0
C      1  0.4587480000000  0.5595510000000  0.5238620000000 1.0
C      1  0.4609440000000  0.5404740000000  0.4512540000000 1.0
C      1  0.4589410000000  0.4656170000000  0.4448720000000 1.0
C      1  0.5579160000000  0.5223780000000  0.5083470000000 1.0
C      1  0.5647520000000  0.5125770000000  0.4749160000000 1.0
C      1  0.5468120000000  0.4883410000000  0.4867410000000 1.0
C      1  0.5573600000000  0.4775710000000  0.5151330000000 1.0
C      1  0.5695710000000  0.5060480000000  0.5342290000000 1.0
C      1  0.4308680000000  0.4792840000000  0.5149720000000 1.0
C      1  0.4308040000000  0.5078780000000  0.5238350000000 1.0
C      1  0.4304930000000  0.5250980000000  0.4992880000000 1.0
C      1  0.4306760000000  0.5072350000000  0.4752260000000 1.0
C      1  0.4306440000000  0.4789040000000  0.4850070000000 1.0
C      1  0.4470780000000  0.5144180000000  0.4520890000000 1.0
C      1  0.4464090000000  0.4589390000000  0.4708700000000 1.0
C      1  0.4471540000000  0.4598760000000  0.5294100000000 1.0
C      1  0.4471800000000  0.5158250000000  0.5466680000000 1.0
C      1  0.4461970000000  0.5495790000000  0.4989230000000 1.0
C      1  0.4823330000000  0.4309870000000  0.5328520000000 1.0
C      1  0.4831520000000  0.5107340000000  0.5742130000000 1.0
C      1  0.4798740000000  0.5765430000000  0.5127360000000 1.0
C      1  0.4836740000000  0.5351060000000  0.4336460000000 1.0
C      1  0.4798440000000  0.4450060000000  0.4437960000000 1.0
C      1  0.4947980000000  0.5355640000000  0.5564910000000 1.0
C      1  0.4933170000000  0.5663450000000  0.4847970000000 1.0
C      1  0.4949300000000  0.5047940000000  0.4326120000000 1.0
C      1  0.4933910000000  0.4362330000000  0.4724820000000 1.0
C      1  0.4943570000000  0.4550870000000  0.5511350000000 1.0
C      1  0.5582890000000  0.5525010000000  0.5187010000000 1.0
C      1  0.5637080000000  0.5430150000000  0.4711890000000 1.0
C      1  0.5576870000000  0.4684350000000  0.4513950000000 1.0
C      1  0.5643290000000  0.4522160000000  0.4989850000000 1.0
C      1  0.5659120000000  0.4830380000000  0.5558500000000 1.0
C      1  0.5182180000000  0.5440580000000  0.5323350000000 1.0
C      1  0.5183740000000  0.5450700000000  0.4696380000000 1.0
C      1  0.5158770000000  0.4833990000000  0.4486030000000 1.0
C      1  0.5175390000000  0.4454870000000  0.4978390000000 1.0
C      1  0.5182690000000  0.4820180000000  0.5502000000000 1.0
END
