TITL C-3985259-1859-800 0.000156808929101372 125000 -309.924833122515 0 0 60 (C1) n - 1
REM
REM in /home/nfs/bkarasulu/CARBON/AIRSS/Generating-Clusters/TERSOFF/Higher-Symm/Only-C60
REM
REM
REM
REM
REM
REM ./C.cell (28575a23ae977d3b5fae324c64b13b57)
REM
REM compiler GCC version 9.2.1 20190827 (Red Hat 9.2.1-1)
REM options -cpp -mtune=generic -march=x86-64 -g -O0 -fpre-include=/usr/include/finclude/math-vector-fortran.h
REM seed -2087926601 -368474875 -363435821 -506363822 1446221367 1948820107 -67934908 -220881714 1748840031 1294355443 -2039946809 -459379419 -1922284737 1329383972 1230410993 309271321 525323132 1279770609 1477478114 -1484632949 -238375047 -2053893667 1484877553 348443566 271632925 1488076880 -1739841098 591203559 399032474 190009403 -640850911 -1997604467 -2107759057
REM
CELL 1.54180   50.00000   50.00000   50.00000   90.00000   90.00000   90.00000
LATT -1
SFAC C  
C      1  0.5287980000000  0.4159340000000  0.5160730000000 1.0
C      1  0.5233020000000  0.4701290000000  0.5828790000000 1.0
C      1  0.5158060000000  0.5458850000000  0.5576510000000 1.0
C      1  0.5288450000000  0.5841230000000  0.4839290000000 1.0
C      1  0.5235780000000  0.5300210000000  0.4172860000000 1.0
C      1  0.5156230000000  0.4542400000000  0.4422330000000 1.0
C      1  0.5286210000000  0.5842540000000  0.5158410000000 1.0
C      1  0.5241870000000  0.5304950000000  0.5823120000000 1.0
C      1  0.5156780000000  0.4543460000000  0.5581250000000 1.0
C      1  0.5286810000000  0.4158530000000  0.4841500000000 1.0
C      1  0.5238800000000  0.4696830000000  0.4175160000000 1.0
C      1  0.5155970000000  0.5456620000000  0.4419750000000 1.0
C      1  0.5061440000000  0.4100150000000  0.4660850000000 1.0
C      1  0.4998580000000  0.4301890000000  0.5576090000000 1.0
C      1  0.5037800000000  0.5161260000000  0.5966230000000 1.0
C      1  0.5060490000000  0.5900850000000  0.5339450000000 1.0
C      1  0.4998660000000  0.5699480000000  0.4424330000000 1.0
C      1  0.5034570000000  0.4842100000000  0.4032040000000 1.0
C      1  0.5064150000000  0.5899290000000  0.4659100000000 1.0
C      1  0.4997160000000  0.5699780000000  0.5570910000000 1.0
C      1  0.5027070000000  0.4849480000000  0.5969980000000 1.0
C      1  0.5063080000000  0.4101890000000  0.5340910000000 1.0
C      1  0.4996960000000  0.4300160000000  0.4428110000000 1.0
C      1  0.5030700000000  0.5153300000000  0.4030550000000 1.0
C      1  0.4714670000000  0.4807080000000  0.5887900000000 1.0
C      1  0.4677260000000  0.5676880000000  0.5560310000000 1.0
C      1  0.4755250000000  0.5855590000000  0.4728350000000 1.0
C      1  0.4724470000000  0.5181050000000  0.4122760000000 1.0
C      1  0.4675710000000  0.4320150000000  0.4441300000000 1.0
C      1  0.4753450000000  0.4147370000000  0.5272560000000 1.0
C      1  0.4748090000000  0.5141920000000  0.5845540000000 1.0
C      1  0.4678150000000  0.4324460000000  0.5553080000000 1.0
C      1  0.4748310000000  0.4139130000000  0.4725230000000 1.0
C      1  0.4736740000000  0.4842310000000  0.4141900000000 1.0
C      1  0.4676470000000  0.5679700000000  0.4447530000000 1.0
C      1  0.4745100000000  0.5863550000000  0.5277550000000 1.0
C      1  0.5317930000000  0.4654600000000  0.5341050000000 1.0
C      1  0.5439760000000  0.5148660000000  0.5598550000000 1.0
C      1  0.5429910000000  0.5554840000000  0.5160260000000 1.0
C      1  0.5317560000000  0.5345770000000  0.4660010000000 1.0
C      1  0.5438620000000  0.4852200000000  0.4400870000000 1.0
C      1  0.5430210000000  0.4446310000000  0.4839050000000 1.0
C      1  0.5317690000000  0.5346370000000  0.5336480000000 1.0
C      1  0.5437910000000  0.4854760000000  0.5601200000000 1.0
C      1  0.5431530000000  0.4446950000000  0.5163730000000 1.0
C      1  0.5317250000000  0.4654280000000  0.4662360000000 1.0
C      1  0.5438110000000  0.5146250000000  0.4399660000000 1.0
C      1  0.5431750000000  0.5553490000000  0.4836230000000 1.0
C      1  0.4671600000000  0.5577180000000  0.4854150000000 1.0
C      1  0.4646510000000  0.5161760000000  0.4432360000000 1.0
C      1  0.4561440000000  0.4591810000000  0.4589570000000 1.0
C      1  0.4670770000000  0.4426020000000  0.5147210000000 1.0
C      1  0.4624300000000  0.4838140000000  0.5583580000000 1.0
C      1  0.4566210000000  0.5404860000000  0.5409600000000 1.0
C      1  0.4649940000000  0.4412600000000  0.4849920000000 1.0
C      1  0.4674370000000  0.4840870000000  0.4462700000000 1.0
C      1  0.4562770000000  0.5406600000000  0.4591730000000 1.0
C      1  0.4641270000000  0.5593160000000  0.5150660000000 1.0
C      1  0.4689020000000  0.5150780000000  0.5517390000000 1.0
C      1  0.4563300000000  0.4596630000000  0.5409420000000 1.0
END
