TITL C-3985259-1859-1128 0.000582193088857217 125000 -345.15192200677 0 0 60 (C1) n - 1
REM
REM in /home/nfs/bkarasulu/CARBON/AIRSS/Generating-Clusters/TERSOFF/Higher-Symm/Only-C60
REM
REM
REM
REM
REM
REM ./C.cell (28575a23ae977d3b5fae324c64b13b57)
REM
REM compiler GCC version 9.2.1 20190827 (Red Hat 9.2.1-1)
REM options -cpp -mtune=generic -march=x86-64 -g -O0 -fpre-include=/usr/include/finclude/math-vector-fortran.h
REM seed -2009285188 -1167810695 618429163 -295499074 504988044 -1302680367 844514589 1092094394 1304191920 -1116336538 353477159 -208179310 154631196 -230735841 -588777982 -997000406 194081705 -1132128422 561066357 -869682045 1892702386 1389146082 1223636701 -2136879372 327688149 1312827620 -1780390631 1672958685 -557273985 760039299 995902198 -537854191 369978762
REM
CELL 1.54180   50.00000   50.00000   50.00000   90.00000   90.00000   90.00000
LATT -1
SFAC C  
C      1  0.5213100000000  0.5092420000000  0.4924660000000 1.0
C      1  0.4971130000000  0.5161250000000  0.4796550000000 1.0
C      1  0.4769700000000  0.5125640000000  0.4990950000000 1.0
C      1  0.4885260000000  0.5019200000000  0.5220880000000 1.0
C      1  0.5164430000000  0.4990970000000  0.5182770000000 1.0
C      1  0.4840880000000  0.5301180000000  0.4365610000000 1.0
C      1  0.4354310000000  0.5302600000000  0.4944430000000 1.0
C      1  0.4769960000000  0.5297630000000  0.5571390000000 1.0
C      1  0.5468050000000  0.5291630000000  0.5381540000000 1.0
C      1  0.5528020000000  0.5292000000000  0.4654200000000 1.0
C      1  0.4813510000000  0.5604570000000  0.5166430000000 1.0
C      1  0.5114600000000  0.5610190000000  0.5213920000000 1.0
C      1  0.5254620000000  0.5611470000000  0.4942400000000 1.0
C      1  0.5038870000000  0.5608630000000  0.4724490000000 1.0
C      1  0.4764080000000  0.5604430000000  0.4863920000000 1.0
C      1  0.5030010000000  0.4712610000000  0.4312910000000 1.0
C      1  0.4353330000000  0.4698450000000  0.4747290000000 1.0
C      1  0.4540050000000  0.4668820000000  0.5542140000000 1.0
C      1  0.5380040000000  0.4665800000000  0.5612800000000 1.0
C      1  0.5677740000000  0.4691610000000  0.4821530000000 1.0
C      1  0.5214720000000  0.4561740000000  0.4822400000000 1.0
C      1  0.4896920000000  0.4573530000000  0.4753620000000 1.0
C      1  0.4727250000000  0.4564040000000  0.5030670000000 1.0
C      1  0.4940250000000  0.4550050000000  0.5285110000000 1.0
C      1  0.5249350000000  0.4549280000000  0.5154700000000 1.0
C      1  0.5344160000000  0.4263570000000  0.5202090000000 1.0
C      1  0.5297250000000  0.4282030000000  0.4735880000000 1.0
C      1  0.4840060000000  0.4300810000000  0.4630420000000 1.0
C      1  0.4606420000000  0.4284440000000  0.5036940000000 1.0
C      1  0.4913350000000  0.4264630000000  0.5388880000000 1.0
C      1  0.4527330000000  0.5463640000000  0.4745900000000 1.0
C      1  0.4633770000000  0.5459900000000  0.5355360000000 1.0
C      1  0.5236200000000  0.5467060000000  0.5444860000000 1.0
C      1  0.5512640000000  0.5466070000000  0.4902580000000 1.0
C      1  0.5081960000000  0.5466430000000  0.4464710000000 1.0
C      1  0.5352130000000  0.5334960000000  0.4416930000000 1.0
C      1  0.4557820000000  0.5334810000000  0.4471900000000 1.0
C      1  0.4379770000000  0.5331710000000  0.5247250000000 1.0
C      1  0.5054140000000  0.5338030000000  0.5649280000000 1.0
C      1  0.5639110000000  0.5334200000000  0.5144570000000 1.0
C      1  0.4809220000000  0.4780940000000  0.4517940000000 1.0
C      1  0.4464360000000  0.4757380000000  0.5035070000000 1.0
C      1  0.4860520000000  0.4730080000000  0.5556690000000 1.0
C      1  0.5485020000000  0.4731460000000  0.5310100000000 1.0
C      1  0.5420570000000  0.4755610000000  0.4652010000000 1.0
C      1  0.4761650000000  0.5018300000000  0.5472830000000 1.0
C      1  0.5361750000000  0.5017160000000  0.5384850000000 1.0
C      1  0.5440590000000  0.5034820000000  0.4777200000000 1.0
C      1  0.4917590000000  0.5068010000000  0.4538730000000 1.0
C      1  0.4511100000000  0.5045890000000  0.4922720000000 1.0
C      1  0.5305050000000  0.4816510000000  0.4359780000000 1.0
C      1  0.4496480000000  0.4817770000000  0.4513880000000 1.0
C      1  0.4376100000000  0.4808840000000  0.5331410000000 1.0
C      1  0.5131560000000  0.4809410000000  0.5705750000000 1.0
C      1  0.5708440000000  0.4813270000000  0.5092590000000 1.0
C      1  0.4403480000000  0.5085400000000  0.4424310000000 1.0
C      1  0.4280980000000  0.5086980000000  0.5389630000000 1.0
C      1  0.5159870000000  0.5096910000000  0.5798860000000 1.0
C      1  0.5811190000000  0.5094420000000  0.5100220000000 1.0
C      1  0.5358240000000  0.5088770000000  0.4250600000000 1.0
END
