TITL C-3985259-1859-811 -0.00152985822743584 125000 -356.312945615131 0 0 60 (Cs) n - 1
REM
REM in /home/nfs/bkarasulu/CARBON/AIRSS/Generating-Clusters/TERSOFF/Higher-Symm/Only-C60
REM
REM
REM
REM
REM
REM ./C.cell (28575a23ae977d3b5fae324c64b13b57)
REM
REM compiler GCC version 9.2.1 20190827 (Red Hat 9.2.1-1)
REM options -cpp -mtune=generic -march=x86-64 -g -O0 -fpre-include=/usr/include/finclude/math-vector-fortran.h
REM seed 2124610645 -638651649 -48937413 -478008409 -937064619 469335229 429189652 211218864 463065134 -103165764 -1729010377 1771694381 -457348914 450958085 -66550696 -466478040 -1335470160 1385163167 -1949379441 403181880 1739520421 1017213258 -1710297416 79165424 -328184016 1147021485 -1399435073 -1858047347 -2074929852 -1448964201 1501403296 -6687577 32938190
REM
CELL 1.54180   50.00000   50.00000   50.00000   90.00000   90.00000   90.00000
LATT -1
SFAC C  
C      1  0.4722180000000  0.4197360000000  0.5092000000000 1.0
C      1  0.4873320000000  0.4847520000000  0.5692270000000 1.0
C      1  0.4765510000000  0.5667110000000  0.5375060000000 1.0
C      1  0.4861740000000  0.5530270000000  0.4571870000000 1.0
C      1  0.4900950000000  0.4703920000000  0.4398800000000 1.0
C      1  0.4722550000000  0.5802580000000  0.5092180000000 1.0
C      1  0.4873410000000  0.5152060000000  0.5692200000000 1.0
C      1  0.4765320000000  0.4332710000000  0.5374570000000 1.0
C      1  0.4861690000000  0.4469510000000  0.4571750000000 1.0
C      1  0.4900950000000  0.5296040000000  0.4398820000000 1.0
C      1  0.4309360000000  0.5404640000000  0.5306520000000 1.0
C      1  0.4371800000000  0.5381590000000  0.4694320000000 1.0
C      1  0.4390330000000  0.4837050000000  0.4487460000000 1.0
C      1  0.4295330000000  0.4511100000000  0.5011960000000 1.0
C      1  0.4369140000000  0.4852120000000  0.5512180000000 1.0
C      1  0.4309150000000  0.4595390000000  0.5306460000000 1.0
C      1  0.4372000000000  0.4618080000000  0.4694230000000 1.0
C      1  0.4390520000000  0.5162840000000  0.4487330000000 1.0
C      1  0.4295700000000  0.5489130000000  0.5012070000000 1.0
C      1  0.4369140000000  0.5147780000000  0.5512280000000 1.0
C      1  0.5506220000000  0.5511620000000  0.4985110000000 1.0
C      1  0.5390850000000  0.5283690000000  0.4538920000000 1.0
C      1  0.5337120000000  0.4507610000000  0.4740800000000 1.0
C      1  0.5374000000000  0.4474810000000  0.5254400000000 1.0
C      1  0.5420660000000  0.5297280000000  0.5453150000000 1.0
C      1  0.5505840000000  0.4488910000000  0.4985620000000 1.0
C      1  0.5390730000000  0.4716290000000  0.4539100000000 1.0
C      1  0.5337320000000  0.5492580000000  0.4740470000000 1.0
C      1  0.5374390000000  0.5525890000000  0.5253990000000 1.0
C      1  0.5421070000000  0.4702900000000  0.5454070000000 1.0
C      1  0.5775240000000  0.5396850000000  0.4976650000000 1.0
C      1  0.5652080000000  0.5146590000000  0.4553060000000 1.0
C      1  0.5849820000000  0.4721600000000  0.4722200000000 1.0
C      1  0.5860860000000  0.4725510000000  0.5227630000000 1.0
C      1  0.5670240000000  0.5145350000000  0.5409630000000 1.0
C      1  0.5775040000000  0.4603450000000  0.4976980000000 1.0
C      1  0.5652040000000  0.4853400000000  0.4553160000000 1.0
C      1  0.5849960000000  0.5278410000000  0.4721920000000 1.0
C      1  0.5860860000000  0.5274770000000  0.5227390000000 1.0
C      1  0.5670380000000  0.4855020000000  0.5409920000000 1.0
C      1  0.4996210000000  0.4317850000000  0.5025200000000 1.0
C      1  0.5109180000000  0.4818370000000  0.5464080000000 1.0
C      1  0.5055930000000  0.5497290000000  0.5294390000000 1.0
C      1  0.5070910000000  0.5600530000000  0.4762150000000 1.0
C      1  0.5159100000000  0.4851520000000  0.4415000000000 1.0
C      1  0.4996670000000  0.5681850000000  0.5025040000000 1.0
C      1  0.5109150000000  0.5181510000000  0.5463680000000 1.0
C      1  0.5055450000000  0.4502100000000  0.5294130000000 1.0
C      1  0.5071060000000  0.4399440000000  0.4762050000000 1.0
C      1  0.5159040000000  0.5148530000000  0.4414980000000 1.0
C      1  0.4506610000000  0.4283400000000  0.4917600000000 1.0
C      1  0.4609480000000  0.4716490000000  0.5673470000000 1.0
C      1  0.4549380000000  0.5526500000000  0.5493540000000 1.0
C      1  0.4584830000000  0.5605730000000  0.4639260000000 1.0
C      1  0.4660860000000  0.4846280000000  0.4311640000000 1.0
C      1  0.4506900000000  0.5716820000000  0.4917920000000 1.0
C      1  0.4609650000000  0.5283230000000  0.5673530000000 1.0
C      1  0.4549000000000  0.4473410000000  0.5493450000000 1.0
C      1  0.4584880000000  0.4394040000000  0.4638830000000 1.0
C      1  0.4660900000000  0.5153780000000  0.4311580000000 1.0
END
