TITL C-3985259-1859-1269 -0.00925597447336384 125000 -300.928651829232 0 0 60 (C3) n - 1
REM
REM in /home/nfs/bkarasulu/CARBON/AIRSS/Generating-Clusters/TERSOFF/Higher-Symm/Only-C60
REM
REM
REM
REM
REM
REM ./C.cell (28575a23ae977d3b5fae324c64b13b57)
REM
REM compiler GCC version 9.2.1 20190827 (Red Hat 9.2.1-1)
REM options -cpp -mtune=generic -march=x86-64 -g -O0 -fpre-include=/usr/include/finclude/math-vector-fortran.h
REM seed -1214684951 -107900600 1871745504 1852644779 1315671928 -1711896519 745081489 -1020142602 1602900690 -1815503794 -1638820393 1641077291 1847625753 -972063927 -1837496635 1986017337 -1357582004 914102618 522973229 -2123842949 -1075455004 -158911653 573835794 -1412990633 -362160541 1257950714 617792866 242868396 861005065 1724011925 1055786459 752281886 -180512069
REM
CELL 1.54180   50.00000   50.00000   50.00000   90.00000   90.00000   90.00000
LATT -1
SFAC C  
C      1  0.5069360000000  0.5076900000000  0.4326190000000 1.0
C      1  0.5547720000000  0.5075930000000  0.5397600000000 1.0
C      1  0.4381400000000  0.5076310000000  0.5276430000000 1.0
C      1  0.4890290000000  0.4624750000000  0.4673260000000 1.0
C      1  0.5337720000000  0.4624940000000  0.5067830000000 1.0
C      1  0.4773160000000  0.4625070000000  0.5259540000000 1.0
C      1  0.5339330000000  0.5490890000000  0.4510970000000 1.0
C      1  0.5254000000000  0.5491200000000  0.5538890000000 1.0
C      1  0.4405780000000  0.5491050000000  0.4950190000000 1.0
C      1  0.5001920000000  0.4967760000000  0.5857500000000 1.0
C      1  0.4256520000000  0.4967840000000  0.4573380000000 1.0
C      1  0.5741200000000  0.4967860000000  0.4569640000000 1.0
C      1  0.5720430000000  0.4808870000000  0.5029960000000 1.0
C      1  0.4614160000000  0.4808890000000  0.5608790000000 1.0
C      1  0.4664440000000  0.4807650000000  0.4360160000000 1.0
C      1  0.5245560000000  0.4525310000000  0.4421070000000 1.0
C      1  0.5381290000000  0.4522060000000  0.5502770000000 1.0
C      1  0.4375500000000  0.4525140000000  0.5077040000000 1.0
C      1  0.4987540000000  0.4913840000000  0.4794430000000 1.0
C      1  0.5184420000000  0.4916290000000  0.5093010000000 1.0
C      1  0.4828820000000  0.4915580000000  0.5113220000000 1.0
C      1  0.5496370000000  0.5397580000000  0.5361850000000 1.0
C      1  0.4442650000000  0.5396660000000  0.5247790000000 1.0
C      1  0.5062800000000  0.5398300000000  0.4390940000000 1.0
C      1  0.4804260000000  0.5038960000000  0.4518810000000 1.0
C      1  0.5510750000000  0.5039790000000  0.5072230000000 1.0
C      1  0.4682650000000  0.5040360000000  0.5405240000000 1.0
C      1  0.5272800000000  0.4846950000000  0.4689510000000 1.0
C      1  0.5131940000000  0.4842100000000  0.5393880000000 1.0
C      1  0.4593190000000  0.4847440000000  0.4918090000000 1.0
C      1  0.5154440000000  0.5231470000000  0.5184290000000 1.0
C      1  0.4761600000000  0.5224170000000  0.5035980000000 1.0
C      1  0.5087250000000  0.5220500000000  0.4770290000000 1.0
C      1  0.5570590000000  0.4708060000000  0.5321270000000 1.0
C      1  0.4436390000000  0.4708890000000  0.5333360000000 1.0
C      1  0.4992810000000  0.4707570000000  0.4344910000000 1.0
C      1  0.5211700000000  0.5621300000000  0.4768410000000 1.0
C      1  0.5095160000000  0.5629450000000  0.5302140000000 1.0
C      1  0.4692030000000  0.5624890000000  0.4932410000000 1.0
C      1  0.5286330000000  0.5022740000000  0.5554030000000 1.0
C      1  0.4376960000000  0.5024970000000  0.4971200000000 1.0
C      1  0.5336250000000  0.5024710000000  0.4476120000000 1.0
C      1  0.4875670000000  0.4727740000000  0.5721500000000 1.0
C      1  0.4437440000000  0.4727950000000  0.4532290000000 1.0
C      1  0.5687100000000  0.4727590000000  0.4747010000000 1.0
C      1  0.5089830000000  0.4406930000000  0.4808810000000 1.0
C      1  0.5121090000000  0.4406960000000  0.5173480000000 1.0
C      1  0.4789770000000  0.4407280000000  0.5017690000000 1.0
C      1  0.4555010000000  0.4561890000000  0.4791550000000 1.0
C      1  0.5403150000000  0.4561180000000  0.4718810000000 1.0
C      1  0.5041610000000  0.4556920000000  0.5491520000000 1.0
C      1  0.4794720000000  0.5502600000000  0.5255940000000 1.0
C      1  0.4881410000000  0.5500920000000  0.4695430000000 1.0
C      1  0.5325660000000  0.5505980000000  0.5051930000000 1.0
C      1  0.4654810000000  0.5279410000000  0.4599900000000 1.0
C      1  0.5518140000000  0.5280580000000  0.4902520000000 1.0
C      1  0.4825890000000  0.5280230000000  0.5497770000000 1.0
C      1  0.4367040000000  0.5248500000000  0.4741190000000 1.0
C      1  0.5540090000000  0.5248080000000  0.4581330000000 1.0
C      1  0.5092100000000  0.5248280000000  0.5676700000000 1.0
END
