TITL C-3985259-1859-1112 2.99364043558729e-07 125000 -336.447057767744 0 0 60 (D6h) n - 1
REM
REM in /home/nfs/bkarasulu/CARBON/AIRSS/Generating-Clusters/TERSOFF/Higher-Symm/Only-C60
REM
REM
REM
REM
REM
REM ./C.cell (28575a23ae977d3b5fae324c64b13b57)
REM
REM compiler GCC version 9.2.1 20190827 (Red Hat 9.2.1-1)
REM options -cpp -mtune=generic -march=x86-64 -g -O0 -fpre-include=/usr/include/finclude/math-vector-fortran.h
REM seed 734261299 -1672190925 1408472690 -1244845630 843523536 -76650565 -2035030253 656258240 -1680676156 1316001077 1426409115 1806224409 512877655 1466658886 -715948966 874801523 734505562 1666934282 -1765859519 334392776 -1169756825 -76356749 -357950697 -422452439 1075892799 2060852203 1642392000 -996913770 1888213171 -804041579 -956785252 -1516524780 1590343934
REM
CELL 1.54180   50.00000   50.00000   50.00000   90.00000   90.00000   90.00000
LATT -1
SFAC C  
C      1  0.5589910000000  0.4491570000000  0.5251500000000 1.0
C      1  0.4264730000000  0.4743340000000  0.5251500000000 1.0
C      1  0.5145360000000  0.5765090000000  0.5251500000000 1.0
C      1  0.5589910000000  0.4491570000000  0.4748500000000 1.0
C      1  0.4264730000000  0.4743340000000  0.4748500000000 1.0
C      1  0.5145360000000  0.5765090000000  0.4748500000000 1.0
C      1  0.4410090000000  0.4491570000000  0.5251500000000 1.0
C      1  0.5735270000000  0.4743340000000  0.5251500000000 1.0
C      1  0.4854640000000  0.5765090000000  0.5251500000000 1.0
C      1  0.4410090000000  0.4491570000000  0.4748500000000 1.0
C      1  0.5735270000000  0.4743340000000  0.4748500000000 1.0
C      1  0.4854640000000  0.5765090000000  0.4748500000000 1.0
C      1  0.4692470000000  0.5532660000000  0.5154150000000 1.0
C      1  0.5615060000000  0.5000000000000  0.5154150000000 1.0
C      1  0.4692470000000  0.4467340000000  0.5154150000000 1.0
C      1  0.4692470000000  0.5532660000000  0.4845850000000 1.0
C      1  0.5615060000000  0.5000000000000  0.4845850000000 1.0
C      1  0.4692470000000  0.4467340000000  0.4845850000000 1.0
C      1  0.5307530000000  0.5532660000000  0.5154150000000 1.0
C      1  0.4384940000000  0.5000000000000  0.5154150000000 1.0
C      1  0.5307530000000  0.4467340000000  0.5154150000000 1.0
C      1  0.5307530000000  0.5532660000000  0.4845850000000 1.0
C      1  0.4384940000000  0.5000000000000  0.4845850000000 1.0
C      1  0.5307530000000  0.4467340000000  0.4845850000000 1.0
C      1  0.5735270000000  0.5256660000000  0.5251500000000 1.0
C      1  0.4854640000000  0.4234910000000  0.5251500000000 1.0
C      1  0.4410090000000  0.5508430000000  0.5251500000000 1.0
C      1  0.5735270000000  0.5256660000000  0.4748500000000 1.0
C      1  0.4854640000000  0.4234910000000  0.4748500000000 1.0
C      1  0.4410090000000  0.5508430000000  0.4748500000000 1.0
C      1  0.4264730000000  0.5256660000000  0.5251500000000 1.0
C      1  0.5145360000000  0.4234910000000  0.5251500000000 1.0
C      1  0.5589910000000  0.5508430000000  0.5251500000000 1.0
C      1  0.4264730000000  0.5256660000000  0.4748500000000 1.0
C      1  0.5145360000000  0.4234910000000  0.4748500000000 1.0
C      1  0.5589910000000  0.5508430000000  0.4748500000000 1.0
C      1  0.5332110000000  0.5000000000000  0.4734140000000 1.0
C      1  0.4833940000000  0.4712380000000  0.4734140000000 1.0
C      1  0.4833940000000  0.5287620000000  0.4734140000000 1.0
C      1  0.5332110000000  0.5000000000000  0.5265860000000 1.0
C      1  0.4833940000000  0.4712380000000  0.5265860000000 1.0
C      1  0.4833940000000  0.5287620000000  0.5265860000000 1.0
C      1  0.4667890000000  0.5000000000000  0.4734140000000 1.0
C      1  0.5166060000000  0.4712380000000  0.4734140000000 1.0
C      1  0.5166060000000  0.5287620000000  0.4734140000000 1.0
C      1  0.4667890000000  0.5000000000000  0.5265860000000 1.0
C      1  0.5166060000000  0.4712380000000  0.5265860000000 1.0
C      1  0.5166060000000  0.5287620000000  0.5265860000000 1.0
C      1  0.5308680000000  0.5000000000000  0.5599070000000 1.0
C      1  0.4845660000000  0.4732680000000  0.5599070000000 1.0
C      1  0.4845660000000  0.5267320000000  0.5599070000000 1.0
C      1  0.5308680000000  0.5000000000000  0.4400930000000 1.0
C      1  0.4845660000000  0.4732680000000  0.4400930000000 1.0
C      1  0.4845660000000  0.5267320000000  0.4400930000000 1.0
C      1  0.4691320000000  0.5000000000000  0.5599070000000 1.0
C      1  0.5154340000000  0.4732680000000  0.5599070000000 1.0
C      1  0.5154340000000  0.5267320000000  0.5599070000000 1.0
C      1  0.4691320000000  0.5000000000000  0.4400930000000 1.0
C      1  0.5154340000000  0.4732680000000  0.4400930000000 1.0
C      1  0.5154340000000  0.5267320000000  0.4400930000000 1.0
END
