TITL C-3985253-1688-696 9.82153803464889e-08 125000 -312.98816799705 0 0 60 (C3) n - 1
REM
REM in /home/nfs/bkarasulu/CARBON/AIRSS/Generating-Clusters/TERSOFF/Higher-Symm/Only-C60
REM
REM
REM
REM
REM
REM ./C.cell (28575a23ae977d3b5fae324c64b13b57)
REM
REM compiler GCC version 9.2.1 20190827 (Red Hat 9.2.1-1)
REM options -cpp -mtune=generic -march=x86-64 -g -O0 -fpre-include=/usr/include/finclude/math-vector-fortran.h
REM seed 1925835192 -2007340539 -285858278 501401756 94594419 1300249660 -199500032 -1293508110 -1494757924 -683097375 -692786824 -89650871 1880229798 -1392328567 1196267631 -1092467051 -554034547 1226569517 691329753 1372093876 -61524168 409778475 -43704925 -1227397650 871786377 1394630322 -51284086 -1480961808 337784261 1635060340 -147436154 -1794389113 -585631863
REM
CELL 1.54180   50.00000   50.00000   50.00000   90.00000   90.00000   90.00000
LATT -1
SFAC C  
C      1  0.4381170000000  0.4951810000000  0.5197810000000 1.0
C      1  0.4381180000000  0.4852780000000  0.4859360000000 1.0
C      1  0.4381170000000  0.5195400000000  0.4942820000000 1.0
C      1  0.4438610000000  0.5249910000000  0.4643350000000 1.0
C      1  0.4438610000000  0.5183900000000  0.5394750000000 1.0
C      1  0.4438620000000  0.4566180000000  0.4961890000000 1.0
C      1  0.5300590000000  0.4978740000000  0.4399830000000 1.0
C      1  0.5300590000000  0.5530400000000  0.5281670000000 1.0
C      1  0.5300600000000  0.4490870000000  0.5318500000000 1.0
C      1  0.4886480000000  0.4252560000000  0.5304180000000 1.0
C      1  0.4886480000000  0.5110290000000  0.4200610000000 1.0
C      1  0.4886480000000  0.5637140000000  0.5495200000000 1.0
C      1  0.4991530000000  0.4394740000000  0.5050780000000 1.0
C      1  0.4991520000000  0.5258650000000  0.4450450000000 1.0
C      1  0.4991530000000  0.5346600000000  0.5498780000000 1.0
C      1  0.5586880000000  0.4871440000000  0.5354550000000 1.0
C      1  0.5586880000000  0.4757240000000  0.4711390000000 1.0
C      1  0.5586880000000  0.5371330000000  0.4934070000000 1.0
C      1  0.5155410000000  0.4976300000000  0.5618000000000 1.0
C      1  0.5155410000000  0.4476650000000  0.4670460000000 1.0
C      1  0.5155400000000  0.5547070000000  0.4711530000000 1.0
C      1  0.4876800000000  0.5644370000000  0.4568740000000 1.0
C      1  0.4876800000000  0.5051290000000  0.5773670000000 1.0
C      1  0.4876810000000  0.4304330000000  0.4657590000000 1.0
C      1  0.4866820000000  0.4669160000000  0.4986360000000 1.0
C      1  0.4866810000000  0.5177220000000  0.4720310000000 1.0
C      1  0.4866820000000  0.5153600000000  0.5293330000000 1.0
C      1  0.4528140000000  0.4560750000000  0.5239850000000 1.0
C      1  0.4528130000000  0.5011910000000  0.4499670000000 1.0
C      1  0.4528130000000  0.5427340000000  0.5260470000000 1.0
C      1  0.5107620000000  0.4963990000000  0.4810380000000 1.0
C      1  0.5107620000000  0.5182210000000  0.5063620000000 1.0
C      1  0.5107620000000  0.4853790000000  0.5125990000000 1.0
C      1  0.5614130000000  0.5158890000000  0.5388210000000 1.0
C      1  0.5614140000000  0.4584360000000  0.4943500000000 1.0
C      1  0.5614130000000  0.5256760000000  0.4668300000000 1.0
C      1  0.4934150000000  0.4684000000000  0.4487690000000 1.0
C      1  0.4934140000000  0.5601670000000  0.4982490000000 1.0
C      1  0.4934150000000  0.4714330000000  0.5529820000000 1.0
C      1  0.5742990000000  0.4994570000000  0.4660420000000 1.0
C      1  0.5742980000000  0.5296810000000  0.5165090000000 1.0
C      1  0.5742990000000  0.4708630000000  0.5174500000000 1.0
C      1  0.5051010000000  0.4878480000000  0.4282140000000 1.0
C      1  0.5051000000000  0.5682450000000  0.5253690000000 1.0
C      1  0.5051010000000  0.4439070000000  0.5464170000000 1.0
C      1  0.5311720000000  0.5419760000000  0.5000180000000 1.0
C      1  0.5311730000000  0.4789970000000  0.5363430000000 1.0
C      1  0.5311730000000  0.4790270000000  0.4636390000000 1.0
C      1  0.5323680000000  0.5284650000000  0.5520570000000 1.0
C      1  0.5323690000000  0.4406850000000  0.4986220000000 1.0
C      1  0.5323680000000  0.5308510000000  0.4493210000000 1.0
C      1  0.4608700000000  0.4306780000000  0.5344770000000 1.0
C      1  0.4608700000000  0.5048020000000  0.4227270000000 1.0
C      1  0.4608700000000  0.5645180000000  0.5427950000000 1.0
C      1  0.4685750000000  0.5389400000000  0.4952590000000 1.0
C      1  0.4685750000000  0.4846360000000  0.5360940000000 1.0
C      1  0.4685760000000  0.4764240000000  0.4686470000000 1.0
C      1  0.4607810000000  0.5041350000000  0.5632570000000 1.0
C      1  0.4607820000000  0.4431510000000  0.4719520000000 1.0
C      1  0.4607810000000  0.5527150000000  0.4647910000000 1.0
END
