TITL C-3985244-725-549 -0.000310405042151497 125000 -317.92288323842 0 0 60 (C1) n - 1
REM
REM in /home/nfs/bkarasulu/CARBON/AIRSS/Generating-Clusters/TERSOFF/Higher-Symm/Only-C60
REM
REM
REM
REM
REM
REM ./C.cell (28575a23ae977d3b5fae324c64b13b57)
REM
REM compiler GCC version 9.2.1 20190827 (Red Hat 9.2.1-1)
REM options -cpp -mtune=generic -march=x86-64 -g -O0 -fpre-include=/usr/include/finclude/math-vector-fortran.h
REM seed -523343480 1811643750 216709572 -1462361770 -659234 730812092 1915266169 -1809143151 1765427416 -2087346440 54784675 -1006839133 -648281653 1259653239 -71158419 74823858 1181187057 -2145277448 621591345 2105054289 -451351689 -490532526 -1086468362 -1094590120 -512025925 -1796900176 -735693778 -859867976 -1569246213 -966847423 -1887740793 -984480302 -1095357121
REM
CELL 1.54180   50.00000   50.00000   50.00000   90.00000   90.00000   90.00000
LATT -1
SFAC C  
C      1  0.5456440000000  0.5287000000000  0.4574210000000 1.0
C      1  0.5459970000000  0.5274360000000  0.5440320000000 1.0
C      1  0.4731860000000  0.5554750000000  0.4582620000000 1.0
C      1  0.4751270000000  0.5543110000000  0.5400850000000 1.0
C      1  0.5059300000000  0.4936300000000  0.5314760000000 1.0
C      1  0.5059070000000  0.4942960000000  0.4707480000000 1.0
C      1  0.4974180000000  0.5398820000000  0.5523840000000 1.0
C      1  0.4957190000000  0.5390580000000  0.4481750000000 1.0
C      1  0.5646650000000  0.5427750000000  0.4749310000000 1.0
C      1  0.5645040000000  0.5419970000000  0.5260080000000 1.0
C      1  0.4533870000000  0.5378080000000  0.5297420000000 1.0
C      1  0.4476060000000  0.5406860000000  0.4654820000000 1.0
C      1  0.4530920000000  0.5082770000000  0.5399840000000 1.0
C      1  0.4507450000000  0.5090030000000  0.4573960000000 1.0
C      1  0.4680500000000  0.4500390000000  0.5286330000000 1.0
C      1  0.4671810000000  0.4500950000000  0.4717040000000 1.0
C      1  0.5497290000000  0.5004320000000  0.5564660000000 1.0
C      1  0.5494660000000  0.5018080000000  0.4452150000000 1.0
C      1  0.5169010000000  0.5247190000000  0.5350240000000 1.0
C      1  0.5169590000000  0.5263360000000  0.4673840000000 1.0
C      1  0.5227360000000  0.4880790000000  0.4436560000000 1.0
C      1  0.5222940000000  0.4877700000000  0.5587970000000 1.0
C      1  0.4787410000000  0.4171720000000  0.4756960000000 1.0
C      1  0.4807080000000  0.4186640000000  0.5238160000000 1.0
C      1  0.4747440000000  0.4854250000000  0.5316120000000 1.0
C      1  0.4740950000000  0.4854360000000  0.4682050000000 1.0
C      1  0.5062230000000  0.4991980000000  0.5811780000000 1.0
C      1  0.5062760000000  0.4977630000000  0.4208950000000 1.0
C      1  0.4791160000000  0.5778480000000  0.4765240000000 1.0
C      1  0.4798500000000  0.5780540000000  0.5232570000000 1.0
C      1  0.4934350000000  0.5237790000000  0.4230960000000 1.0
C      1  0.4943190000000  0.5257210000000  0.5781190000000 1.0
C      1  0.4623700000000  0.4803830000000  0.5003060000000 1.0
C      1  0.5279990000000  0.4018350000000  0.5015470000000 1.0
C      1  0.4940840000000  0.4662620000000  0.4997110000000 1.0
C      1  0.4519420000000  0.4382610000000  0.5002970000000 1.0
C      1  0.5302510000000  0.5795480000000  0.4999070000000 1.0
C      1  0.5395120000000  0.4472870000000  0.4931580000000 1.0
C      1  0.5104350000000  0.4432850000000  0.4930740000000 1.0
C      1  0.4577150000000  0.5776990000000  0.4999810000000 1.0
C      1  0.4227130000000  0.4465580000000  0.5011090000000 1.0
C      1  0.5250320000000  0.5276610000000  0.5027260000000 1.0
C      1  0.5537400000000  0.5598690000000  0.5002570000000 1.0
C      1  0.4311020000000  0.4746530000000  0.5022490000000 1.0
C      1  0.5010020000000  0.4160870000000  0.4991940000000 1.0
C      1  0.5956360000000  0.5016970000000  0.4995490000000 1.0
C      1  0.4127770000000  0.4976700000000  0.5024320000000 1.0
C      1  0.5513080000000  0.5108680000000  0.5008830000000 1.0
C      1  0.5173910000000  0.4861990000000  0.5019940000000 1.0
C      1  0.4801160000000  0.5261270000000  0.4874840000000 1.0
C      1  0.4592440000000  0.5103770000000  0.4984960000000 1.0
C      1  0.4585500000000  0.4066270000000  0.5007260000000 1.0
C      1  0.5815060000000  0.4765610000000  0.5006500000000 1.0
C      1  0.5502810000000  0.4760620000000  0.5010450000000 1.0
C      1  0.5786360000000  0.5260460000000  0.4999380000000 1.0
C      1  0.4987180000000  0.5421910000000  0.5016190000000 1.0
C      1  0.5514500000000  0.4205300000000  0.4996510000000 1.0
C      1  0.4383940000000  0.5506490000000  0.4992310000000 1.0
C      1  0.4318120000000  0.5200610000000  0.4984350000000 1.0
C      1  0.5009200000000  0.5716320000000  0.4997340000000 1.0
END
