TITL C-3985254-1270-1262 -3.40041447983109e-06 125000 -309.499498524826 0 0 60 (C1) n - 1
REM
REM in /home/nfs/bkarasulu/CARBON/AIRSS/Generating-Clusters/TERSOFF/Higher-Symm/Only-C60
REM
REM
REM
REM
REM
REM ./C.cell (28575a23ae977d3b5fae324c64b13b57)
REM
REM compiler GCC version 9.2.1 20190827 (Red Hat 9.2.1-1)
REM options -cpp -mtune=generic -march=x86-64 -g -O0 -fpre-include=/usr/include/finclude/math-vector-fortran.h
REM seed 1314847706 822050762 2042127366 1263990751 1710195906 -2009711322 -976557532 1367440794 248788942 560967812 -774876397 -46361011 -361969549 -250255707 628942440 -482054053 1680032130 203053441 711214316 -848979520 1616664656 -878046997 -1593165192 -1349438337 -962841622 -1579265365 -1559459591 576319662 784465485 -1122275371 -1402256938 -1278917360 1939551604
REM
CELL 1.54180   50.00000   50.00000   50.00000   90.00000   90.00000   90.00000
LATT -1
SFAC C  
C      1  0.4648430000000  0.5112850000000  0.4444730000000 1.0
C      1  0.4893800000000  0.5100780000000  0.4692700000000 1.0
C      1  0.5109790000000  0.5086900000000  0.4329030000000 1.0
C      1  0.4454410000000  0.4976470000000  0.4623860000000 1.0
C      1  0.5405150000000  0.5320830000000  0.4689570000000 1.0
C      1  0.4586560000000  0.5384150000000  0.4368470000000 1.0
C      1  0.5124030000000  0.5322350000000  0.4568060000000 1.0
C      1  0.5297200000000  0.4728370000000  0.5660830000000 1.0
C      1  0.5374090000000  0.5487950000000  0.5335500000000 1.0
C      1  0.5102690000000  0.4830450000000  0.4689660000000 1.0
C      1  0.5226270000000  0.5583200000000  0.5055450000000 1.0
C      1  0.5306390000000  0.5139790000000  0.5352040000000 1.0
C      1  0.5008150000000  0.5356510000000  0.5155360000000 1.0
C      1  0.5493870000000  0.4711220000000  0.5429470000000 1.0
C      1  0.5643830000000  0.5410210000000  0.5114670000000 1.0
C      1  0.4924570000000  0.5585370000000  0.4665770000000 1.0
C      1  0.4360280000000  0.5151520000000  0.4851760000000 1.0
C      1  0.5148220000000  0.4961390000000  0.5145160000000 1.0
C      1  0.5466490000000  0.5525200000000  0.4882700000000 1.0
C      1  0.4830240000000  0.4617310000000  0.4417050000000 1.0
C      1  0.4682930000000  0.4344760000000  0.4938630000000 1.0
C      1  0.5058360000000  0.5282650000000  0.5517140000000 1.0
C      1  0.4841860000000  0.4938740000000  0.4299180000000 1.0
C      1  0.4783390000000  0.5698660000000  0.5247300000000 1.0
C      1  0.4491430000000  0.4489610000000  0.5387660000000 1.0
C      1  0.5278260000000  0.4845650000000  0.4407610000000 1.0
C      1  0.4306600000000  0.4988780000000  0.5139530000000 1.0
C      1  0.5568190000000  0.4994830000000  0.5345390000000 1.0
C      1  0.4583320000000  0.5148330000000  0.5207350000000 1.0
C      1  0.5152000000000  0.4560220000000  0.4343280000000 1.0
C      1  0.5150670000000  0.4999160000000  0.5722490000000 1.0
C      1  0.4442980000000  0.4788480000000  0.5409920000000 1.0
C      1  0.5013890000000  0.4498180000000  0.5323340000000 1.0
C      1  0.4525300000000  0.5664180000000  0.5052060000000 1.0
C      1  0.4388050000000  0.4730240000000  0.4997980000000 1.0
C      1  0.4761620000000  0.5246830000000  0.5573280000000 1.0
C      1  0.4608460000000  0.5427870000000  0.5388370000000 1.0
C      1  0.4877210000000  0.4867380000000  0.5709480000000 1.0
C      1  0.4712320000000  0.4932610000000  0.5451380000000 1.0
C      1  0.4638810000000  0.5549500000000  0.4598130000000 1.0
C      1  0.4529150000000  0.5437900000000  0.4859360000000 1.0
C      1  0.4734650000000  0.4363480000000  0.5250310000000 1.0
C      1  0.4784230000000  0.5235290000000  0.4972420000000 1.0
C      1  0.5738830000000  0.5094920000000  0.5078770000000 1.0
C      1  0.5074990000000  0.4509030000000  0.4752250000000 1.0
C      1  0.5307860000000  0.4321130000000  0.4910420000000 1.0
C      1  0.5757020000000  0.4779540000000  0.5038470000000 1.0
C      1  0.4898220000000  0.4787980000000  0.5213750000000 1.0
C      1  0.5526100000000  0.5062630000000  0.4790080000000 1.0
C      1  0.5295390000000  0.4890970000000  0.4907360000000 1.0
C      1  0.5396420000000  0.4492130000000  0.4600340000000 1.0
C      1  0.4830510000000  0.4366770000000  0.4660380000000 1.0
C      1  0.5094170000000  0.4521510000000  0.5611150000000 1.0
C      1  0.5550180000000  0.4817760000000  0.4577000000000 1.0
C      1  0.4655990000000  0.4755160000000  0.4673540000000 1.0
C      1  0.5350820000000  0.4473590000000  0.5198540000000 1.0
C      1  0.5067340000000  0.5634980000000  0.5462150000000 1.0
C      1  0.5482790000000  0.4688490000000  0.5010250000000 1.0
C      1  0.4677550000000  0.4659380000000  0.4958230000000 1.0
C      1  0.4977670000000  0.5717900000000  0.4943910000000 1.0
END
