TITL C-3985252-168-92 0.000293358841518298 125000 -309.709851748882 0 0 60 (S4) n - 1
REM
REM in /home/nfs/bkarasulu/CARBON/AIRSS/Generating-Clusters/TERSOFF/Higher-Symm/Only-C60
REM
REM
REM
REM
REM
REM ./C.cell (28575a23ae977d3b5fae324c64b13b57)
REM
REM compiler GCC version 9.2.1 20190827 (Red Hat 9.2.1-1)
REM options -cpp -mtune=generic -march=x86-64 -g -O0 -fpre-include=/usr/include/finclude/math-vector-fortran.h
REM seed 1352035048 265397382 945698057 -1519661739 1276806934 -1181027155 -610553821 -436086409 1094784444 -756251673 -1867038541 -246406162 -1856563488 1041580071 1670665309 416874155 -1179294636 -2001998242 2144455607 1497672809 -1023889927 1081800583 -837316864 -33173003 1736966790 -64389471 -1431608680 -1873844562 -490888983 1235694507 1033130506 917316009 -955300253
REM
CELL 1.54180   50.00000   50.00000   50.00000   90.00000   90.00000   90.00000
LATT -1
SFAC C  
C      1  0.4986010000000  0.5142050000000  0.4275190000000 1.0
C      1  0.5013980000000  0.4275190000000  0.4857950000000 1.0
C      1  0.4986010000000  0.4857950000000  0.5724820000000 1.0
C      1  0.5013980000000  0.5724810000000  0.5142060000000 1.0
C      1  0.4440950000000  0.4521870000000  0.4992850000000 1.0
C      1  0.5559060000000  0.4992870000000  0.5478120000000 1.0
C      1  0.4440950000000  0.5478130000000  0.5007150000000 1.0
C      1  0.5559060000000  0.5007130000000  0.4521880000000 1.0
C      1  0.5580300000000  0.5312800000000  0.5094360000000 1.0
C      1  0.4419720000000  0.5094360000000  0.4687240000000 1.0
C      1  0.5580290000000  0.4687200000000  0.4905640000000 1.0
C      1  0.4419740000000  0.4905660000000  0.5312780000000 1.0
C      1  0.5439080000000  0.4787220000000  0.4655570000000 1.0
C      1  0.4560920000000  0.4655590000000  0.5212810000000 1.0
C      1  0.5439080000000  0.5212780000000  0.5344430000000 1.0
C      1  0.4560920000000  0.5344410000000  0.4787200000000 1.0
C      1  0.5064040000000  0.5600210000000  0.4854570000000 1.0
C      1  0.4935950000000  0.4854570000000  0.4399790000000 1.0
C      1  0.5064040000000  0.4399790000000  0.5145430000000 1.0
C      1  0.4935970000000  0.5145420000000  0.5600210000000 1.0
C      1  0.5267520000000  0.5723590000000  0.4646420000000 1.0
C      1  0.4732470000000  0.4646420000000  0.4276410000000 1.0
C      1  0.5267520000000  0.4276410000000  0.5353580000000 1.0
C      1  0.4732530000000  0.5353730000000  0.5723790000000 1.0
C      1  0.4739870000000  0.4220620000000  0.4783580000000 1.0
C      1  0.5260130000000  0.4783570000000  0.5779380000000 1.0
C      1  0.4739870000000  0.5779380000000  0.5216420000000 1.0
C      1  0.5260130000000  0.5216430000000  0.4220620000000 1.0
C      1  0.4809430000000  0.5100920000000  0.4850530000000 1.0
C      1  0.5190560000000  0.4850560000000  0.4899090000000 1.0
C      1  0.4809460000000  0.4899070000000  0.5149440000000 1.0
C      1  0.5190560000000  0.5149440000000  0.5100920000000 1.0
C      1  0.4646860000000  0.5104420000000  0.5396440000000 1.0
C      1  0.5353060000000  0.5396610000000  0.4895440000000 1.0
C      1  0.4646930000000  0.4895430000000  0.4603400000000 1.0
C      1  0.5353060000000  0.4603390000000  0.5104560000000 1.0
C      1  0.5381050000000  0.5232260000000  0.4487190000000 1.0
C      1  0.4618950000000  0.4487190000000  0.4767720000000 1.0
C      1  0.5381050000000  0.4767740000000  0.5512810000000 1.0
C      1  0.4618940000000  0.5512810000000  0.5232270000000 1.0
C      1  0.5160580000000  0.4370430000000  0.4611760000000 1.0
C      1  0.4839430000000  0.4611760000000  0.5629560000000 1.0
C      1  0.5160580000000  0.5629570000000  0.5388230000000 1.0
C      1  0.4839430000000  0.5388230000000  0.4370440000000 1.0
C      1  0.5124590000000  0.4889130000000  0.5310910000000 1.0
C      1  0.4875420000000  0.5310910000000  0.5110880000000 1.0
C      1  0.5124590000000  0.5110870000000  0.4689100000000 1.0
C      1  0.4875420000000  0.4689070000000  0.4889130000000 1.0
C      1  0.4195410000000  0.5001080000000  0.4852790000000 1.0
C      1  0.5804580000000  0.4852830000000  0.4998900000000 1.0
C      1  0.4195400000000  0.4998910000000  0.5147200000000 1.0
C      1  0.5804580000000  0.5147170000000  0.5001100000000 1.0
C      1  0.5189090000000  0.5342260000000  0.5473460000000 1.0
C      1  0.4810890000000  0.5473480000000  0.4657730000000 1.0
C      1  0.5189100000000  0.4657740000000  0.4526540000000 1.0
C      1  0.4810890000000  0.4526520000000  0.5342270000000 1.0
C      1  0.4527450000000  0.5397050000000  0.5495660000000 1.0
C      1  0.5472560000000  0.5495680000000  0.4602930000000 1.0
C      1  0.4527460000000  0.4602950000000  0.4504320000000 1.0
C      1  0.5472560000000  0.4504320000000  0.5397070000000 1.0
END
