TITL C-3985254-1270-1669 3.15889588928309e-11 125000 -333.382857802401 0 0 60 (C1) n - 1
REM
REM in /home/nfs/bkarasulu/CARBON/AIRSS/Generating-Clusters/TERSOFF/Higher-Symm/Only-C60
REM
REM
REM
REM
REM
REM ./C.cell (28575a23ae977d3b5fae324c64b13b57)
REM
REM compiler GCC version 9.2.1 20190827 (Red Hat 9.2.1-1)
REM options -cpp -mtune=generic -march=x86-64 -g -O0 -fpre-include=/usr/include/finclude/math-vector-fortran.h
REM seed -1759832931 1816817675 1830776678 1218648922 802494316 -968079743 780425081 1206360976 -104319038 2018762223 1878905779 1406131828 -1739207930 194213690 -850347847 1107590398 157943445 1930507711 1591158641 191522498 2098595044 -741392271 1095510583 10294664 -726989449 1683403224 1206358555 -605729189 -617898330 375143447 352995885 -1278714851 -1524186457
REM
CELL 1.54180   50.00000   50.00000   50.00000   90.00000   90.00000   90.00000
LATT -1
SFAC C  
C      1  0.5816200000000  0.4713940000000  0.5224050000000 1.0
C      1  0.4759110000000  0.5403030000000  0.4387940000000 1.0
C      1  0.4678630000000  0.4522860000000  0.5185660000000 1.0
C      1  0.5341770000000  0.5355160000000  0.5233200000000 1.0
C      1  0.5738780000000  0.4778410000000  0.4931670000000 1.0
C      1  0.5216490000000  0.4222650000000  0.5021680000000 1.0
C      1  0.4995950000000  0.5205850000000  0.4353250000000 1.0
C      1  0.4627750000000  0.5395190000000  0.5351540000000 1.0
C      1  0.5619460000000  0.4548160000000  0.5423970000000 1.0
C      1  0.5645810000000  0.4959950000000  0.5347860000000 1.0
C      1  0.4566520000000  0.5676480000000  0.4822070000000 1.0
C      1  0.4343670000000  0.5073810000000  0.5023530000000 1.0
C      1  0.5270410000000  0.4910370000000  0.4925720000000 1.0
C      1  0.4904790000000  0.5558780000000  0.5361700000000 1.0
C      1  0.4692000000000  0.5276380000000  0.4839450000000 1.0
C      1  0.5388680000000  0.4778650000000  0.5424500000000 1.0
C      1  0.4638470000000  0.4479900000000  0.4897570000000 1.0
C      1  0.4962940000000  0.4901410000000  0.4265580000000 1.0
C      1  0.5033910000000  0.5115510000000  0.5631670000000 1.0
C      1  0.5285560000000  0.5632330000000  0.4630590000000 1.0
C      1  0.4772280000000  0.5658210000000  0.4567720000000 1.0
C      1  0.4827530000000  0.5146460000000  0.5369510000000 1.0
C      1  0.5601180000000  0.5192910000000  0.5174280000000 1.0
C      1  0.5037810000000  0.5783410000000  0.4574770000000 1.0
C      1  0.4569020000000  0.5277910000000  0.4571300000000 1.0
C      1  0.5230750000000  0.5325730000000  0.4675600000000 1.0
C      1  0.5443530000000  0.5722080000000  0.4858410000000 1.0
C      1  0.4739780000000  0.5002450000000  0.4904670000000 1.0
C      1  0.5212160000000  0.4707770000000  0.5180710000000 1.0
C      1  0.4962450000000  0.5424810000000  0.4860340000000 1.0
C      1  0.4811490000000  0.4298360000000  0.5355110000000 1.0
C      1  0.5527110000000  0.4607000000000  0.4790120000000 1.0
C      1  0.4519400000000  0.5232490000000  0.5640620000000 1.0
C      1  0.5182630000000  0.4700980000000  0.4382470000000 1.0
C      1  0.4878520000000  0.4550930000000  0.4739720000000 1.0
C      1  0.4912980000000  0.4729020000000  0.5265630000000 1.0
C      1  0.5029100000000  0.4131810000000  0.5236620000000 1.0
C      1  0.4386480000000  0.4606470000000  0.4799580000000 1.0
C      1  0.4349680000000  0.4901130000000  0.4766850000000 1.0
C      1  0.5021840000000  0.5616140000000  0.5091250000000 1.0
C      1  0.5051910000000  0.4463480000000  0.4514220000000 1.0
C      1  0.4723420000000  0.5018410000000  0.5754690000000 1.0
C      1  0.5315370000000  0.4497460000000  0.4992010000000 1.0
C      1  0.4459170000000  0.5017620000000  0.4514780000000 1.0
C      1  0.4492490000000  0.5401230000000  0.5045940000000 1.0
C      1  0.4894890000000  0.4998790000000  0.5145990000000 1.0
C      1  0.4678500000000  0.4840710000000  0.4398540000000 1.0
C      1  0.5431680000000  0.4793840000000  0.4547800000000 1.0
C      1  0.5166310000000  0.5135870000000  0.5086270000000 1.0
C      1  0.4857430000000  0.4737860000000  0.5580870000000 1.0
C      1  0.4833080000000  0.4833200000000  0.4674910000000 1.0
C      1  0.5239630000000  0.4895770000000  0.5654270000000 1.0
C      1  0.5670800000000  0.5076970000000  0.4890480000000 1.0
C      1  0.5323930000000  0.5647250000000  0.5110980000000 1.0
C      1  0.4425340000000  0.4638530000000  0.5310540000000 1.0
C      1  0.5495390000000  0.5116510000000  0.4639270000000 1.0
C      1  0.5142830000000  0.5392300000000  0.5496350000000 1.0
C      1  0.4834810000000  0.4437630000000  0.5626680000000 1.0
C      1  0.4331300000000  0.4918790000000  0.5277430000000 1.0
C      1  0.5089100000000  0.5012870000000  0.4649480000000 1.0
END
