TITL C-3985244-725-16 -1.24351420655253e-07 125000 -293.706486656747 0 0 60 (C5) n - 1
REM
REM in /home/nfs/bkarasulu/CARBON/AIRSS/Generating-Clusters/TERSOFF/Higher-Symm/Only-C60
REM
REM
REM
REM
REM
REM ./C.cell (28575a23ae977d3b5fae324c64b13b57)
REM
REM compiler GCC version 9.2.1 20190827 (Red Hat 9.2.1-1)
REM options -cpp -mtune=generic -march=x86-64 -g -O0 -fpre-include=/usr/include/finclude/math-vector-fortran.h
REM seed -1897326218 -678968054 1367514186 979421936 -1043337899 961494380 28554073 -1393789219 -869553245 -543791998 -196052593 760100302 -1071319730 -509138100 2109425850 -68213091 1115743903 1730560545 1568828832 1219432206 -438040016 118252601 1297834162 -516313775 -2021549347 1651353886 601615851 361220179 -1870773639 786093832 -4465138 -1316275962 1776101045
REM
CELL 1.54180   50.00000   50.00000   50.00000   90.00000   90.00000   90.00000
LATT -1
SFAC C  
C      1  0.5134460000000  0.5232210000000  0.4767660000000 1.0
C      1  0.5262520000000  0.5232210000000  0.5056080000000 1.0
C      1  0.5027780000000  0.5232210000000  0.5267000000000 1.0
C      1  0.4754650000000  0.5232200000000  0.5108930000000 1.0
C      1  0.4820580000000  0.5232200000000  0.4800320000000 1.0
C      1  0.4776480000000  0.5597610000000  0.5397630000000 1.0
C      1  0.4552750000000  0.5597610000000  0.4910290000000 1.0
C      1  0.4947100000000  0.5597610000000  0.4546920000000 1.0
C      1  0.5414550000000  0.5597610000000  0.4809690000000 1.0
C      1  0.5309090000000  0.5597610000000  0.5335450000000 1.0
C      1  0.5310150000000  0.4775690000000  0.5667990000000 1.0
C      1  0.4460550000000  0.4775680000000  0.5501390000000 1.0
C      1  0.4356460000000  0.4775680000000  0.4641890000000 1.0
C      1  0.5141720000000  0.4775680000000  0.4277290000000 1.0
C      1  0.5731140000000  0.4775690000000  0.4911460000000 1.0
C      1  0.4245790000000  0.5064200000000  0.5087150000000 1.0
C      1  0.4684050000000  0.5064200000000  0.4309630000000 1.0
C      1  0.5558940000000  0.5064210000000  0.4486180000000 1.0
C      1  0.5661390000000  0.5064210000000  0.5372810000000 1.0
C      1  0.4849820000000  0.5064210000000  0.5744230000000 1.0
C      1  0.4383730000000  0.5246370000000  0.5304300000000 1.0
C      1  0.4520150000000  0.5246370000000  0.4507930000000 1.0
C      1  0.5319700000000  0.5246380000000  0.4391580000000 1.0
C      1  0.5677430000000  0.5246380000000  0.5116040000000 1.0
C      1  0.5098970000000  0.5246380000000  0.5680140000000 1.0
C      1  0.4602270000000  0.4754760000000  0.5187910000000 1.0
C      1  0.4698380000000  0.4754760000000  0.4679800000000 1.0
C      1  0.5211320000000  0.4754770000000  0.4614200000000 1.0
C      1  0.5432220000000  0.4754770000000  0.5081760000000 1.0
C      1  0.5055810000000  0.4754770000000  0.5436330000000 1.0
C      1  0.4547740000000  0.5084900000000  0.5552810000000 1.0
C      1  0.4334490000000  0.5084890000000  0.4740710000000 1.0
C      1  0.5040950000000  0.5084900000000  0.4286940000000 1.0
C      1  0.5690820000000  0.5084900000000  0.4818590000000 1.0
C      1  0.5386000000000  0.5084900000000  0.5600950000000 1.0
C      1  0.5226050000000  0.5473540000000  0.4598200000000 1.0
C      1  0.5451980000000  0.5473550000000  0.5090820000000 1.0
C      1  0.5053290000000  0.5473550000000  0.5457930000000 1.0
C      1  0.4580950000000  0.5473540000000  0.5192190000000 1.0
C      1  0.4687720000000  0.5473540000000  0.4660850000000 1.0
C      1  0.4376300000000  0.4575350000000  0.4879740000000 1.0
C      1  0.4921640000000  0.4575360000000  0.4369660000000 1.0
C      1  0.5575280000000  0.4575360000000  0.4730690000000 1.0
C      1  0.5433900000000  0.4575370000000  0.5463900000000 1.0
C      1  0.4692900000000  0.4575360000000  0.5556020000000 1.0
C      1  0.5260750000000  0.4966290000000  0.5297200000000 1.0
C      1  0.4797930000000  0.4966290000000  0.5339830000000 1.0
C      1  0.4614360000000  0.4966280000000  0.4912830000000 1.0
C      1  0.4963730000000  0.4966280000000  0.4606300000000 1.0
C      1  0.5363230000000  0.4966290000000  0.4843850000000 1.0
C      1  0.4895290000000  0.4750460000000  0.5719000000000 1.0
C      1  0.4283840000000  0.4750450000000  0.5122600000000 1.0
C      1  0.4662100000000  0.4750450000000  0.4356770000000 1.0
C      1  0.5507330000000  0.4750460000000  0.4479870000000 1.0
C      1  0.5651450000000  0.4750460000000  0.5321770000000 1.0
C      1  0.5162740000000  0.4478610000000  0.5247000000000 1.0
C      1  0.4815380000000  0.4478610000000  0.5231100000000 1.0
C      1  0.4723170000000  0.4478600000000  0.4895830000000 1.0
C      1  0.5013540000000  0.4478610000000  0.4704520000000 1.0
C      1  0.5285200000000  0.4478610000000  0.4921560000000 1.0
END
