TITL C-3985254-1270-286 3.96356976858959e-09 125000 -292.411061136784 0 0 60 (Td) n - 1
REM
REM in /home/nfs/bkarasulu/CARBON/AIRSS/Generating-Clusters/TERSOFF/Higher-Symm/Only-C60
REM
REM
REM
REM
REM
REM ./C.cell (28575a23ae977d3b5fae324c64b13b57)
REM
REM compiler GCC version 9.2.1 20190827 (Red Hat 9.2.1-1)
REM options -cpp -mtune=generic -march=x86-64 -g -O0 -fpre-include=/usr/include/finclude/math-vector-fortran.h
REM seed 148672956 2094778837 -1393489560 -1593151411 -1245364344 23183057 -638324492 -115403403 -517004079 -2134553148 -1480258054 -1717490643 -1457361160 -2044733695 -615374513 -53254154 1112855484 1148857946 -1607159253 1079363982 1691901608 -1551371693 210429966 1634589833 -2051985727 -787625874 1878072423 -188587697 1886922129 1664289886 604789162 -1473339575 574477108
REM
CELL 1.54180   50.00000   50.00000   50.00000   90.00000   90.00000   90.00000
LATT -1
SFAC C  
C      1  0.4782950000000  0.5424790000000  0.4351160000000 1.0
C      1  0.4351160000000  0.4782950000000  0.5424790000000 1.0
C      1  0.5424790000000  0.4351160000000  0.4782950000000 1.0
C      1  0.4782950000000  0.4575210000000  0.5648840000000 1.0
C      1  0.5217050000000  0.4575210000000  0.4351160000000 1.0
C      1  0.5217050000000  0.5424790000000  0.5648840000000 1.0
C      1  0.4351160000000  0.5217050000000  0.4575210000000 1.0
C      1  0.5648840000000  0.5217050000000  0.5424790000000 1.0
C      1  0.5648840000000  0.4782950000000  0.4575210000000 1.0
C      1  0.5424790000000  0.5648840000000  0.5217050000000 1.0
C      1  0.4575210000000  0.5648840000000  0.4782950000000 1.0
C      1  0.4575210000000  0.4351160000000  0.5217050000000 1.0
C      1  0.4782950000000  0.4351160000000  0.5424790000000 1.0
C      1  0.4351160000000  0.5424790000000  0.4782950000000 1.0
C      1  0.5424790000000  0.4782950000000  0.4351160000000 1.0
C      1  0.4782950000000  0.5648840000000  0.4575210000000 1.0
C      1  0.5217050000000  0.4351160000000  0.4575210000000 1.0
C      1  0.5217050000000  0.5648840000000  0.5424790000000 1.0
C      1  0.4351160000000  0.4575210000000  0.5217050000000 1.0
C      1  0.5648840000000  0.5424790000000  0.5217050000000 1.0
C      1  0.5648840000000  0.4575210000000  0.4782950000000 1.0
C      1  0.5424790000000  0.5217050000000  0.5648840000000 1.0
C      1  0.4575210000000  0.4782950000000  0.5648840000000 1.0
C      1  0.4575210000000  0.5217050000000  0.4351160000000 1.0
C      1  0.4676600000000  0.4914300000000  0.4440580000000 1.0
C      1  0.4440580000000  0.4676600000000  0.4914300000000 1.0
C      1  0.4914300000000  0.4440580000000  0.4676600000000 1.0
C      1  0.4676600000000  0.5085700000000  0.5559420000000 1.0
C      1  0.5323400000000  0.5085700000000  0.4440580000000 1.0
C      1  0.5323400000000  0.4914300000000  0.5559420000000 1.0
C      1  0.4440580000000  0.5323400000000  0.5085700000000 1.0
C      1  0.5559420000000  0.5323400000000  0.4914300000000 1.0
C      1  0.5559420000000  0.4676600000000  0.5085700000000 1.0
C      1  0.4914300000000  0.5559420000000  0.5323400000000 1.0
C      1  0.5085700000000  0.5559420000000  0.4676600000000 1.0
C      1  0.5085700000000  0.4440580000000  0.5323400000000 1.0
C      1  0.4676600000000  0.4440580000000  0.4914300000000 1.0
C      1  0.4440580000000  0.4914300000000  0.4676600000000 1.0
C      1  0.4914300000000  0.4676600000000  0.4440580000000 1.0
C      1  0.4676600000000  0.5559420000000  0.5085700000000 1.0
C      1  0.5323400000000  0.4440580000000  0.5085700000000 1.0
C      1  0.5323400000000  0.5559420000000  0.4914300000000 1.0
C      1  0.4440580000000  0.5085700000000  0.5323400000000 1.0
C      1  0.5559420000000  0.4914300000000  0.5323400000000 1.0
C      1  0.5559420000000  0.5085700000000  0.4676600000000 1.0
C      1  0.4914300000000  0.5323400000000  0.5559420000000 1.0
C      1  0.5085700000000  0.4676600000000  0.5559420000000 1.0
C      1  0.5085700000000  0.5323400000000  0.4440580000000 1.0
C      1  0.5111730000000  0.4888270000000  0.4632050000000 1.0
C      1  0.4888270000000  0.4888270000000  0.5367950000000 1.0
C      1  0.4888270000000  0.5111730000000  0.4632050000000 1.0
C      1  0.5111730000000  0.4632050000000  0.4888270000000 1.0
C      1  0.4888270000000  0.5367950000000  0.4888270000000 1.0
C      1  0.5111730000000  0.5367950000000  0.5111730000000 1.0
C      1  0.5111730000000  0.5111730000000  0.5367950000000 1.0
C      1  0.5367950000000  0.5111730000000  0.5111730000000 1.0
C      1  0.4888270000000  0.4632050000000  0.5111730000000 1.0
C      1  0.5367950000000  0.4888270000000  0.4888270000000 1.0
C      1  0.4632050000000  0.4888270000000  0.5111730000000 1.0
C      1  0.4632050000000  0.5111730000000  0.4888270000000 1.0
END
