TITL C-3985254-1270-1409 -0.00359128416025302 125000 -323.95625025289 0 0 60 (Ci) n - 1
REM
REM in /home/nfs/bkarasulu/CARBON/AIRSS/Generating-Clusters/TERSOFF/Higher-Symm/Only-C60
REM
REM
REM
REM
REM
REM ./C.cell (28575a23ae977d3b5fae324c64b13b57)
REM
REM compiler GCC version 9.2.1 20190827 (Red Hat 9.2.1-1)
REM options -cpp -mtune=generic -march=x86-64 -g -O0 -fpre-include=/usr/include/finclude/math-vector-fortran.h
REM seed 745222387 -674908517 982599390 -1636418244 1263096041 1037170523 -1466596478 358963357 -1878213890 -456149219 -1183274192 -860089776 48626732 -2138997884 -724969742 -629239516 -548190528 918021254 275953530 -169390844 -1237294026 -1525564591 1851791902 -287328723 -873867713 -2068155139 -524624819 -1684804905 1089330567 -390164178 -87134498 232807691 2102200280
REM
CELL 1.54180   50.00000   50.00000   50.00000   90.00000   90.00000   90.00000
LATT -1
SFAC C  
C      1  0.5023040000000  0.4865720000000  0.4742970000000 1.0
C      1  0.4976960000000  0.5134280000000  0.5257030000000 1.0
C      1  0.4674380000000  0.5435680000000  0.5080890000000 1.0
C      1  0.5325620000000  0.4564320000000  0.4919110000000 1.0
C      1  0.4612760000000  0.5687870000000  0.4637900000000 1.0
C      1  0.5387240000000  0.4312130000000  0.5362100000000 1.0
C      1  0.5718270000000  0.4651100000000  0.5179080000000 1.0
C      1  0.4281730000000  0.5348900000000  0.4820920000000 1.0
C      1  0.4474990000000  0.4573990000000  0.5228140000000 1.0
C      1  0.5525010000000  0.5426010000000  0.4771860000000 1.0
C      1  0.4951320000000  0.4717080000000  0.5129030000000 1.0
C      1  0.5048680000000  0.5282920000000  0.4870960000000 1.0
C      1  0.4454690000000  0.5433840000000  0.4597780000000 1.0
C      1  0.5545310000000  0.4566160000000  0.5402220000000 1.0
C      1  0.4655910000000  0.4560080000000  0.5492990000000 1.0
C      1  0.5344090000000  0.5439920000000  0.4507010000000 1.0
C      1  0.5351330000000  0.4786570000000  0.5439620000000 1.0
C      1  0.4648670000000  0.5213420000000  0.4560380000000 1.0
C      1  0.4369290000000  0.5348560000000  0.5353760000000 1.0
C      1  0.5630710000000  0.4651440000000  0.4646240000000 1.0
C      1  0.5059650000000  0.5449960000000  0.4592370000000 1.0
C      1  0.4940350000000  0.4550040000000  0.5407630000000 1.0
C      1  0.4763690000000  0.4955700000000  0.5109670000000 1.0
C      1  0.5236310000000  0.5044300000000  0.4890330000000 1.0
C      1  0.5490720000000  0.5115430000000  0.4729020000000 1.0
C      1  0.4509280000000  0.4884570000000  0.5270980000000 1.0
C      1  0.5410840000000  0.5027820000000  0.5597600000000 1.0
C      1  0.4589160000000  0.4972180000000  0.4402400000000 1.0
C      1  0.4594850000000  0.4887870000000  0.5565000000000 1.0
C      1  0.5405150000000  0.5112130000000  0.4435000000000 1.0
C      1  0.5278540000000  0.4587870000000  0.4562010000000 1.0
C      1  0.4721460000000  0.5412130000000  0.5438000000000 1.0
C      1  0.5432030000000  0.5435760000000  0.5055580000000 1.0
C      1  0.4567970000000  0.4564240000000  0.4944420000000 1.0
C      1  0.4884540000000  0.5298400000000  0.4409130000000 1.0
C      1  0.5115460000000  0.4701600000000  0.5590870000000 1.0
C      1  0.5634490000000  0.4497360000000  0.4931060000000 1.0
C      1  0.4365510000000  0.5502640000000  0.5068940000000 1.0
C      1  0.4760420000000  0.5196320000000  0.4890570000000 1.0
C      1  0.5239580000000  0.4803680000000  0.5109430000000 1.0
C      1  0.5577710000000  0.5255630000000  0.5237750000000 1.0
C      1  0.4422290000000  0.4744370000000  0.4762250000000 1.0
C      1  0.5001230000000  0.4928870000000  0.5731480000000 1.0
C      1  0.4998770000000  0.5071130000000  0.4268520000000 1.0
C      1  0.4817870000000  0.5107050000000  0.5572400000000 1.0
C      1  0.5182130000000  0.4892950000000  0.4427600000000 1.0
C      1  0.5011990000000  0.4299150000000  0.5005460000000 1.0
C      1  0.4988010000000  0.5700850000000  0.4994540000000 1.0
C      1  0.4905470000000  0.5689250000000  0.4708950000000 1.0
C      1  0.5094530000000  0.4310750000000  0.5291050000000 1.0
C      1  0.4882820000000  0.4550290000000  0.4867580000000 1.0
C      1  0.5117180000000  0.5449710000000  0.5132420000000 1.0
C      1  0.4298790000000  0.5065250000000  0.5207240000000 1.0
C      1  0.5701210000000  0.4934750000000  0.4792760000000 1.0
C      1  0.5388540000000  0.5290660000000  0.5486520000000 1.0
C      1  0.4611460000000  0.4709340000000  0.4513480000000 1.0
C      1  0.5729130000000  0.4957150000000  0.5103620000000 1.0
C      1  0.4270870000000  0.5042850000000  0.4896380000000 1.0
C      1  0.5080780000000  0.5479420000000  0.5470390000000 1.0
C      1  0.4919220000000  0.4520590000000  0.4529610000000 1.0
END
