TITL C-3985250-725-516 9.20233058537308e-07 125000 -287.600780557471 0 0 60 (C3h) n - 1
REM
REM in /home/nfs/bkarasulu/CARBON/AIRSS/Generating-Clusters/TERSOFF/Higher-Symm/Only-C60
REM
REM
REM
REM
REM
REM ./C.cell (28575a23ae977d3b5fae324c64b13b57)
REM
REM compiler GCC version 9.2.1 20190827 (Red Hat 9.2.1-1)
REM options -cpp -mtune=generic -march=x86-64 -g -O0 -fpre-include=/usr/include/finclude/math-vector-fortran.h
REM seed -1711885331 -90390462 46119748 1749717316 -293535786 517436828 -663728815 1090363473 927714421 -183656388 854650523 -1644149669 1997484948 1665363356 -418647304 -946791782 -1709892139 1220693822 -710278391 1578970857 -1140739565 1336035640 579307468 -1476911475 176401625 -461396203 -2077913843 491868760 842128102 -2070940739 262385449 1112651931 -942279963
REM
CELL 1.54180   50.00000   50.00000   50.00000   90.00000   90.00000   90.00000
LATT -1
SFAC C  
C      1  0.5022120000000  0.4578080000000  0.4428150000000 1.0
C      1  0.5484180000000  0.4578080000000  0.5305080000000 1.0
C      1  0.4493700000000  0.4578080000000  0.5266770000000 1.0
C      1  0.5022120000000  0.5421920000000  0.4428150000000 1.0
C      1  0.5484180000000  0.5421920000000  0.5305080000000 1.0
C      1  0.4493700000000  0.5421920000000  0.5266770000000 1.0
C      1  0.5150000000000  0.5761690000000  0.5234230000000 1.0
C      1  0.4722150000000  0.5761690000000  0.5012780000000 1.0
C      1  0.5127850000000  0.5761690000000  0.4752980000000 1.0
C      1  0.5150000000000  0.4238310000000  0.5234230000000 1.0
C      1  0.4722150000000  0.4238310000000  0.5012780000000 1.0
C      1  0.5127850000000  0.4238310000000  0.4752980000000 1.0
C      1  0.5162340000000  0.4819110000000  0.5672880000000 1.0
C      1  0.4336090000000  0.4819110000000  0.4804150000000 1.0
C      1  0.5501560000000  0.4819110000000  0.4522960000000 1.0
C      1  0.5162340000000  0.5180890000000  0.5672880000000 1.0
C      1  0.4336090000000  0.5180890000000  0.4804150000000 1.0
C      1  0.5501560000000  0.5180890000000  0.4522960000000 1.0
C      1  0.5228830000000  0.5141460000000  0.4706230000000 1.0
C      1  0.5140000000000  0.5141460000000  0.5345060000000 1.0
C      1  0.4631170000000  0.5141460000000  0.4948720000000 1.0
C      1  0.5228830000000  0.4858540000000  0.4706230000000 1.0
C      1  0.5140000000000  0.4858540000000  0.5345060000000 1.0
C      1  0.4631170000000  0.4858540000000  0.4948720000000 1.0
C      1  0.4878280000000  0.4663460000000  0.5608540000000 1.0
C      1  0.4533850000000  0.4663460000000  0.4590320000000 1.0
C      1  0.5587870000000  0.4663460000000  0.4801140000000 1.0
C      1  0.4878280000000  0.5336540000000  0.5608540000000 1.0
C      1  0.4533850000000  0.5336540000000  0.4590320000000 1.0
C      1  0.5587870000000  0.5336540000000  0.4801140000000 1.0
C      1  0.5199740000000  0.5307680000000  0.4964570000000 1.0
C      1  0.4930820000000  0.5307680000000  0.5190700000000 1.0
C      1  0.4869440000000  0.5307680000000  0.4844730000000 1.0
C      1  0.5199740000000  0.4692320000000  0.4964570000000 1.0
C      1  0.4930820000000  0.4692320000000  0.5190700000000 1.0
C      1  0.4869440000000  0.4692320000000  0.4844730000000 1.0
C      1  0.4817270000000  0.4837960000000  0.4528960000000 1.0
C      1  0.5499300000000  0.4837960000000  0.5077270000000 1.0
C      1  0.4683430000000  0.4837960000000  0.5393770000000 1.0
C      1  0.4817270000000  0.5162040000000  0.4528960000000 1.0
C      1  0.5499300000000  0.5162040000000  0.5077270000000 1.0
C      1  0.4683430000000  0.5162040000000  0.5393770000000 1.0
C      1  0.5428030000000  0.5646420000000  0.4755280000000 1.0
C      1  0.4997920000000  0.5646420000000  0.5493040000000 1.0
C      1  0.4574050000000  0.5646420000000  0.4751680000000 1.0
C      1  0.5428030000000  0.4353580000000  0.4755280000000 1.0
C      1  0.4997920000000  0.4353580000000  0.5493040000000 1.0
C      1  0.4574050000000  0.4353580000000  0.4751680000000 1.0
C      1  0.4766410000000  0.5591720000000  0.5252570000000 1.0
C      1  0.4898060000000  0.5591720000000  0.4671420000000 1.0
C      1  0.5335530000000  0.5591720000000  0.5076010000000 1.0
C      1  0.4766410000000  0.4408280000000  0.5252570000000 1.0
C      1  0.4898060000000  0.4408280000000  0.4671420000000 1.0
C      1  0.5335530000000  0.4408280000000  0.5076010000000 1.0
C      1  0.4365620000000  0.4536450000000  0.4981640000000 1.0
C      1  0.5333090000000  0.4536450000000  0.4459790000000 1.0
C      1  0.5301290000000  0.4536450000000  0.5558570000000 1.0
C      1  0.4365620000000  0.5463550000000  0.4981640000000 1.0
C      1  0.5333090000000  0.5463550000000  0.4459790000000 1.0
C      1  0.5301290000000  0.5463550000000  0.5558570000000 1.0
END
