TITL C-3985249-2594-24 0.000458643492136382 125000 -311.578581942557 0 0 60 (Cs) n - 1
REM
REM in /home/nfs/bkarasulu/CARBON/AIRSS/Generating-Clusters/TERSOFF/Higher-Symm/Only-C60
REM
REM
REM
REM
REM
REM ./C.cell (28575a23ae977d3b5fae324c64b13b57)
REM
REM compiler GCC version 9.2.1 20190827 (Red Hat 9.2.1-1)
REM options -cpp -mtune=generic -march=x86-64 -g -O0 -fpre-include=/usr/include/finclude/math-vector-fortran.h
REM seed -1809712228 -1903384025 552810737 -1823834861 -146528548 605597687 -1015258472 -844446049 59248530 -1853802420 -1268715980 742566113 853646293 -1457967746 1690008257 -1064885042 -976887621 656526032 1564238691 -667281146 2131417042 32720400 -417720021 1659049044 -2147043370 1094284926 -712637441 519233395 523081476 -2063527647 19184699 1272142628 -2041241137
REM
CELL 1.54180   50.00000   50.00000   50.00000   90.00000   90.00000   90.00000
LATT -1
SFAC C  
C      1  0.4725710000000  0.4612620000000  0.5409920000000 1.0
C      1  0.5274290000000  0.4612620000000  0.5409920000000 1.0
C      1  0.5512080000000  0.5466760000000  0.5296580000000 1.0
C      1  0.4487920000000  0.5466760000000  0.5296580000000 1.0
C      1  0.4341260000000  0.5340130000000  0.5030330000000 1.0
C      1  0.5658740000000  0.5340130000000  0.5030330000000 1.0
C      1  0.5318190000000  0.5438170000000  0.4602210000000 1.0
C      1  0.4681810000000  0.5438160000000  0.4602210000000 1.0
C      1  0.5183020000000  0.4881370000000  0.4453470000000 1.0
C      1  0.4816980000000  0.4881370000000  0.4453480000000 1.0
C      1  0.5158500000000  0.5239910000000  0.4425000000000 1.0
C      1  0.4841500000000  0.5239910000000  0.4425000000000 1.0
C      1  0.5145290000000  0.5716620000000  0.5544300000000 1.0
C      1  0.4854710000000  0.5716620000000  0.5544300000000 1.0
C      1  0.4836510000000  0.5731620000000  0.5052640000000 1.0
C      1  0.5163490000000  0.5731620000000  0.5052640000000 1.0
C      1  0.4768410000000  0.5073080000000  0.5197970000000 1.0
C      1  0.5231590000000  0.5073080000000  0.5197970000000 1.0
C      1  0.5156540000000  0.5200810000000  0.4940190000000 1.0
C      1  0.4843460000000  0.5200810000000  0.4940190000000 1.0
C      1  0.5339510000000  0.5054330000000  0.5631230000000 1.0
C      1  0.4660490000000  0.5054330000000  0.5631230000000 1.0
C      1  0.5149220000000  0.4790900000000  0.5202840000000 1.0
C      1  0.4850780000000  0.4790930000000  0.5202850000000 1.0
C      1  0.5699400000000  0.4636200000000  0.4754170000000 1.0
C      1  0.4300600000000  0.4636200000000  0.4754170000000 1.0
C      1  0.4490010000000  0.4479620000000  0.5259820000000 1.0
C      1  0.5509990000000  0.4479620000000  0.5259820000000 1.0
C      1  0.5723290000000  0.5012760000000  0.5171820000000 1.0
C      1  0.4276710000000  0.5012760000000  0.5171820000000 1.0
C      1  0.4540870000000  0.5162280000000  0.5366140000000 1.0
C      1  0.5459130000000  0.5162280000000  0.5366140000000 1.0
C      1  0.4417510000000  0.5352520000000  0.4712540000000 1.0
C      1  0.5582490000000  0.5352520000000  0.4712540000000 1.0
C      1  0.4820550000000  0.4546180000000  0.4592860000000 1.0
C      1  0.5179450000000  0.4546180000000  0.4592860000000 1.0
C      1  0.5535070000000  0.4804080000000  0.4476920000000 1.0
C      1  0.4464930000000  0.4804080000000  0.4476920000000 1.0
C      1  0.4697800000000  0.5672630000000  0.5301190000000 1.0
C      1  0.5302200000000  0.5672630000000  0.5301190000000 1.0
C      1  0.5462330000000  0.4423970000000  0.4751290000000 1.0
C      1  0.4537740000000  0.4423860000000  0.4751400000000 1.0
C      1  0.5183380000000  0.4704230000000  0.4892140000000 1.0
C      1  0.4816720000000  0.4704330000000  0.4892200000000 1.0
C      1  0.4311300000000  0.4663750000000  0.5113560000000 1.0
C      1  0.5688700000000  0.4663740000000  0.5113560000000 1.0
C      1  0.5159410000000  0.5503490000000  0.4841190000000 1.0
C      1  0.4840590000000  0.5503490000000  0.4841190000000 1.0
C      1  0.5287240000000  0.4989870000000  0.4759570000000 1.0
C      1  0.4712760000000  0.4989860000000  0.4759570000000 1.0
C      1  0.5420760000000  0.4272850000000  0.5035890000000 1.0
C      1  0.4579240000000  0.4272850000000  0.5035880000000 1.0
C      1  0.5149210000000  0.4408050000000  0.5030720000000 1.0
C      1  0.4850610000000  0.4408020000000  0.5030590000000 1.0
C      1  0.4396560000000  0.5056800000000  0.4668620000000 1.0
C      1  0.5603440000000  0.5056800000000  0.4668620000000 1.0
C      1  0.4835310000000  0.4806000000000  0.5637280000000 1.0
C      1  0.5164690000000  0.4806000000000  0.5637280000000 1.0
C      1  0.5819940000000  0.4958400000000  0.4847560000000 1.0
C      1  0.4180060000000  0.4958400000000  0.4847560000000 1.0
END
