TITL C-3985245-9316-78 -2.58596635170584e-07 125000 -320.127140159427 0 0 60 (C4h) n - 1
REM
REM in /home/nfs/bkarasulu/CARBON/AIRSS/Generating-Clusters/TERSOFF/Higher-Symm/Only-C60
REM
REM
REM
REM
REM
REM ./C.cell (28575a23ae977d3b5fae324c64b13b57)
REM
REM compiler GCC version 9.2.1 20190827 (Red Hat 9.2.1-1)
REM options -cpp -mtune=generic -march=x86-64 -g -O0 -fpre-include=/usr/include/finclude/math-vector-fortran.h
REM seed -1798215657 -1858802531 -235049257 1106513488 1550248882 877203648 808398444 1834456414 693778053 1141137185 -1107648665 -1545098498 385909871 1391794218 -1244468099 1991083588 -956626006 -173019558 313117365 843161093 -696924582 1575934994 -1513464403 1236789862 -1251669803 -1785751974 1086542859 649240124 -597022692 -1094995553 1977973430 1251654964 623379467
REM
CELL 1.54180   50.00000   50.00000   50.00000   90.00000   90.00000   90.00000
LATT -1
SFAC C  
C      1  0.4213280000000  0.4886400000000  0.5280180000000 1.0
C      1  0.5113600000000  0.4213280000000  0.5280180000000 1.0
C      1  0.5786720000000  0.5113600000000  0.5280180000000 1.0
C      1  0.4886400000000  0.5786720000000  0.5280180000000 1.0
C      1  0.4213280000000  0.4886400000000  0.4741560000000 1.0
C      1  0.5113600000000  0.4213280000000  0.4741560000000 1.0
C      1  0.5786720000000  0.5113600000000  0.4741560000000 1.0
C      1  0.4886400000000  0.5786720000000  0.4741560000000 1.0
C      1  0.5388100000000  0.5503930000000  0.4715270000000 1.0
C      1  0.4496070000000  0.5388100000000  0.4715270000000 1.0
C      1  0.4611900000000  0.4496070000000  0.4715270000000 1.0
C      1  0.5503930000000  0.4611900000000  0.4715270000000 1.0
C      1  0.5388100000000  0.5503930000000  0.5306470000000 1.0
C      1  0.4496070000000  0.5388100000000  0.5306470000000 1.0
C      1  0.4611900000000  0.4496070000000  0.5306470000000 1.0
C      1  0.5503930000000  0.4611900000000  0.5306470000000 1.0
C      1  0.4858600000000  0.4824560000000  0.4416480000000 1.0
C      1  0.5175440000000  0.4858600000000  0.4416480000000 1.0
C      1  0.5141400000000  0.5175440000000  0.4416480000000 1.0
C      1  0.4824560000000  0.5141400000000  0.4416480000000 1.0
C      1  0.4858600000000  0.4824560000000  0.5605260000000 1.0
C      1  0.5175440000000  0.4858600000000  0.5605260000000 1.0
C      1  0.5141400000000  0.5175440000000  0.5605260000000 1.0
C      1  0.4824560000000  0.5141400000000  0.5605260000000 1.0
C      1  0.4235270000000  0.5229810000000  0.5309490000000 1.0
C      1  0.4770190000000  0.4235270000000  0.5309490000000 1.0
C      1  0.5764730000000  0.4770190000000  0.5309490000000 1.0
C      1  0.5229810000000  0.5764730000000  0.5309490000000 1.0
C      1  0.4235270000000  0.5229810000000  0.4712240000000 1.0
C      1  0.4770190000000  0.4235270000000  0.4712240000000 1.0
C      1  0.5764730000000  0.4770190000000  0.4712240000000 1.0
C      1  0.5229810000000  0.5764730000000  0.4712240000000 1.0
C      1  0.5427080000000  0.4349860000000  0.5166530000000 1.0
C      1  0.5650140000000  0.5427080000000  0.5166530000000 1.0
C      1  0.4572920000000  0.5650140000000  0.5166530000000 1.0
C      1  0.4349860000000  0.4572920000000  0.5166530000000 1.0
C      1  0.5427080000000  0.4349860000000  0.4855210000000 1.0
C      1  0.5650140000000  0.5427080000000  0.4855210000000 1.0
C      1  0.4572920000000  0.5650140000000  0.4855210000000 1.0
C      1  0.4349860000000  0.4572920000000  0.4855210000000 1.0
C      1  0.4728820000000  0.5218740000000  0.5324070000000 1.0
C      1  0.4781260000000  0.4728820000000  0.5324070000000 1.0
C      1  0.5271180000000  0.4781260000000  0.5324070000000 1.0
C      1  0.5218740000000  0.5271180000000  0.5324070000000 1.0
C      1  0.4728820000000  0.5218740000000  0.4697670000000 1.0
C      1  0.4781260000000  0.4728820000000  0.4697670000000 1.0
C      1  0.5271180000000  0.4781260000000  0.4697670000000 1.0
C      1  0.5218740000000  0.5271180000000  0.4697670000000 1.0
C      1  0.5327390000000  0.5033890000000  0.5183060000000 1.0
C      1  0.4966110000000  0.5327390000000  0.5183060000000 1.0
C      1  0.4672610000000  0.4966110000000  0.5183060000000 1.0
C      1  0.5033890000000  0.4672610000000  0.5183060000000 1.0
C      1  0.5327390000000  0.5033890000000  0.4838680000000 1.0
C      1  0.4966110000000  0.5327390000000  0.4838680000000 1.0
C      1  0.4672610000000  0.4966110000000  0.4838680000000 1.0
C      1  0.5033890000000  0.4672610000000  0.4838680000000 1.0
C      1  0.4962210000000  0.5630140000000  0.5010870000000 1.0
C      1  0.4369860000000  0.4962210000000  0.5010870000000 1.0
C      1  0.5037790000000  0.4369860000000  0.5010870000000 1.0
C      1  0.5630140000000  0.5037790000000  0.5010870000000 1.0
END
