TITL C-3985259-1859-430 -9.40658926112376e-05 125000 -323.318540387482 0 0 60 (C1) n - 1
REM
REM in /home/nfs/bkarasulu/CARBON/AIRSS/Generating-Clusters/TERSOFF/Higher-Symm/Only-C60
REM
REM
REM
REM
REM
REM ./C.cell (28575a23ae977d3b5fae324c64b13b57)
REM
REM compiler GCC version 9.2.1 20190827 (Red Hat 9.2.1-1)
REM options -cpp -mtune=generic -march=x86-64 -g -O0 -fpre-include=/usr/include/finclude/math-vector-fortran.h
REM seed 468755050 1863171167 1301773748 1091694013 -1316421783 -1450852341 104017413 -458510935 442060199 1539077138 -932466797 59395 1737296715 686466974 -1695917157 1580774825 -1201576619 575321788 855077661 354729068 18518776 450453919 -1047668980 1446924790 1872071942 1470167293 599851210 148323210 1243542758 -481254086 -454651716 -605212567 1359336733
REM
CELL 1.54180   50.00000   50.00000   50.00000   90.00000   90.00000   90.00000
LATT -1
SFAC C  
C      1  0.4505870000000  0.4671200000000  0.5198510000000 1.0
C      1  0.5561190000000  0.4460520000000  0.4868140000000 1.0
C      1  0.5446430000000  0.5140580000000  0.4506370000000 1.0
C      1  0.5268000000000  0.4670090000000  0.5080780000000 1.0
C      1  0.4729870000000  0.5161590000000  0.5104620000000 1.0
C      1  0.5039430000000  0.4353350000000  0.4928760000000 1.0
C      1  0.5122110000000  0.4380310000000  0.5239720000000 1.0
C      1  0.4770010000000  0.5650160000000  0.5510320000000 1.0
C      1  0.4685820000000  0.5521510000000  0.4733390000000 1.0
C      1  0.4661830000000  0.4977710000000  0.4733820000000 1.0
C      1  0.5451040000000  0.5424880000000  0.5112860000000 1.0
C      1  0.5580990000000  0.4849410000000  0.4512530000000 1.0
C      1  0.5060790000000  0.5755630000000  0.5324670000000 1.0
C      1  0.4897910000000  0.4498040000000  0.5424500000000 1.0
C      1  0.5281880000000  0.4327000000000  0.4744550000000 1.0
C      1  0.5113030000000  0.5106760000000  0.4942860000000 1.0
C      1  0.4820680000000  0.5009390000000  0.5620880000000 1.0
C      1  0.4920560000000  0.5135350000000  0.4726360000000 1.0
C      1  0.5391650000000  0.4731530000000  0.4760350000000 1.0
C      1  0.4598900000000  0.5144750000000  0.4296760000000 1.0
C      1  0.4516840000000  0.5442380000000  0.5430050000000 1.0
C      1  0.5579410000000  0.4625040000000  0.5189690000000 1.0
C      1  0.5285180000000  0.4725740000000  0.5589240000000 1.0
C      1  0.4557530000000  0.4660550000000  0.4437940000000 1.0
C      1  0.4552010000000  0.5125790000000  0.5483280000000 1.0
C      1  0.4993230000000  0.5288350000000  0.5205300000000 1.0
C      1  0.4929200000000  0.5393410000000  0.5490490000000 1.0
C      1  0.5179350000000  0.4594970000000  0.4279310000000 1.0
C      1  0.4994030000000  0.5347230000000  0.4510220000000 1.0
C      1  0.4401480000000  0.5121290000000  0.4807090000000 1.0
C      1  0.5007760000000  0.5236920000000  0.5734640000000 1.0
C      1  0.4359900000000  0.4619330000000  0.4915870000000 1.0
C      1  0.5322810000000  0.5541730000000  0.5371640000000 1.0
C      1  0.5623880000000  0.4934670000000  0.5300070000000 1.0
C      1  0.4724400000000  0.4823580000000  0.5027940000000 1.0
C      1  0.4987610000000  0.4785920000000  0.5488140000000 1.0
C      1  0.5026710000000  0.4851800000000  0.4386600000000 1.0
C      1  0.5397200000000  0.4479750000000  0.5430410000000 1.0
C      1  0.4537500000000  0.5358720000000  0.4939750000000 1.0
C      1  0.4583140000000  0.4565900000000  0.4711350000000 1.0
C      1  0.4369410000000  0.4930870000000  0.5328350000000 1.0
C      1  0.5170670000000  0.5128520000000  0.4385100000000 1.0
C      1  0.4257370000000  0.4935320000000  0.4988170000000 1.0
C      1  0.4621640000000  0.4464820000000  0.5359750000000 1.0
C      1  0.5359490000000  0.5519200000000  0.4837430000000 1.0
C      1  0.4724390000000  0.4875080000000  0.4331620000000 1.0
C      1  0.5647850000000  0.5181740000000  0.5122680000000 1.0
C      1  0.5314210000000  0.5301480000000  0.5630160000000 1.0
C      1  0.4405940000000  0.5495550000000  0.5165160000000 1.0
C      1  0.5462100000000  0.4977380000000  0.5565290000000 1.0
C      1  0.5380730000000  0.5048430000000  0.4822530000000 1.0
C      1  0.5039980000000  0.5585170000000  0.4780690000000 1.0
C      1  0.5105160000000  0.4884290000000  0.5193500000000 1.0
C      1  0.5510540000000  0.5415890000000  0.4609870000000 1.0
C      1  0.5254000000000  0.5129570000000  0.5337110000000 1.0
C      1  0.4877230000000  0.4596740000000  0.4829330000000 1.0
C      1  0.5236400000000  0.4343440000000  0.4443580000000 1.0
C      1  0.4703630000000  0.5397540000000  0.4415770000000 1.0
C      1  0.5004350000000  0.5559920000000  0.5090060000000 1.0
C      1  0.5087740000000  0.4736230000000  0.4664070000000 1.0
END
