TITL C-3985254-1270-707 -0.000337163786475584 125000 -331.624084367135 0 0 60 (C2) n - 1
REM
REM in /home/nfs/bkarasulu/CARBON/AIRSS/Generating-Clusters/TERSOFF/Higher-Symm/Only-C60
REM
REM
REM
REM
REM
REM ./C.cell (28575a23ae977d3b5fae324c64b13b57)
REM
REM compiler GCC version 9.2.1 20190827 (Red Hat 9.2.1-1)
REM options -cpp -mtune=generic -march=x86-64 -g -O0 -fpre-include=/usr/include/finclude/math-vector-fortran.h
REM seed -912574083 -249508784 926095253 -1580697969 603225638 -1115150638 -1123011651 -1628977357 -1838483042 -555937033 -19464003 27595603 1595979815 -242709837 457712042 -1914515079 214067154 1186565241 -1836232542 -449772785 -1344504307 1059517401 2143306493 1644200345 -680638907 -152976882 318083110 1698417177 -381129741 -1341412901 -1042207909 -1835285395 -972203225
REM
CELL 1.54180   50.00000   50.00000   50.00000   90.00000   90.00000   90.00000
LATT -1
SFAC C  
C      1  0.4832870000000  0.4752600000000  0.4428350000000 1.0
C      1  0.5167130000000  0.4752590000000  0.5571650000000 1.0
C      1  0.4634660000000  0.4808450000000  0.5570450000000 1.0
C      1  0.5365340000000  0.4808450000000  0.4429550000000 1.0
C      1  0.5682180000000  0.5502260000000  0.4944480000000 1.0
C      1  0.4317820000000  0.5502260000000  0.5055520000000 1.0
C      1  0.4850380000000  0.4590690000000  0.5585420000000 1.0
C      1  0.5149620000000  0.4590690000000  0.4414570000000 1.0
C      1  0.4764030000000  0.5080920000000  0.5579120000000 1.0
C      1  0.5235970000000  0.5080920000000  0.4420880000000 1.0
C      1  0.5589930000000  0.4768260000000  0.4631130000000 1.0
C      1  0.4410070000000  0.4768260000000  0.5368870000000 1.0
C      1  0.4948800000000  0.5212110000000  0.4795830000000 1.0
C      1  0.5051430000000  0.5212200000000  0.5204250000000 1.0
C      1  0.5419380000000  0.5668160000000  0.4934110000000 1.0
C      1  0.4580620000000  0.5668160000000  0.5065890000000 1.0
C      1  0.4729890000000  0.5276610000000  0.4409120000000 1.0
C      1  0.5270100000000  0.5276590000000  0.5590850000000 1.0
C      1  0.4977300000000  0.5491710000000  0.4760280000000 1.0
C      1  0.5022720000000  0.5491710000000  0.5239720000000 1.0
C      1  0.4747150000000  0.5572510000000  0.5298780000000 1.0
C      1  0.5252850000000  0.5572520000000  0.4701220000000 1.0
C      1  0.5657470000000  0.4812460000000  0.5369470000000 1.0
C      1  0.4342530000000  0.4812460000000  0.4630530000000 1.0
C      1  0.4347410000000  0.5278700000000  0.5259940000000 1.0
C      1  0.5652590000000  0.5278700000000  0.4740060000000 1.0
C      1  0.4584520000000  0.5375350000000  0.4664420000000 1.0
C      1  0.5415250000000  0.5375250000000  0.5335490000000 1.0
C      1  0.5469600000000  0.4685610000000  0.4908710000000 1.0
C      1  0.4530400000000  0.4685610000000  0.5091290000000 1.0
C      1  0.4859600000000  0.4632470000000  0.4714710000000 1.0
C      1  0.5140400000000  0.4632470000000  0.5285300000000 1.0
C      1  0.4720040000000  0.5649140000000  0.4790470000000 1.0
C      1  0.5279960000000  0.5649150000000  0.5209530000000 1.0
C      1  0.4803080000000  0.5056490000000  0.5157420000000 1.0
C      1  0.5196930000000  0.5056490000000  0.4842600000000 1.0
C      1  0.5725740000000  0.5005880000000  0.4820760000000 1.0
C      1  0.4274260000000  0.5005880000000  0.5179240000000 1.0
C      1  0.5557760000000  0.4434100000000  0.5042770000000 1.0
C      1  0.4442240000000  0.4434100000000  0.4957230000000 1.0
C      1  0.5702300000000  0.5414320000000  0.5232400000000 1.0
C      1  0.4297690000000  0.5414320000000  0.4767600000000 1.0
C      1  0.4632030000000  0.5285540000000  0.5374200000000 1.0
C      1  0.5367970000000  0.5285540000000  0.4625800000000 1.0
C      1  0.4822120000000  0.4356190000000  0.5395720000000 1.0
C      1  0.5177880000000  0.4356190000000  0.4604280000000 1.0
C      1  0.4525580000000  0.4725300000000  0.4415220000000 1.0
C      1  0.5474420000000  0.4725300000000  0.5584780000000 1.0
C      1  0.5072610000000  0.5048070000000  0.5599220000000 1.0
C      1  0.4927390000000  0.5048080000000  0.4400800000000 1.0
C      1  0.4696440000000  0.4381070000000  0.4815080000000 1.0
C      1  0.5303560000000  0.4381070000000  0.5184920000000 1.0
C      1  0.5565920000000  0.4916140000000  0.5105240000000 1.0
C      1  0.4434080000000  0.4916140000000  0.4894760000000 1.0
C      1  0.4664530000000  0.5118940000000  0.4872450000000 1.0
C      1  0.5335480000000  0.5118940000000  0.5127540000000 1.0
C      1  0.4864750000000  0.4374370000000  0.5081050000000 1.0
C      1  0.5135250000000  0.4374370000000  0.4918950000000 1.0
C      1  0.5126300000000  0.4725590000000  0.4874340000000 1.0
C      1  0.4873700000000  0.4725590000000  0.5125660000000 1.0
END
