TITL C-3985251-913-356 -9.25029962251814e-06 125000 -359.318119250294 0 0 60 (S10) n - 1
REM
REM in /home/nfs/bkarasulu/CARBON/AIRSS/Generating-Clusters/TERSOFF/Higher-Symm/Only-C60
REM
REM
REM
REM
REM
REM ./C.cell (28575a23ae977d3b5fae324c64b13b57)
REM
REM compiler GCC version 9.2.1 20190827 (Red Hat 9.2.1-1)
REM options -cpp -mtune=generic -march=x86-64 -g -O0 -fpre-include=/usr/include/finclude/math-vector-fortran.h
REM seed 1637735204 -1165563414 1830625339 1298088045 -1253374251 -2068244768 905780699 -1554248502 763123460 -1273858223 87606322 1253546581 -859364943 490579599 -532934904 -885756934 1086047142 -87668145 1434906917 -2119412807 -478063791 1009336779 -1098612518 50951862 1247668249 1707073683 292351732 -347649181 1168585118 976478949 -1880718288 -1717804887 -1104991925
REM
CELL 1.54180   50.00000   50.00000   50.00000   90.00000   90.00000   90.00000
LATT -1
SFAC C  
C      1  0.5470610000000  0.4409610000000  0.4992220000000 1.0
C      1  0.5033710000000  0.4245750000000  0.5007710000000 1.0
C      1  0.4583930000000  0.4369980000000  0.4992220000000 1.0
C      1  0.4293080000000  0.4734870000000  0.5007740000000 1.0
C      1  0.4272250000000  0.5201020000000  0.4992260000000 1.0
C      1  0.4529390000000  0.5590390000000  0.5007780000000 1.0
C      1  0.4966290000000  0.5754250000000  0.4992290000000 1.0
C      1  0.5416070000000  0.5630020000000  0.5007780000000 1.0
C      1  0.5706920000000  0.5265130000000  0.4992260000000 1.0
C      1  0.5727750000000  0.4798980000000  0.5007740000000 1.0
C      1  0.4753980000000  0.4931740000000  0.4805710000000 1.0
C      1  0.4760830000000  0.5089370000000  0.5194300000000 1.0
C      1  0.4859040000000  0.5212890000000  0.4805720000000 1.0
C      1  0.5011090000000  0.5255070000000  0.5194300000000 1.0
C      1  0.5158910000000  0.5199850000000  0.4805720000000 1.0
C      1  0.5246020000000  0.5068260000000  0.5194290000000 1.0
C      1  0.5239170000000  0.4910630000000  0.4805700000000 1.0
C      1  0.5140960000000  0.4787110000000  0.5194280000000 1.0
C      1  0.4988910000000  0.4744930000000  0.4805700000000 1.0
C      1  0.4841090000000  0.4800150000000  0.5194280000000 1.0
C      1  0.4349490000000  0.5117120000000  0.4712210000000 1.0
C      1  0.4542560000000  0.5477080000000  0.5287830000000 1.0
C      1  0.4910350000000  0.5654870000000  0.4712230000000 1.0
C      1  0.5312390000000  0.5582470000000  0.5287830000000 1.0
C      1  0.5595100000000  0.5287630000000  0.4712210000000 1.0
C      1  0.5650510000000  0.4882880000000  0.5287790000000 1.0
C      1  0.5457440000000  0.4522920000000  0.4712170000000 1.0
C      1  0.5089650000000  0.4345130000000  0.5287770000000 1.0
C      1  0.4687610000000  0.4417530000000  0.4712170000000 1.0
C      1  0.4404900000000  0.4712370000000  0.5287790000000 1.0
C      1  0.4731020000000  0.4978340000000  0.5598230000000 1.0
C      1  0.4769670000000  0.5140640000000  0.4401770000000 1.0
C      1  0.4896310000000  0.5249110000000  0.5598250000000 1.0
C      1  0.5062550000000  0.5262530000000  0.4401780000000 1.0
C      1  0.5204910000000  0.5175570000000  0.5598240000000 1.0
C      1  0.5268980000000  0.5021660000000  0.4401770000000 1.0
C      1  0.5230330000000  0.4859360000000  0.5598230000000 1.0
C      1  0.5103690000000  0.4750890000000  0.4401750000000 1.0
C      1  0.4937450000000  0.4737470000000  0.5598220000000 1.0
C      1  0.4795090000000  0.4824430000000  0.4401760000000 1.0
C      1  0.5418660000000  0.5352600000000  0.5450050000000 1.0
C      1  0.5545970000000  0.5039220000000  0.4549960000000 1.0
C      1  0.5464740000000  0.4710770000000  0.5450020000000 1.0
C      1  0.5205990000000  0.4492880000000  0.4549940000000 1.0
C      1  0.4868560000000  0.4468610000000  0.5450010000000 1.0
C      1  0.4581340000000  0.4647400000000  0.4549950000000 1.0
C      1  0.4454030000000  0.4960780000000  0.5450040000000 1.0
C      1  0.4535260000000  0.5289230000000  0.4549980000000 1.0
C      1  0.4794010000000  0.5507120000000  0.5450060000000 1.0
C      1  0.5131440000000  0.5531390000000  0.4549990000000 1.0
C      1  0.5353040000000  0.5453120000000  0.4767080000000 1.0
C      1  0.5551950000000  0.5159050000000  0.5232950000000 1.0
C      1  0.5540030000000  0.4804270000000  0.4767050000000 1.0
C      1  0.5321840000000  0.4524210000000  0.5232920000000 1.0
C      1  0.4980720000000  0.4425920000000  0.4767030000000 1.0
C      1  0.4646960000000  0.4546880000000  0.5232920000000 1.0
C      1  0.4448050000000  0.4840950000000  0.4767050000000 1.0
C      1  0.4459970000000  0.5195730000000  0.5232950000000 1.0
C      1  0.4678160000000  0.5475790000000  0.4767080000000 1.0
C      1  0.5019280000000  0.5574080000000  0.5232970000000 1.0
END
