TITL C-3985248-2097-89 -0.000825335568118352 125000 -319.492527192948 0 0 60 (C3) n - 1
REM
REM in /home/nfs/bkarasulu/CARBON/AIRSS/Generating-Clusters/TERSOFF/Higher-Symm/Only-C60
REM
REM
REM
REM
REM
REM ./C.cell (28575a23ae977d3b5fae324c64b13b57)
REM
REM compiler GCC version 9.2.1 20190827 (Red Hat 9.2.1-1)
REM options -cpp -mtune=generic -march=x86-64 -g -O0 -fpre-include=/usr/include/finclude/math-vector-fortran.h
REM seed -2031858093 1703198506 953010854 1343382595 761816866 89983951 962351644 -1172592120 1610403970 -1337336477 1806005208 -1367404820 645492989 1718510076 307146719 -432174855 1112005101 1765640647 -1350819878 -753026984 -1233719960 -402669193 -696048779 423669231 -524186815 952298878 -1937095985 453817826 -655805686 -955672880 -1631954719 1064766754 -1940039909
REM
CELL 1.54180   50.00000   50.00000   50.00000   90.00000   90.00000   90.00000
LATT -1
SFAC C  
C      1  0.4678140000000  0.5509720000000  0.4571950000000 1.0
C      1  0.5531080000000  0.5510200000000  0.4935500000000 1.0
C      1  0.4790140000000  0.5509740000000  0.5492860000000 1.0
C      1  0.5146670000000  0.5455690000000  0.5279500000000 1.0
C      1  0.4685020000000  0.5456120000000  0.4987680000000 1.0
C      1  0.5168330000000  0.5456110000000  0.4732690000000 1.0
C      1  0.5307100000000  0.5616660000000  0.5095020000000 1.0
C      1  0.4763630000000  0.5617170000000  0.5218240000000 1.0
C      1  0.4929260000000  0.5616920000000  0.4686430000000 1.0
C      1  0.5104360000000  0.4737950000000  0.5514040000000 1.0
C      1  0.4502540000000  0.4738500000000  0.4833540000000 1.0
C      1  0.5392910000000  0.4738480000000  0.4652500000000 1.0
C      1  0.4894640000000  0.5044630000000  0.4726780000000 1.0
C      1  0.5289280000000  0.5044610000000  0.5045370000000 1.0
C      1  0.4815960000000  0.5044460000000  0.5227950000000 1.0
C      1  0.4547900000000  0.4331790000000  0.5295880000000 1.0
C      1  0.4969680000000  0.4332040000000  0.4460540000000 1.0
C      1  0.5482340000000  0.4332110000000  0.5243630000000 1.0
C      1  0.4376950000000  0.5248790000000  0.5278100000000 1.0
C      1  0.5070700000000  0.5248750000000  0.4321270000000 1.0
C      1  0.5552650000000  0.5249140000000  0.5400450000000 1.0
C      1  0.4435760000000  0.5560100000000  0.4822470000000 1.0
C      1  0.5436050000000  0.5559970000000  0.4599720000000 1.0
C      1  0.5128410000000  0.5559910000000  0.5577530000000 1.0
C      1  0.4628700000000  0.4261390000000  0.5024210000000 1.0
C      1  0.5164750000000  0.4261410000000  0.4666160000000 1.0
C      1  0.5206710000000  0.4261320000000  0.5309570000000 1.0
C      1  0.4892880000000  0.4623340000000  0.4443820000000 1.0
C      1  0.5535100000000  0.4623420000000  0.5185480000000 1.0
C      1  0.4571700000000  0.4623060000000  0.5370870000000 1.0
C      1  0.4651220000000  0.5236200000000  0.5450310000000 1.0
C      1  0.4784520000000  0.5236480000000  0.4472980000000 1.0
C      1  0.5564190000000  0.5236160000000  0.5077030000000 1.0
C      1  0.4433780000000  0.5037100000000  0.4766540000000 1.0
C      1  0.5485390000000  0.5037050000000  0.4626470000000 1.0
C      1  0.5081140000000  0.5036590000000  0.5607110000000 1.0
C      1  0.5465080000000  0.5499760000000  0.5548970000000 1.0
C      1  0.4292210000000  0.5499320000000  0.5128030000000 1.0
C      1  0.5243140000000  0.5499390000000  0.4322300000000 1.0
C      1  0.5256530000000  0.5024530000000  0.4369770000000 1.0
C      1  0.5418380000000  0.5024810000000  0.5537640000000 1.0
C      1  0.4325950000000  0.5024440000000  0.5092960000000 1.0
C      1  0.5757830000000  0.4771370000000  0.5040370000000 1.0
C      1  0.4586390000000  0.4771040000000  0.5636330000000 1.0
C      1  0.4655810000000  0.4771280000000  0.4323560000000 1.0
C      1  0.5179120000000  0.4431270000000  0.4925970000000 1.0
C      1  0.4974270000000  0.4431010000000  0.5192020000000 1.0
C      1  0.4846300000000  0.4431240000000  0.4881830000000 1.0
C      1  0.5175160000000  0.4729960000000  0.4414490000000 1.0
C      1  0.5419120000000  0.4730270000000  0.5444400000000 1.0
C      1  0.4405190000000  0.4729810000000  0.5141120000000 1.0
C      1  0.4561080000000  0.5025450000000  0.4446870000000 1.0
C      1  0.5698490000000  0.5025420000000  0.4896650000000 1.0
C      1  0.4740600000000  0.5025190000000  0.5656580000000 1.0
C      1  0.4873310000000  0.4698310000000  0.5311890000000 1.0
C      1  0.4793110000000  0.4698520000000  0.4734530000000 1.0
C      1  0.5333320000000  0.4698510000000  0.4953610000000 1.0
C      1  0.4715620000000  0.5155570000000  0.4959790000000 1.0
C      1  0.5177050000000  0.5155290000000  0.4773780000000 1.0
C      1  0.5107340000000  0.5155190000000  0.5266380000000 1.0
END
