TITL C-3985247-764-845 0.000279307321889943 125000 -324.388007054965 0 0 60 (C1) n - 1
REM
REM in /home/nfs/bkarasulu/CARBON/AIRSS/Generating-Clusters/TERSOFF/Higher-Symm/Only-C60
REM
REM
REM
REM
REM
REM ./C.cell (28575a23ae977d3b5fae324c64b13b57)
REM
REM compiler GCC version 9.2.1 20190827 (Red Hat 9.2.1-1)
REM options -cpp -mtune=generic -march=x86-64 -g -O0 -fpre-include=/usr/include/finclude/math-vector-fortran.h
REM seed 1542024901 1873495055 -166782711 318056471 -1990971259 -2042396630 -1966968682 -1756654112 1891226449 -1150223054 -1250791838 -1331252136 -787640322 -1155497417 1877357219 1082768058 412037759 -1427979899 1823423064 1418978423 892846230 931733161 242720419 -1572704152 712597190 -1038860236 -184772007 -1448899129 407742196 414123716 -62854025 -424561484 -1647718402
REM
CELL 1.54180   50.00000   50.00000   50.00000   90.00000   90.00000   90.00000
LATT -1
SFAC C  
C      1  0.5302080000000  0.4715690000000  0.4872280000000 1.0
C      1  0.4965230000000  0.4589060000000  0.4827840000000 1.0
C      1  0.4654600000000  0.4777540000000  0.4846830000000 1.0
C      1  0.4618190000000  0.5137370000000  0.4815940000000 1.0
C      1  0.4856020000000  0.5396980000000  0.4883020000000 1.0
C      1  0.5214770000000  0.5362770000000  0.4864020000000 1.0
C      1  0.5405540000000  0.5055880000000  0.4815520000000 1.0
C      1  0.4628400000000  0.5425130000000  0.5351340000000 1.0
C      1  0.5192930000000  0.5552300000000  0.5365020000000 1.0
C      1  0.5564460000000  0.5285250000000  0.5633290000000 1.0
C      1  0.5515810000000  0.4804690000000  0.5350760000000 1.0
C      1  0.5098570000000  0.4431260000000  0.5367660000000 1.0
C      1  0.4565700000000  0.4612100000000  0.5382280000000 1.0
C      1  0.4364620000000  0.5016460000000  0.5624990000000 1.0
C      1  0.4754820000000  0.4739400000000  0.5596340000000 1.0
C      1  0.4659090000000  0.5029270000000  0.5676580000000 1.0
C      1  0.4784820000000  0.5300840000000  0.5582210000000 1.0
C      1  0.5093660000000  0.5354300000000  0.5578610000000 1.0
C      1  0.5305170000000  0.5144270000000  0.5672250000000 1.0
C      1  0.5318600000000  0.4845290000000  0.5581960000000 1.0
C      1  0.5068970000000  0.4648410000000  0.5583680000000 1.0
C      1  0.5447580000000  0.4610520000000  0.5137600000000 1.0
C      1  0.4910650000000  0.4502660000000  0.5147500000000 1.0
C      1  0.4440170000000  0.4784280000000  0.5143450000000 1.0
C      1  0.4439560000000  0.5081090000000  0.5056640000000 1.0
C      1  0.4782060000000  0.5560540000000  0.5138420000000 1.0
C      1  0.5407980000000  0.5463430000000  0.5154260000000 1.0
C      1  0.5545620000000  0.5193990000000  0.5059620000000 1.0
C      1  0.4499790000000  0.4680450000000  0.4574390000000 1.0
C      1  0.4444360000000  0.5188260000000  0.4544850000000 1.0
C      1  0.4796620000000  0.5544470000000  0.4596410000000 1.0
C      1  0.5305430000000  0.5500860000000  0.4579320000000 1.0
C      1  0.5578350000000  0.5071220000000  0.4537570000000 1.0
C      1  0.5412800000000  0.4594460000000  0.4589970000000 1.0
C      1  0.4937770000000  0.4397810000000  0.4564910000000 1.0
C      1  0.4992090000000  0.5720300000000  0.5248020000000 1.0
C      1  0.5619350000000  0.5439010000000  0.5392630000000 1.0
C      1  0.5662680000000  0.5029420000000  0.5259280000000 1.0
C      1  0.5356780000000  0.4365150000000  0.5258950000000 1.0
C      1  0.4656390000000  0.4376260000000  0.5230140000000 1.0
C      1  0.4254310000000  0.4894590000000  0.5384130000000 1.0
C      1  0.4402020000000  0.5282580000000  0.5254530000000 1.0
C      1  0.5063650000000  0.5698510000000  0.4544510000000 1.0
C      1  0.5589670000000  0.5383240000000  0.4526780000000 1.0
C      1  0.5663760000000  0.4769330000000  0.4531270000000 1.0
C      1  0.5246390000000  0.4335850000000  0.4547130000000 1.0
C      1  0.4623840000000  0.4394880000000  0.4548240000000 1.0
C      1  0.4294540000000  0.4914380000000  0.4542510000000 1.0
C      1  0.4494120000000  0.5497340000000  0.4541280000000 1.0
C      1  0.4701660000000  0.4801980000000  0.4359580000000 1.0
C      1  0.4676680000000  0.5101110000000  0.4351980000000 1.0
C      1  0.4881090000000  0.5312890000000  0.4397400000000 1.0
C      1  0.5170150000000  0.5286710000000  0.4386260000000 1.0
C      1  0.5323820000000  0.5037120000000  0.4355010000000 1.0
C      1  0.5232500000000  0.4756680000000  0.4387620000000 1.0
C      1  0.4957070000000  0.4647720000000  0.4363760000000 1.0
C      1  0.4932120000000  0.4852010000000  0.5152370000000 1.0
C      1  0.4968480000000  0.4964280000000  0.4639370000000 1.0
C      1  0.4992140000000  0.5003380000000  0.5373260000000 1.0
C      1  0.5002870000000  0.5006120000000  0.4919250000000 1.0
END
