TITL C-3985251-913-77 -2.71182079900693e-06 125000 -364.540365712742 0 0 60 (C5) n - 1
REM
REM in /home/nfs/bkarasulu/CARBON/AIRSS/Generating-Clusters/TERSOFF/Higher-Symm/Only-C60
REM
REM
REM
REM
REM
REM ./C.cell (28575a23ae977d3b5fae324c64b13b57)
REM
REM compiler GCC version 9.2.1 20190827 (Red Hat 9.2.1-1)
REM options -cpp -mtune=generic -march=x86-64 -g -O0 -fpre-include=/usr/include/finclude/math-vector-fortran.h
REM seed -745030939 -1063026 387134173 551707252 20247074 1185852583 1701787043 2070480888 -1866885017 -920733611 569990350 -888262934 383918486 1278344151 34931057 1979499790 -351289319 1317406975 -1318013472 1594758541 -2068277094 -1591387909 -574030145 -1368521685 -869196402 -424261972 1275015752 -1817231051 -734767484 -1138077511 -370802285 715302555 -1520484894
REM
CELL 1.54180   50.00000   50.00000   50.00000   90.00000   90.00000   90.00000
LATT -1
SFAC C  
C      1  0.5156030000000  0.4635900000000  0.5410030000000 1.0
C      1  0.5156020000000  0.4497530000000  0.4780420000000 1.0
C      1  0.5156020000000  0.5053560000000  0.4454270000000 1.0
C      1  0.5156030000000  0.5535580000000  0.4882300000000 1.0
C      1  0.5156030000000  0.5277450000000  0.5472990000000 1.0
C      1  0.4843970000000  0.4635900000000  0.5410030000000 1.0
C      1  0.4843970000000  0.4497530000000  0.4780420000000 1.0
C      1  0.4843970000000  0.5053560000000  0.4454270000000 1.0
C      1  0.4843970000000  0.5535570000000  0.4882300000000 1.0
C      1  0.4843980000000  0.5277440000000  0.5472990000000 1.0
C      1  0.4646750000000  0.4581250000000  0.4551020000000 1.0
C      1  0.4646750000000  0.5297600000000  0.4463010000000 1.0
C      1  0.4646760000000  0.5602670000000  0.5117100000000 1.0
C      1  0.4646760000000  0.5074870000000  0.5609360000000 1.0
C      1  0.4646750000000  0.4443600000000  0.5259510000000 1.0
C      1  0.5353240000000  0.4581250000000  0.4551020000000 1.0
C      1  0.5353240000000  0.5297600000000  0.4463010000000 1.0
C      1  0.5353250000000  0.5602680000000  0.5117100000000 1.0
C      1  0.5353250000000  0.5074870000000  0.5609360000000 1.0
C      1  0.5353250000000  0.4443600000000  0.5259510000000 1.0
C      1  0.5210010000000  0.5126330000000  0.5215560000000 1.0
C      1  0.5210000000000  0.4834030000000  0.5186750000000 1.0
C      1  0.5209990000000  0.4771100000000  0.4899860000000 1.0
C      1  0.5209990000000  0.5024500000000  0.4751360000000 1.0
C      1  0.5210000000000  0.5244050000000  0.4946470000000 1.0
C      1  0.4790010000000  0.5126320000000  0.5215560000000 1.0
C      1  0.4790000000000  0.4834030000000  0.5186750000000 1.0
C      1  0.4789990000000  0.4771100000000  0.4899860000000 1.0
C      1  0.4790000000000  0.5024500000000  0.4751360000000 1.0
C      1  0.4790010000000  0.5244040000000  0.4946470000000 1.0
C      1  0.5259920000000  0.4797440000000  0.5641590000000 1.0
C      1  0.5259920000000  0.4327220000000  0.5005610000000 1.0
C      1  0.5259920000000  0.4786760000000  0.4361880000000 1.0
C      1  0.5259920000000  0.5540990000000  0.4600010000000 1.0
C      1  0.5259920000000  0.5547590000000  0.5390910000000 1.0
C      1  0.4740080000000  0.4797440000000  0.5641590000000 1.0
C      1  0.4740080000000  0.4327220000000  0.5005610000000 1.0
C      1  0.4740080000000  0.4786760000000  0.4361880000000 1.0
C      1  0.4740080000000  0.5540990000000  0.4600010000000 1.0
C      1  0.4740080000000  0.5547590000000  0.5390910000000 1.0
C      1  0.4366400000000  0.5222770000000  0.4513250000000 1.0
C      1  0.4366400000000  0.5531760000000  0.5061460000000 1.0
C      1  0.4366400000000  0.5105880000000  0.5524730000000 1.0
C      1  0.4366400000000  0.4533670000000  0.5262840000000 1.0
C      1  0.4366400000000  0.4605920000000  0.4637720000000 1.0
C      1  0.5633600000000  0.5222770000000  0.4513250000000 1.0
C      1  0.5633600000000  0.5531760000000  0.5061460000000 1.0
C      1  0.5633600000000  0.5105870000000  0.5524730000000 1.0
C      1  0.5633600000000  0.4533670000000  0.5262840000000 1.0
C      1  0.5633600000000  0.4605920000000  0.4637720000000 1.0
C      1  0.4267730000000  0.4774620000000  0.5127210000000 1.0
C      1  0.4267730000000  0.4809370000000  0.4824970000000 1.0
C      1  0.4267730000000  0.5107560000000  0.4764610000000 1.0
C      1  0.4267730000000  0.5257100000000  0.5029560000000 1.0
C      1  0.4267730000000  0.5051340000000  0.5253650000000 1.0
C      1  0.5732270000000  0.4774630000000  0.5127210000000 1.0
C      1  0.5732270000000  0.4809370000000  0.4824970000000 1.0
C      1  0.5732270000000  0.5107560000000  0.4764610000000 1.0
C      1  0.5732270000000  0.5257100000000  0.5029560000000 1.0
C      1  0.5732270000000  0.5051340000000  0.5253660000000 1.0
END
