TITL C-3985247-764-465 0.00195165335394227 125000 -338.912353486511 0 0 60 (C1) n - 1
REM
REM in /home/nfs/bkarasulu/CARBON/AIRSS/Generating-Clusters/TERSOFF/Higher-Symm/Only-C60
REM
REM
REM
REM
REM
REM ./C.cell (28575a23ae977d3b5fae324c64b13b57)
REM
REM compiler GCC version 9.2.1 20190827 (Red Hat 9.2.1-1)
REM options -cpp -mtune=generic -march=x86-64 -g -O0 -fpre-include=/usr/include/finclude/math-vector-fortran.h
REM seed -102844052 1947151073 -805147783 -1932068224 56759459 -1521197605 640608496 806291717 -46368700 -1947894091 1756586193 1599202883 997720200 -310770977 157052543 338412203 -662556915 1246498990 -1657820899 -1586771742 1458177272 -681067863 -611488269 994074853 282485029 -241290825 222088626 1758174659 895103332 478711994 -43870204 -1351735638 -999495525
REM
CELL 1.54180   50.00000   50.00000   50.00000   90.00000   90.00000   90.00000
LATT -1
SFAC C  
C      1  0.5465890000000  0.5200660000000  0.4184050000000 1.0
C      1  0.5180640000000  0.5469620000000  0.4625150000000 1.0
C      1  0.4849020000000  0.5267650000000  0.4912490000000 1.0
C      1  0.4564790000000  0.5116010000000  0.4472480000000 1.0
C      1  0.4373270000000  0.4941240000000  0.5349410000000 1.0
C      1  0.5124870000000  0.4985930000000  0.5261330000000 1.0
C      1  0.5245250000000  0.4401800000000  0.5163100000000 1.0
C      1  0.4418140000000  0.5437630000000  0.4813320000000 1.0
C      1  0.5201290000000  0.5141260000000  0.5507720000000 1.0
C      1  0.5063500000000  0.4447260000000  0.5402280000000 1.0
C      1  0.5595210000000  0.4707260000000  0.4682590000000 1.0
C      1  0.5474540000000  0.4645910000000  0.5513810000000 1.0
C      1  0.4809900000000  0.4511660000000  0.4798300000000 1.0
C      1  0.5578830000000  0.5045550000000  0.5049440000000 1.0
C      1  0.5715490000000  0.4996450000000  0.4792240000000 1.0
C      1  0.4848810000000  0.5635320000000  0.5762560000000 1.0
C      1  0.5564500000000  0.5314370000000  0.5157790000000 1.0
C      1  0.5356390000000  0.4857570000000  0.5107670000000 1.0
C      1  0.4735550000000  0.5248180000000  0.5470100000000 1.0
C      1  0.4344630000000  0.4772920000000  0.5090200000000 1.0
C      1  0.4382740000000  0.4383590000000  0.5373040000000 1.0
C      1  0.4523160000000  0.4841630000000  0.4582950000000 1.0
C      1  0.4863680000000  0.4838630000000  0.5196480000000 1.0
C      1  0.5182320000000  0.4779510000000  0.4858170000000 1.0
C      1  0.4818750000000  0.5698170000000  0.4975400000000 1.0
C      1  0.5192950000000  0.4616720000000  0.5618990000000 1.0
C      1  0.5382400000000  0.5229630000000  0.4686670000000 1.0
C      1  0.4566730000000  0.5683820000000  0.4834520000000 1.0
C      1  0.4820150000000  0.4578160000000  0.5338420000000 1.0
C      1  0.5181190000000  0.5431460000000  0.5466620000000 1.0
C      1  0.4875790000000  0.4850730000000  0.4876530000000 1.0
C      1  0.5295450000000  0.4892860000000  0.4587240000000 1.0
C      1  0.4586140000000  0.4537060000000  0.5512470000000 1.0
C      1  0.4550810000000  0.5223030000000  0.4984540000000 1.0
C      1  0.4380750000000  0.5327870000000  0.4545890000000 1.0
C      1  0.4459710000000  0.4939140000000  0.4874870000000 1.0
C      1  0.4505220000000  0.5205690000000  0.5281060000000 1.0
C      1  0.4523790000000  0.4814880000000  0.5579850000000 1.0
C      1  0.4815740000000  0.5726970000000  0.5275690000000 1.0
C      1  0.4755290000000  0.4649770000000  0.4528770000000 1.0
C      1  0.4772120000000  0.4983360000000  0.5648620000000 1.0
C      1  0.5034340000000  0.4845750000000  0.5754210000000 1.0
C      1  0.4893150000000  0.5516740000000  0.5491810000000 1.0
C      1  0.4383000000000  0.4479790000000  0.5097600000000 1.0
C      1  0.5085180000000  0.5682000000000  0.4830090000000 1.0
C      1  0.5285810000000  0.5707900000000  0.5035590000000 1.0
C      1  0.4835020000000  0.5118210000000  0.4633390000000 1.0
C      1  0.5704710000000  0.5267550000000  0.4333640000000 1.0
C      1  0.5147720000000  0.4453960000000  0.4873040000000 1.0
C      1  0.5082490000000  0.5242350000000  0.5104800000000 1.0
C      1  0.5223410000000  0.4503900000000  0.4377790000000 1.0
C      1  0.5479680000000  0.4591820000000  0.5210300000000 1.0
C      1  0.5682720000000  0.5251660000000  0.4624280000000 1.0
C      1  0.4586590000000  0.4362400000000  0.4919560000000 1.0
C      1  0.5030130000000  0.5263260000000  0.4461110000000 1.0
C      1  0.5309650000000  0.5464200000000  0.5184600000000 1.0
C      1  0.5232240000000  0.5086600000000  0.4321510000000 1.0
C      1  0.5024100000000  0.4730570000000  0.4400460000000 1.0
C      1  0.5672130000000  0.4582520000000  0.4970230000000 1.0
C      1  0.5362500000000  0.4471900000000  0.4633200000000 1.0
END
