TITL C-3985253-1688-764 2.27757347253579e-07 125000 -336.827324155556 0 0 60 (C6h) n - 1
REM
REM in /home/nfs/bkarasulu/CARBON/AIRSS/Generating-Clusters/TERSOFF/Higher-Symm/Only-C60
REM
REM
REM
REM
REM
REM ./C.cell (28575a23ae977d3b5fae324c64b13b57)
REM
REM compiler GCC version 9.2.1 20190827 (Red Hat 9.2.1-1)
REM options -cpp -mtune=generic -march=x86-64 -g -O0 -fpre-include=/usr/include/finclude/math-vector-fortran.h
REM seed -714460760 1005678301 -354236498 733882559 -1389255164 -1637347491 1946091671 -48544567 1081133185 1600807130 398838322 -2089621552 1572354102 350340043 -676505343 -1472056243 -679549196 574257787 480593554 -361681568 646609529 -1650808657 1522786422 1651578038 -214823165 5262021 -1211133514 -1641463918 -1130891127 -295521845 1756205840 -155674373 -1602795489
REM
CELL 1.54180   50.00000   50.00000   50.00000   90.00000   90.00000   90.00000
LATT -1
SFAC C  
C      1  0.4409030000000  0.5326310000000  0.4548200000000 1.0
C      1  0.4313250000000  0.5326310000000  0.5285890000000 1.0
C      1  0.4904220000000  0.5326310000000  0.5737690000000 1.0
C      1  0.5590970000000  0.5326310000000  0.5451800000000 1.0
C      1  0.5686750000000  0.5326310000000  0.4714110000000 1.0
C      1  0.5095780000000  0.5326310000000  0.4262310000000 1.0
C      1  0.4409030000000  0.4673690000000  0.4548200000000 1.0
C      1  0.4313250000000  0.4673690000000  0.5285890000000 1.0
C      1  0.4904220000000  0.4673690000000  0.5737690000000 1.0
C      1  0.5590970000000  0.4673690000000  0.5451800000000 1.0
C      1  0.5686750000000  0.4673690000000  0.4714110000000 1.0
C      1  0.5095780000000  0.4673690000000  0.4262310000000 1.0
C      1  0.5230900000000  0.4441040000000  0.4786830000000 1.0
C      1  0.4930840000000  0.4441040000000  0.4693450000000 1.0
C      1  0.4699940000000  0.4441040000000  0.4906620000000 1.0
C      1  0.4769100000000  0.4441040000000  0.5213170000000 1.0
C      1  0.5069160000000  0.4441040000000  0.5306550000000 1.0
C      1  0.5300060000000  0.4441040000000  0.5093380000000 1.0
C      1  0.5230900000000  0.5558960000000  0.4786830000000 1.0
C      1  0.4930840000000  0.5558960000000  0.4693450000000 1.0
C      1  0.4699940000000  0.5558960000000  0.4906620000000 1.0
C      1  0.4769100000000  0.5558960000000  0.5213170000000 1.0
C      1  0.5069160000000  0.5558960000000  0.5306550000000 1.0
C      1  0.5300060000000  0.5558960000000  0.5093380000000 1.0
C      1  0.5295720000000  0.4818840000000  0.4423440000000 1.0
C      1  0.4648550000000  0.4818840000000  0.4455620000000 1.0
C      1  0.4352830000000  0.4818840000000  0.5032180000000 1.0
C      1  0.4704280000000  0.4818840000000  0.5576560000000 1.0
C      1  0.5351450000000  0.4818840000000  0.5544380000000 1.0
C      1  0.5647170000000  0.4818840000000  0.4967820000000 1.0
C      1  0.5295720000000  0.5181160000000  0.4423440000000 1.0
C      1  0.4648550000000  0.5181160000000  0.4455620000000 1.0
C      1  0.4352830000000  0.5181160000000  0.5032180000000 1.0
C      1  0.4704280000000  0.5181160000000  0.5576560000000 1.0
C      1  0.5351450000000  0.5181160000000  0.5544380000000 1.0
C      1  0.5647170000000  0.5181160000000  0.4967820000000 1.0
C      1  0.4820560000000  0.4843140000000  0.4741170000000 1.0
C      1  0.4686130000000  0.4843140000000  0.5025990000000 1.0
C      1  0.4865570000000  0.4843140000000  0.5284820000000 1.0
C      1  0.5179440000000  0.4843140000000  0.5258830000000 1.0
C      1  0.5313870000000  0.4843140000000  0.4974010000000 1.0
C      1  0.5134430000000  0.4843140000000  0.4715180000000 1.0
C      1  0.4820560000000  0.5156860000000  0.4741170000000 1.0
C      1  0.4686130000000  0.5156860000000  0.5025990000000 1.0
C      1  0.4865570000000  0.5156860000000  0.5284820000000 1.0
C      1  0.5179440000000  0.5156860000000  0.5258830000000 1.0
C      1  0.5313870000000  0.5156860000000  0.4974010000000 1.0
C      1  0.5134430000000  0.5156860000000  0.4715180000000 1.0
C      1  0.5573730000000  0.5416050000000  0.5176860000000 1.0
C      1  0.5440030000000  0.5416050000000  0.4591560000000 1.0
C      1  0.4866300000000  0.5416050000000  0.4414700000000 1.0
C      1  0.4426270000000  0.5416050000000  0.4823140000000 1.0
C      1  0.4559970000000  0.5416050000000  0.5408440000000 1.0
C      1  0.5133700000000  0.5416050000000  0.5585300000000 1.0
C      1  0.5573730000000  0.4583950000000  0.5176860000000 1.0
C      1  0.5440030000000  0.4583950000000  0.4591560000000 1.0
C      1  0.4866300000000  0.4583950000000  0.4414700000000 1.0
C      1  0.4426270000000  0.4583950000000  0.4823140000000 1.0
C      1  0.4559970000000  0.4583950000000  0.5408440000000 1.0
C      1  0.5133700000000  0.4583950000000  0.5585300000000 1.0
END
