TITL C-3985254-1270-736 1.47747060178812e-07 125000 -361.064605408494 0 0 60 (C3) n - 1
REM
REM in /home/nfs/bkarasulu/CARBON/AIRSS/Generating-Clusters/TERSOFF/Higher-Symm/Only-C60
REM
REM
REM
REM
REM
REM ./C.cell (28575a23ae977d3b5fae324c64b13b57)
REM
REM compiler GCC version 9.2.1 20190827 (Red Hat 9.2.1-1)
REM options -cpp -mtune=generic -march=x86-64 -g -O0 -fpre-include=/usr/include/finclude/math-vector-fortran.h
REM seed 1728616108 978198520 5744425 614886408 -1584865136 620287586 164383489 836016621 -1964850711 178010587 -532349831 296047571 1267254229 -1904674554 -1929214290 -1623303557 1618854691 554365132 1015194712 961004015 1973124233 -1572172971 1220637113 -179687431 -1469487159 137225416 -1679733110 -640028199 -1705983303 2073552770 -160779594 74269135 627149403
REM
CELL 1.54180   50.00000   50.00000   50.00000   90.00000   90.00000   90.00000
LATT -1
SFAC C  
C      1  0.4547150000000  0.5001000000000  0.5301370000000 1.0
C      1  0.4547150000000  0.4738510000000  0.4850180000000 1.0
C      1  0.4547150000000  0.5260490000000  0.4848450000000 1.0
C      1  0.4547150000000  0.5001000000000  0.4698630000000 1.0
C      1  0.4547150000000  0.4738510000000  0.5149820000000 1.0
C      1  0.4547150000000  0.5260490000000  0.5151550000000 1.0
C      1  0.5248420000000  0.4991310000000  0.4531240000000 1.0
C      1  0.5248420000000  0.5410300000000  0.5226860000000 1.0
C      1  0.5248420000000  0.4598390000000  0.5241900000000 1.0
C      1  0.5248420000000  0.4991310000000  0.5468760000000 1.0
C      1  0.5248420000000  0.5410300000000  0.4773140000000 1.0
C      1  0.5248420000000  0.4598390000000  0.4758100000000 1.0
C      1  0.5231330000000  0.4955820000000  0.5765670000000 1.0
C      1  0.5231330000000  0.4359000000000  0.4578900000000 1.0
C      1  0.5231330000000  0.5685180000000  0.4655430000000 1.0
C      1  0.5231330000000  0.4955820000000  0.4234330000000 1.0
C      1  0.5231330000000  0.4359000000000  0.5421100000000 1.0
C      1  0.5231330000000  0.5685180000000  0.5344570000000 1.0
C      1  0.4747730000000  0.5472000000000  0.4724550000000 1.0
C      1  0.4747730000000  0.5002550000000  0.5546490000000 1.0
C      1  0.4747730000000  0.4525450000000  0.4728960000000 1.0
C      1  0.4747730000000  0.5472000000000  0.5275450000000 1.0
C      1  0.4747730000000  0.5002550000000  0.4453510000000 1.0
C      1  0.4747730000000  0.4525450000000  0.5271040000000 1.0
C      1  0.4826310000000  0.5494030000000  0.5568990000000 1.0
C      1  0.4826320000000  0.4260220000000  0.5143340000000 1.0
C      1  0.4826310000000  0.5245750000000  0.4287660000000 1.0
C      1  0.4826310000000  0.5494030000000  0.4431010000000 1.0
C      1  0.4826320000000  0.4260220000000  0.4856660000000 1.0
C      1  0.4826310000000  0.5245750000000  0.5712340000000 1.0
C      1  0.5499990000000  0.5000080000000  0.5302930000000 1.0
C      1  0.5499990000000  0.4737610000000  0.4848610000000 1.0
C      1  0.5499990000000  0.5262310000000  0.4848460000000 1.0
C      1  0.5499990000000  0.5000080000000  0.4697070000000 1.0
C      1  0.5499990000000  0.4737610000000  0.5151390000000 1.0
C      1  0.5499990000000  0.5262310000000  0.5151540000000 1.0
C      1  0.5069820000000  0.5183910000000  0.4132180000000 1.0
C      1  0.5069820000000  0.5659600000000  0.5593180000000 1.0
C      1  0.5069820000000  0.4156490000000  0.5274640000000 1.0
C      1  0.5069820000000  0.5183910000000  0.5867820000000 1.0
C      1  0.5069820000000  0.5659600000000  0.4406820000000 1.0
C      1  0.5069820000000  0.4156490000000  0.4725360000000 1.0
C      1  0.5072080000000  0.4708240000000  0.5831900000000 1.0
C      1  0.5072080000000  0.4425440000000  0.4331380000000 1.0
C      1  0.5072080000000  0.5866330000000  0.4836730000000 1.0
C      1  0.5072080000000  0.4708240000000  0.4168100000000 1.0
C      1  0.5072080000000  0.4425440000000  0.5668620000000 1.0
C      1  0.5072080000000  0.5866330000000  0.5163270000000 1.0
C      1  0.4983810000000  0.5273880000000  0.5158200000000 1.0
C      1  0.4983810000000  0.4726060000000  0.5158090000000 1.0
C      1  0.4983810000000  0.5000060000000  0.4683710000000 1.0
C      1  0.4983810000000  0.5273880000000  0.4841800000000 1.0
C      1  0.4983810000000  0.4726060000000  0.4841910000000 1.0
C      1  0.4983810000000  0.5000060000000  0.5316290000000 1.0
C      1  0.4773350000000  0.5743260000000  0.4849190000000 1.0
C      1  0.4773350000000  0.4758980000000  0.5719090000000 1.0
C      1  0.4773350000000  0.4497760000000  0.4431720000000 1.0
C      1  0.4773350000000  0.5743260000000  0.5150810000000 1.0
C      1  0.4773350000000  0.4758980000000  0.4280910000000 1.0
C      1  0.4773350000000  0.4497760000000  0.5568280000000 1.0
END
