TITL C-3985250-725-444 0.00182499888878209 125000 -336.869910381491 0 0 60 (C1) n - 1
REM
REM in /home/nfs/bkarasulu/CARBON/AIRSS/Generating-Clusters/TERSOFF/Higher-Symm/Only-C60
REM
REM
REM
REM
REM
REM ./C.cell (28575a23ae977d3b5fae324c64b13b57)
REM
REM compiler GCC version 9.2.1 20190827 (Red Hat 9.2.1-1)
REM options -cpp -mtune=generic -march=x86-64 -g -O0 -fpre-include=/usr/include/finclude/math-vector-fortran.h
REM seed -1678159062 384469183 -50104592 498812102 -619274011 900270526 1351352027 -1324999066 -122196923 -414702717 725551117 398865394 -956227159 -318663810 -402403993 1373883419 -310728362 -235055658 1498387806 -1778217857 -462535589 814332333 -702333947 -1723359602 -1005665206 1526190001 898927107 -957590757 162598955 -942815732 762488311 1687085175 -484895368
REM
CELL 1.54180   50.00000   50.00000   50.00000   90.00000   90.00000   90.00000
LATT -1
SFAC C  
C      1  0.5174190000000  0.5733550000000  0.5196600000000 1.0
C      1  0.5153890000000  0.5037460000000  0.5771980000000 1.0
C      1  0.5145010000000  0.4272500000000  0.5266770000000 1.0
C      1  0.5152710000000  0.4523570000000  0.4393380000000 1.0
C      1  0.5170430000000  0.5419960000000  0.4365990000000 1.0
C      1  0.4790600000000  0.4300160000000  0.5202560000000 1.0
C      1  0.4801700000000  0.4964910000000  0.5737770000000 1.0
C      1  0.4819410000000  0.5704300000000  0.5262930000000 1.0
C      1  0.4813100000000  0.5454650000000  0.4412480000000 1.0
C      1  0.4796950000000  0.4587200000000  0.4401990000000 1.0
C      1  0.5228750000000  0.4836560000000  0.4320470000000 1.0
C      1  0.5207710000000  0.5580240000000  0.4646860000000 1.0
C      1  0.5197890000000  0.5526020000000  0.5441930000000 1.0
C      1  0.5229270000000  0.4738730000000  0.5651590000000 1.0
C      1  0.5240950000000  0.4293370000000  0.4951640000000 1.0
C      1  0.4789580000000  0.5139660000000  0.4365340000000 1.0
C      1  0.4808710000000  0.4469950000000  0.4686190000000 1.0
C      1  0.4819120000000  0.4530970000000  0.5402510000000 1.0
C      1  0.4806080000000  0.5253070000000  0.5610190000000 1.0
C      1  0.4782510000000  0.5667910000000  0.4944680000000 1.0
C      1  0.5671040000000  0.4892710000000  0.5426120000000 1.0
C      1  0.5677380000000  0.4560630000000  0.5032940000000 1.0
C      1  0.5686910000000  0.4834430000000  0.4598210000000 1.0
C      1  0.5689980000000  0.5331000000000  0.4722280000000 1.0
C      1  0.5680110000000  0.5366630000000  0.5231900000000 1.0
C      1  0.4301620000000  0.5100880000000  0.5424550000000 1.0
C      1  0.4303930000000  0.5436390000000  0.5038680000000 1.0
C      1  0.4289350000000  0.5170910000000  0.4600660000000 1.0
C      1  0.4282130000000  0.4673790000000  0.4716300000000 1.0
C      1  0.4287780000000  0.4632020000000  0.5224120000000 1.0
C      1  0.5056810000000  0.5337740000000  0.4761320000000 1.0
C      1  0.5061150000000  0.5331950000000  0.5240890000000 1.0
C      1  0.5118450000000  0.4874790000000  0.5387280000000 1.0
C      1  0.5135980000000  0.4589840000000  0.4993140000000 1.0
C      1  0.5105700000000  0.4882330000000  0.4605280000000 1.0
C      1  0.5011090000000  0.4666860000000  0.4765570000000 1.0
C      1  0.5013700000000  0.4676270000000  0.5236950000000 1.0
C      1  0.4972950000000  0.5122430000000  0.5388630000000 1.0
C      1  0.4937140000000  0.5404300000000  0.4994440000000 1.0
C      1  0.4971280000000  0.5117200000000  0.4605460000000 1.0
C      1  0.5345600000000  0.4437580000000  0.4657710000000 1.0
C      1  0.5344080000000  0.5143370000000  0.4379220000000 1.0
C      1  0.5337560000000  0.5625680000000  0.4939490000000 1.0
C      1  0.5323450000000  0.5253020000000  0.5579470000000 1.0
C      1  0.5339370000000  0.4499060000000  0.5433410000000 1.0
C      1  0.4650080000000  0.5536060000000  0.4680390000000 1.0
C      1  0.4641280000000  0.4865560000000  0.4400470000000 1.0
C      1  0.4645630000000  0.4400490000000  0.4937440000000 1.0
C      1  0.4657030000000  0.4749310000000  0.5551640000000 1.0
C      1  0.4662200000000  0.5461360000000  0.5414990000000 1.0
C      1  0.5558540000000  0.5165740000000  0.5411180000000 1.0
C      1  0.5560780000000  0.4653800000000  0.5288960000000 1.0
C      1  0.5568820000000  0.4619270000000  0.4762590000000 1.0
C      1  0.5575510000000  0.5106880000000  0.4569410000000 1.0
C      1  0.5573720000000  0.5443950000000  0.4968400000000 1.0
C      1  0.4408570000000  0.4826560000000  0.5408320000000 1.0
C      1  0.4419100000000  0.5336590000000  0.5291450000000 1.0
C      1  0.4410940000000  0.5379830000000  0.4769430000000 1.0
C      1  0.4397470000000  0.4898950000000  0.4566470000000 1.0
C      1  0.4397240000000  0.4559120000000  0.4960950000000 1.0
END
