TITL C-3985253-1688-729 -0.000133063919904241 125000 -310.373803599486 0 0 60 (C1) n - 1
REM
REM in /home/nfs/bkarasulu/CARBON/AIRSS/Generating-Clusters/TERSOFF/Higher-Symm/Only-C60
REM
REM
REM
REM
REM
REM ./C.cell (28575a23ae977d3b5fae324c64b13b57)
REM
REM compiler GCC version 9.2.1 20190827 (Red Hat 9.2.1-1)
REM options -cpp -mtune=generic -march=x86-64 -g -O0 -fpre-include=/usr/include/finclude/math-vector-fortran.h
REM seed -894595150 1981902496 517106115 1679657847 -2044467064 -1132576666 1044825528 2059891881 1679703653 1317087578 162574994 1713802106 -1182338000 14147776 -1666432194 -532216364 1816915492 582658845 -899054506 -164358560 1682987492 43838220 -1016974704 633748783 -150551065 -984396027 -971208687 1383750157 -1390059023 -1108222612 107559965 -445426861 -1126443777
REM
CELL 1.54180   50.00000   50.00000   50.00000   90.00000   90.00000   90.00000
LATT -1
SFAC C  
C      1  0.4555010000000  0.5549480000000  0.5459490000000 1.0
C      1  0.5445530000000  0.5549370000000  0.5459810000000 1.0
C      1  0.5804290000000  0.5069440000000  0.4800550000000 1.0
C      1  0.4195550000000  0.5069300000000  0.4800510000000 1.0
C      1  0.5647380000000  0.5119840000000  0.4470630000000 1.0
C      1  0.4352390000000  0.5119780000000  0.4470490000000 1.0
C      1  0.5237580000000  0.4300240000000  0.4749990000000 1.0
C      1  0.4762450000000  0.4300160000000  0.4749970000000 1.0
C      1  0.4790310000000  0.5338890000000  0.4992000000000 1.0
C      1  0.5209660000000  0.5339250000000  0.4992250000000 1.0
C      1  0.4568610000000  0.5640420000000  0.5182480000000 1.0
C      1  0.5432110000000  0.5640230000000  0.5182710000000 1.0
C      1  0.5267510000000  0.4721430000000  0.4966950000000 1.0
C      1  0.4732470000000  0.4721370000000  0.4967000000000 1.0
C      1  0.4432520000000  0.4676840000000  0.4997680000000 1.0
C      1  0.5567340000000  0.4677050000000  0.4997670000000 1.0
C      1  0.5266320000000  0.4435270000000  0.4492920000000 1.0
C      1  0.4733630000000  0.4435200000000  0.4492920000000 1.0
C      1  0.4516400000000  0.5060800000000  0.4850020000000 1.0
C      1  0.5483370000000  0.5061150000000  0.4850230000000 1.0
C      1  0.4245490000000  0.4748380000000  0.4780180000000 1.0
C      1  0.5754280000000  0.4748700000000  0.4780210000000 1.0
C      1  0.5528940000000  0.5387810000000  0.4991510000000 1.0
C      1  0.4471070000000  0.5387710000000  0.4991300000000 1.0
C      1  0.5330990000000  0.5185130000000  0.4429640000000 1.0
C      1  0.4668850000000  0.5185130000000  0.4429540000000 1.0
C      1  0.4849670000000  0.4450900000000  0.4991460000000 1.0
C      1  0.5150320000000  0.4450970000000  0.4991450000000 1.0
C      1  0.4840700000000  0.4635810000000  0.5483320000000 1.0
C      1  0.5159260000000  0.4635840000000  0.5483320000000 1.0
C      1  0.5147940000000  0.5646960000000  0.5064660000000 1.0
C      1  0.4852240000000  0.5645280000000  0.5063320000000 1.0
C      1  0.4819670000000  0.5547670000000  0.5635480000000 1.0
C      1  0.5180640000000  0.5547830000000  0.5635510000000 1.0
C      1  0.5153100000000  0.4946860000000  0.4296810000000 1.0
C      1  0.4846800000000  0.4946830000000  0.4296800000000 1.0
C      1  0.5169690000000  0.4363020000000  0.5303170000000 1.0
C      1  0.4830330000000  0.4362960000000  0.5303180000000 1.0
C      1  0.4614660000000  0.5093020000000  0.5571770000000 1.0
C      1  0.5385320000000  0.5092990000000  0.5571880000000 1.0
C      1  0.5616390000000  0.4806530000000  0.4503980000000 1.0
C      1  0.4383520000000  0.4806480000000  0.4504010000000 1.0
C      1  0.5321580000000  0.4873750000000  0.5392270000000 1.0
C      1  0.4678370000000  0.4873720000000  0.5392240000000 1.0
C      1  0.4408280000000  0.5280450000000  0.5449640000000 1.0
C      1  0.5591910000000  0.5280290000000  0.5449880000000 1.0
C      1  0.5582070000000  0.4773920000000  0.5273390000000 1.0
C      1  0.4417870000000  0.4773850000000  0.5273390000000 1.0
C      1  0.4816890000000  0.4906100000000  0.4713680000000 1.0
C      1  0.5183050000000  0.4906250000000  0.4713700000000 1.0
C      1  0.5754560000000  0.5205560000000  0.5136930000000 1.0
C      1  0.4245410000000  0.5205590000000  0.5136830000000 1.0
C      1  0.4848200000000  0.5258660000000  0.4687300000000 1.0
C      1  0.5151670000000  0.5259100000000  0.4687370000000 1.0
C      1  0.5322070000000  0.4724800000000  0.4470580000000 1.0
C      1  0.4677860000000  0.4724740000000  0.4470570000000 1.0
C      1  0.4837920000000  0.5237800000000  0.5719090000000 1.0
C      1  0.5162100000000  0.5237970000000  0.5719010000000 1.0
C      1  0.5154490000000  0.5014560000000  0.5142790000000 1.0
C      1  0.4845380000000  0.5014570000000  0.5142560000000 1.0
END
