TITL C-3985253-1688-862 -7.59944071070029e-06 125000 -349.020701597739 0 0 60 (C1) n - 1
REM
REM in /home/nfs/bkarasulu/CARBON/AIRSS/Generating-Clusters/TERSOFF/Higher-Symm/Only-C60
REM
REM
REM
REM
REM
REM ./C.cell (28575a23ae977d3b5fae324c64b13b57)
REM
REM compiler GCC version 9.2.1 20190827 (Red Hat 9.2.1-1)
REM options -cpp -mtune=generic -march=x86-64 -g -O0 -fpre-include=/usr/include/finclude/math-vector-fortran.h
REM seed 1457634733 -748508388 -2127933306 1292805036 -2066931282 2053445751 -517396921 754322970 -1857993481 -777727354 1302870999 -68512847 -1919024198 225371329 -2103512576 -1000973350 -184167467 -730399998 -1727415197 -779192478 266919936 1753417889 -538147015 -1093180687 2030188983 289455181 -1520173679 -1016511689 1161195889 -550288415 52574008 -1375744113 -1909530778
REM
CELL 1.54180   50.00000   50.00000   50.00000   90.00000   90.00000   90.00000
LATT -1
SFAC C  
C      1  0.5123790000000  0.5058870000000  0.5248850000000 1.0
C      1  0.5011750000000  0.5573650000000  0.4615410000000 1.0
C      1  0.4303480000000  0.4949300000000  0.4850030000000 1.0
C      1  0.4575740000000  0.5286910000000  0.4437930000000 1.0
C      1  0.4905100000000  0.4100160000000  0.4883220000000 1.0
C      1  0.5608330000000  0.4926210000000  0.4978010000000 1.0
C      1  0.4870420000000  0.4673420000000  0.5249270000000 1.0
C      1  0.5671100000000  0.4670620000000  0.4815400000000 1.0
C      1  0.4939120000000  0.5132370000000  0.4775270000000 1.0
C      1  0.4765420000000  0.5720390000000  0.5347940000000 1.0
C      1  0.5044450000000  0.4713740000000  0.4447710000000 1.0
C      1  0.5000030000000  0.4704210000000  0.5732110000000 1.0
C      1  0.4493420000000  0.5084470000000  0.5311770000000 1.0
C      1  0.5297090000000  0.4333230000000  0.4584930000000 1.0
C      1  0.5230170000000  0.4835600000000  0.4624440000000 1.0
C      1  0.5505760000000  0.5253290000000  0.5650250000000 1.0
C      1  0.5470390000000  0.4953300000000  0.4490780000000 1.0
C      1  0.4590720000000  0.4504470000000  0.4796560000000 1.0
C      1  0.4710820000000  0.5250010000000  0.4911010000000 1.0
C      1  0.4582720000000  0.5499450000000  0.5484470000000 1.0
C      1  0.4787770000000  0.4741970000000  0.5534120000000 1.0
C      1  0.5239890000000  0.5228740000000  0.5743320000000 1.0
C      1  0.5167090000000  0.5164070000000  0.4966290000000 1.0
C      1  0.5211000000000  0.5381480000000  0.4455530000000 1.0
C      1  0.5575600000000  0.4923430000000  0.5271030000000 1.0
C      1  0.4570610000000  0.5642020000000  0.4855930000000 1.0
C      1  0.5704610000000  0.4784530000000  0.4542830000000 1.0
C      1  0.4349570000000  0.5469810000000  0.4996180000000 1.0
C      1  0.5474240000000  0.5430730000000  0.5171810000000 1.0
C      1  0.4420360000000  0.4750340000000  0.4635910000000 1.0
C      1  0.5020440000000  0.4422000000000  0.4507070000000 1.0
C      1  0.4702640000000  0.5525630000000  0.4594880000000 1.0
C      1  0.5282200000000  0.4721180000000  0.5666700000000 1.0
C      1  0.4819360000000  0.4326950000000  0.4706450000000 1.0
C      1  0.5386900000000  0.4691570000000  0.5390830000000 1.0
C      1  0.4601760000000  0.4975690000000  0.5571150000000 1.0
C      1  0.5550050000000  0.5208720000000  0.5369580000000 1.0
C      1  0.5155270000000  0.4760990000000  0.5185970000000 1.0
C      1  0.5076060000000  0.5704440000000  0.4889910000000 1.0
C      1  0.5439050000000  0.5153320000000  0.4858600000000 1.0
C      1  0.4984040000000  0.5176480000000  0.4481810000000 1.0
C      1  0.4875700000000  0.4915700000000  0.4311030000000 1.0
C      1  0.5374560000000  0.4282980000000  0.5075420000000 1.0
C      1  0.4950670000000  0.5483110000000  0.5283520000000 1.0
C      1  0.4673760000000  0.4715470000000  0.5026340000000 1.0
C      1  0.5428200000000  0.4443200000000  0.4834820000000 1.0
C      1  0.4757030000000  0.5254700000000  0.5191300000000 1.0
C      1  0.4430490000000  0.4871810000000  0.5109470000000 1.0
C      1  0.5465810000000  0.5247070000000  0.4564800000000 1.0
C      1  0.5194820000000  0.5548950000000  0.5130570000000 1.0
C      1  0.5459850000000  0.4410420000000  0.5322860000000 1.0
C      1  0.5033460000000  0.5171430000000  0.5550430000000 1.0
C      1  0.4418020000000  0.5223590000000  0.4821460000000 1.0
C      1  0.5141340000000  0.4095770000000  0.5073230000000 1.0
C      1  0.4741790000000  0.5244170000000  0.5610880000000 1.0
C      1  0.4620010000000  0.4967130000000  0.4487460000000 1.0
C      1  0.4801950000000  0.4866160000000  0.4767220000000 1.0
C      1  0.4785190000000  0.5770860000000  0.5026330000000 1.0
C      1  0.4369960000000  0.5383440000000  0.5290810000000 1.0
C      1  0.5259020000000  0.4696280000000  0.4890780000000 1.0
END
