TITL C-3985250-725-559 0.000417860403833498 125000 -338.350187419705 0 0 60 (C2v) n - 1
REM
REM in /home/nfs/bkarasulu/CARBON/AIRSS/Generating-Clusters/TERSOFF/Higher-Symm/Only-C60
REM
REM
REM
REM
REM
REM ./C.cell (28575a23ae977d3b5fae324c64b13b57)
REM
REM compiler GCC version 9.2.1 20190827 (Red Hat 9.2.1-1)
REM options -cpp -mtune=generic -march=x86-64 -g -O0 -fpre-include=/usr/include/finclude/math-vector-fortran.h
REM seed -1444373506 -328899214 -635500349 1317574440 -2073234512 254279985 -327571042 904133610 -307773871 1103157020 -1464559220 171969073 1030197318 -144005372 -70358966 1977284364 1440793790 -1537950279 13733833 1496351932 -876951832 -236263828 -519650730 -967703145 1680762910 -141811147 -1783152011 -425116675 32816600 624663386 357062126 -1356952542 1612422673
REM
CELL 1.54180   50.00000   50.00000   50.00000   90.00000   90.00000   90.00000
LATT -1
SFAC C  
C      1  0.5660280000000  0.4456200000000  0.4990700000000 1.0
C      1  0.4854190000000  0.4136450000000  0.5005300000000 1.0
C      1  0.4179520000000  0.4697370000000  0.4993910000000 1.0
C      1  0.4339730000000  0.5543800000000  0.4990700000000 1.0
C      1  0.5145810000000  0.5863550000000  0.5005300000000 1.0
C      1  0.5820490000000  0.5302640000000  0.4993900000000 1.0
C      1  0.4339770000000  0.4456220000000  0.4990720000000 1.0
C      1  0.5145810000000  0.4136500000000  0.5005310000000 1.0
C      1  0.5820470000000  0.4697390000000  0.4993910000000 1.0
C      1  0.5660230000000  0.5543780000000  0.4990720000000 1.0
C      1  0.4854190000000  0.5863500000000  0.5005310000000 1.0
C      1  0.4179530000000  0.5302620000000  0.4993910000000 1.0
C      1  0.4386130000000  0.5165100000000  0.4521850000000 1.0
C      1  0.4851620000000  0.5617140000000  0.4531410000000 1.0
C      1  0.5384820000000  0.5362850000000  0.4565160000000 1.0
C      1  0.5613870000000  0.4834910000000  0.4521850000000 1.0
C      1  0.5148380000000  0.4382860000000  0.4531410000000 1.0
C      1  0.4615180000000  0.4637150000000  0.4565160000000 1.0
C      1  0.5613870000000  0.5165100000000  0.4521850000000 1.0
C      1  0.5148370000000  0.5617140000000  0.4531410000000 1.0
C      1  0.4615170000000  0.5362850000000  0.4565160000000 1.0
C      1  0.4386130000000  0.4834900000000  0.4521850000000 1.0
C      1  0.4851630000000  0.4382860000000  0.4531410000000 1.0
C      1  0.5384840000000  0.4637150000000  0.4565160000000 1.0
C      1  0.5284870000000  0.5788420000000  0.5252040000000 1.0
C      1  0.5831380000000  0.5152300000000  0.5243690000000 1.0
C      1  0.5559170000000  0.4352260000000  0.5243550000000 1.0
C      1  0.4715130000000  0.4211570000000  0.5252040000000 1.0
C      1  0.4168630000000  0.4847710000000  0.5243690000000 1.0
C      1  0.4440840000000  0.5647730000000  0.5243560000000 1.0
C      1  0.4715170000000  0.5788250000000  0.5252050000000 1.0
C      1  0.4168710000000  0.5152260000000  0.5243710000000 1.0
C      1  0.4440920000000  0.4352330000000  0.5243590000000 1.0
C      1  0.5284830000000  0.4211770000000  0.5252050000000 1.0
C      1  0.5831270000000  0.4847740000000  0.5243710000000 1.0
C      1  0.5559080000000  0.5647670000000  0.5243590000000 1.0
C      1  0.5504710000000  0.4401450000000  0.4752500000000 1.0
C      1  0.4716900000000  0.4192220000000  0.4751870000000 1.0
C      1  0.4152530000000  0.4844490000000  0.4742110000000 1.0
C      1  0.4495290000000  0.5598550000000  0.4752500000000 1.0
C      1  0.5283100000000  0.5807780000000  0.4751870000000 1.0
C      1  0.5847470000000  0.5155510000000  0.4742110000000 1.0
C      1  0.4495320000000  0.4401460000000  0.4752510000000 1.0
C      1  0.5283100000000  0.4192230000000  0.4751880000000 1.0
C      1  0.5847470000000  0.4844510000000  0.4742120000000 1.0
C      1  0.5504680000000  0.5598540000000  0.4752510000000 1.0
C      1  0.4716900000000  0.5807780000000  0.4751880000000 1.0
C      1  0.4152530000000  0.5155490000000  0.4742120000000 1.0
C      1  0.4536450000000  0.5447760000000  0.5470230000000 1.0
C      1  0.5154510000000  0.5591280000000  0.5471460000000 1.0
C      1  0.5598150000000  0.5173280000000  0.5464120000000 1.0
C      1  0.5463550000000  0.4552230000000  0.5470230000000 1.0
C      1  0.4845480000000  0.4408680000000  0.5471480000000 1.0
C      1  0.4401870000000  0.4826720000000  0.5464120000000 1.0
C      1  0.5463530000000  0.5447650000000  0.5470310000000 1.0
C      1  0.4845610000000  0.5591040000000  0.5471420000000 1.0
C      1  0.4401970000000  0.5173320000000  0.5464150000000 1.0
C      1  0.4536480000000  0.4552340000000  0.5470310000000 1.0
C      1  0.5154370000000  0.4408990000000  0.5471420000000 1.0
C      1  0.5598000000000  0.4826680000000  0.5464150000000 1.0
END
