TITL C-3985245-9316-224 5.37665376465844e-08 125000 -347.260164725395 0 0 60 (C3h) n - 1
REM
REM in /home/nfs/bkarasulu/CARBON/AIRSS/Generating-Clusters/TERSOFF/Higher-Symm/Only-C60
REM
REM
REM
REM
REM
REM ./C.cell (28575a23ae977d3b5fae324c64b13b57)
REM
REM compiler GCC version 9.2.1 20190827 (Red Hat 9.2.1-1)
REM options -cpp -mtune=generic -march=x86-64 -g -O0 -fpre-include=/usr/include/finclude/math-vector-fortran.h
REM seed -196787980 389792900 1645585757 1312607898 1181048731 -281735769 1394096009 800354881 2082016175 -1986376396 -949955693 -1052538592 -1150436055 891849100 1329073418 -907215943 -1409297440 -1858985694 81162749 -1065911127 -516960819 -807082030 554286969 1864491791 -433261350 -1552750463 1625507724 1529836451 641878566 -339903032 631338689 -2115337569 -855479915
REM
CELL 1.54180   50.00000   50.00000   50.00000   90.00000   90.00000   90.00000
LATT -1
SFAC C  
C      1  0.4822820000000  0.5630400000000  0.4638970000000 1.0
C      1  0.4775930000000  0.5630400000000  0.5333960000000 1.0
C      1  0.5401260000000  0.5630400000000  0.5027070000000 1.0
C      1  0.4822820000000  0.4369600000000  0.4638970000000 1.0
C      1  0.4775930000000  0.4369600000000  0.5333960000000 1.0
C      1  0.5401260000000  0.4369600000000  0.5027070000000 1.0
C      1  0.4618840000000  0.4437290000000  0.5570190000000 1.0
C      1  0.5684380000000  0.4437290000000  0.5045000000000 1.0
C      1  0.4696780000000  0.4437290000000  0.4384810000000 1.0
C      1  0.4618840000000  0.5562710000000  0.5570190000000 1.0
C      1  0.5684380000000  0.5562710000000  0.5045000000000 1.0
C      1  0.4696780000000  0.5562710000000  0.4384810000000 1.0
C      1  0.5123720000000  0.4399650000000  0.4591240000000 1.0
C      1  0.4584140000000  0.4399650000000  0.5097240000000 1.0
C      1  0.5292140000000  0.4399650000000  0.5311520000000 1.0
C      1  0.5123720000000  0.5600350000000  0.4591240000000 1.0
C      1  0.4584140000000  0.5600350000000  0.5097240000000 1.0
C      1  0.5292140000000  0.5600350000000  0.5311520000000 1.0
C      1  0.5190370000000  0.5308130000000  0.4510700000000 1.0
C      1  0.4481070000000  0.5308130000000  0.5079790000000 1.0
C      1  0.5328570000000  0.5308130000000  0.5409520000000 1.0
C      1  0.5190370000000  0.4691870000000  0.4510700000000 1.0
C      1  0.4481070000000  0.4691870000000  0.5079790000000 1.0
C      1  0.5328570000000  0.4691870000000  0.5409520000000 1.0
C      1  0.4455170000000  0.5151260000000  0.5342240000000 1.0
C      1  0.5568800000000  0.5151260000000  0.5300710000000 1.0
C      1  0.4976030000000  0.5151260000000  0.4357050000000 1.0
C      1  0.4455170000000  0.4848740000000  0.5342240000000 1.0
C      1  0.5568800000000  0.4848740000000  0.5300710000000 1.0
C      1  0.4976030000000  0.4848740000000  0.4357050000000 1.0
C      1  0.5643080000000  0.5150220000000  0.4810740000000 1.0
C      1  0.4514560000000  0.5150220000000  0.4537700000000 1.0
C      1  0.4842360000000  0.5150220000000  0.5651550000000 1.0
C      1  0.5643080000000  0.4849780000000  0.4810740000000 1.0
C      1  0.4514560000000  0.4849780000000  0.4537700000000 1.0
C      1  0.4842360000000  0.4849780000000  0.5651550000000 1.0
C      1  0.4921180000000  0.5362540000000  0.5194120000000 1.0
C      1  0.5207520000000  0.5362540000000  0.4971200000000 1.0
C      1  0.4871290000000  0.5362540000000  0.4834680000000 1.0
C      1  0.4921180000000  0.4637460000000  0.5194120000000 1.0
C      1  0.5207520000000  0.4637460000000  0.4971200000000 1.0
C      1  0.4871290000000  0.4637460000000  0.4834680000000 1.0
C      1  0.4699450000000  0.5277760000000  0.4346330000000 1.0
C      1  0.4584180000000  0.5277760000000  0.5587120000000 1.0
C      1  0.5716370000000  0.5277760000000  0.5066550000000 1.0
C      1  0.4699450000000  0.4722240000000  0.4346330000000 1.0
C      1  0.4584180000000  0.4722240000000  0.5587120000000 1.0
C      1  0.5716370000000  0.4722240000000  0.5066550000000 1.0
C      1  0.5326010000000  0.4831270000000  0.4745930000000 1.0
C      1  0.4616960000000  0.4831270000000  0.4844710000000 1.0
C      1  0.5057030000000  0.4831270000000  0.5409370000000 1.0
C      1  0.5326010000000  0.5168730000000  0.4745930000000 1.0
C      1  0.4616960000000  0.5168730000000  0.4844710000000 1.0
C      1  0.5057030000000  0.5168730000000  0.5409370000000 1.0
C      1  0.4648380000000  0.4252050000000  0.4854500000000 1.0
C      1  0.5049810000000  0.4252050000000  0.5377260000000 1.0
C      1  0.5301810000000  0.4252050000000  0.4768240000000 1.0
C      1  0.4648380000000  0.5747950000000  0.4854500000000 1.0
C      1  0.5049810000000  0.5747950000000  0.5377260000000 1.0
C      1  0.5301810000000  0.5747950000000  0.4768240000000 1.0
END
