TITL C-3985259-1859-1195 -0.00214852195081388 125000 -323.028585226797 0 0 60 (Ci) n - 1
REM
REM in /home/nfs/bkarasulu/CARBON/AIRSS/Generating-Clusters/TERSOFF/Higher-Symm/Only-C60
REM
REM
REM
REM
REM
REM ./C.cell (28575a23ae977d3b5fae324c64b13b57)
REM
REM compiler GCC version 9.2.1 20190827 (Red Hat 9.2.1-1)
REM options -cpp -mtune=generic -march=x86-64 -g -O0 -fpre-include=/usr/include/finclude/math-vector-fortran.h
REM seed -1253808858 894061849 1745574792 -1536720794 376314923 -2058551006 -1487871385 -1946194089 991500696 1378800484 796493385 -777957491 -1710156763 391333026 -1462322258 85238697 -1385477224 -2125543873 -800196455 -762180395 -16680189 -1136563201 -1295197632 901142093 1263974061 -529788710 -1198758172 923140959 -1764608881 531864129 -2147161020 -1714882908 -1716072462
REM
CELL 1.54180   50.00000   50.00000   50.00000   90.00000   90.00000   90.00000
LATT -1
SFAC C  
C      1  0.5701100000000  0.4996750000000  0.5107540000000 1.0
C      1  0.4298890000000  0.5003260000000  0.4892470000000 1.0
C      1  0.5083470000000  0.5413200000000  0.5488570000000 1.0
C      1  0.4916530000000  0.4586800000000  0.4511450000000 1.0
C      1  0.4922200000000  0.4165520000000  0.4798220000000 1.0
C      1  0.5077810000000  0.5834480000000  0.5201760000000 1.0
C      1  0.5122440000000  0.4605210000000  0.5477640000000 1.0
C      1  0.4877580000000  0.5394780000000  0.4522370000000 1.0
C      1  0.4571610000000  0.5027500000000  0.5470740000000 1.0
C      1  0.5428390000000  0.4972500000000  0.4529260000000 1.0
C      1  0.5052990000000  0.4673590000000  0.4770340000000 1.0
C      1  0.4946760000000  0.5326270000000  0.5229670000000 1.0
C      1  0.4991760000000  0.5042990000000  0.5150420000000 1.0
C      1  0.5008230000000  0.4957010000000  0.4849580000000 1.0
C      1  0.4596300000000  0.5328100000000  0.5543230000000 1.0
C      1  0.5403710000000  0.4671900000000  0.4456760000000 1.0
C      1  0.5182590000000  0.4532650000000  0.5003100000000 1.0
C      1  0.4817430000000  0.5467380000000  0.4996910000000 1.0
C      1  0.4925210000000  0.5110800000000  0.4395910000000 1.0
C      1  0.5074800000000  0.4889200000000  0.5604080000000 1.0
C      1  0.4643430000000  0.4753350000000  0.4807110000000 1.0
C      1  0.5356510000000  0.5246670000000  0.5192890000000 1.0
C      1  0.4928730000000  0.4807960000000  0.4313180000000 1.0
C      1  0.5071280000000  0.5192040000000  0.5686830000000 1.0
C      1  0.4742040000000  0.5033400000000  0.4687170000000 1.0
C      1  0.5257940000000  0.4966620000000  0.5312840000000 1.0
C      1  0.5205010000000  0.4281410000000  0.4826720000000 1.0
C      1  0.4795000000000  0.5718600000000  0.5173290000000 1.0
C      1  0.4413220000000  0.5441890000000  0.5107890000000 1.0
C      1  0.5586810000000  0.4558120000000  0.4892100000000 1.0
C      1  0.4658210000000  0.4441920000000  0.4525810000000 1.0
C      1  0.5341780000000  0.5558050000000  0.5474160000000 1.0
C      1  0.4420290000000  0.4565570000000  0.4683400000000 1.0
C      1  0.5579690000000  0.5434440000000  0.5316600000000 1.0
C      1  0.4706320000000  0.4490650000000  0.5429150000000 1.0
C      1  0.5293690000000  0.5509330000000  0.4570850000000 1.0
C      1  0.5728610000000  0.5199030000000  0.4884320000000 1.0
C      1  0.4271390000000  0.4800970000000  0.5115690000000 1.0
C      1  0.4311760000000  0.4895610000000  0.5389960000000 1.0
C      1  0.5688240000000  0.5104390000000  0.4610050000000 1.0
C      1  0.5442810000000  0.4780230000000  0.5065600000000 1.0
C      1  0.4557170000000  0.5219730000000  0.4934380000000 1.0
C      1  0.5435670000000  0.5649670000000  0.4828820000000 1.0
C      1  0.4564330000000  0.4350310000000  0.5171170000000 1.0
C      1  0.5277460000000  0.5869400000000  0.4972640000000 1.0
C      1  0.4722550000000  0.4130600000000  0.5027350000000 1.0
C      1  0.5441140000000  0.4443610000000  0.4658560000000 1.0
C      1  0.4558860000000  0.5556400000000  0.5341430000000 1.0
C      1  0.5634780000000  0.5483000000000  0.4985490000000 1.0
C      1  0.4365280000000  0.4517050000000  0.5014490000000 1.0
C      1  0.4271170000000  0.4845650000000  0.4636770000000 1.0
C      1  0.5728920000000  0.5154320000000  0.5363290000000 1.0
C      1  0.4968110000000  0.4530820000000  0.5224870000000 1.0
C      1  0.5031900000000  0.5469170000000  0.4775150000000 1.0
C      1  0.4683550000000  0.5002010000000  0.5192540000000 1.0
C      1  0.5316570000000  0.4998160000000  0.4807470000000 1.0
C      1  0.5279550000000  0.5270230000000  0.4915210000000 1.0
C      1  0.4720420000000  0.4729770000000  0.5084750000000 1.0
C      1  0.5238460000000  0.5198720000000  0.4434830000000 1.0
C      1  0.4761550000000  0.4801270000000  0.5565160000000 1.0
END
