TITL C-3985259-1859-1304 -3.53579182363587e-07 125000 -336.298179533965 0 0 60 (C1) n - 1
REM
REM in /home/nfs/bkarasulu/CARBON/AIRSS/Generating-Clusters/TERSOFF/Higher-Symm/Only-C60
REM
REM
REM
REM
REM
REM ./C.cell (28575a23ae977d3b5fae324c64b13b57)
REM
REM compiler GCC version 9.2.1 20190827 (Red Hat 9.2.1-1)
REM options -cpp -mtune=generic -march=x86-64 -g -O0 -fpre-include=/usr/include/finclude/math-vector-fortran.h
REM seed 2040937036 -842773432 -531531852 1381395360 2092445666 23911800 -988878393 1125295759 -1842593858 -2076403232 1094198335 2083135378 908715322 -1304862157 -1566212609 -1353370443 874994108 -2012518254 1326105693 -1107697201 443565444 795905932 985503120 -1551949854 -671457838 1878268673 -652253837 -1608115096 1631947938 2131946387 1436034827 658904809 -1816155170
REM
CELL 1.54180   50.00000   50.00000   50.00000   90.00000   90.00000   90.00000
LATT -1
SFAC C  
C      1  0.5726730000000  0.4758680000000  0.5129180000000 1.0
C      1  0.5726460000000  0.5230500000000  0.5188990000000 1.0
C      1  0.5734650000000  0.5046390000000  0.4750550000000 1.0
C      1  0.4310550000000  0.4761470000000  0.4889010000000 1.0
C      1  0.4312690000000  0.5233290000000  0.4829150000000 1.0
C      1  0.4303770000000  0.5049240000000  0.5267610000000 1.0
C      1  0.5331360000000  0.5483660000000  0.4897930000000 1.0
C      1  0.5334300000000  0.4675610000000  0.4665830000000 1.0
C      1  0.5318830000000  0.4878620000000  0.5481540000000 1.0
C      1  0.4708790000000  0.5484900000000  0.5120190000000 1.0
C      1  0.4702650000000  0.4676890000000  0.5352370000000 1.0
C      1  0.4718930000000  0.4879770000000  0.4536630000000 1.0
C      1  0.4912810000000  0.5175060000000  0.4262080000000 1.0
C      1  0.4892030000000  0.4287700000000  0.5239110000000 1.0
C      1  0.4889130000000  0.5577720000000  0.5518980000000 1.0
C      1  0.5126120000000  0.5174700000000  0.5756070000000 1.0
C      1  0.5143380000000  0.4287180000000  0.4779130000000 1.0
C      1  0.5151390000000  0.5577150000000  0.4499130000000 1.0
C      1  0.4345300000000  0.4515110000000  0.5064990000000 1.0
C      1  0.4340520000000  0.5324080000000  0.5394010000000 1.0
C      1  0.4357120000000  0.5204580000000  0.4529050000000 1.0
C      1  0.5691010000000  0.4512450000000  0.4953220000000 1.0
C      1  0.5698990000000  0.5321360000000  0.4624130000000 1.0
C      1  0.5681920000000  0.5202000000000  0.5489100000000 1.0
C      1  0.4602940000000  0.4809590000000  0.4803140000000 1.0
C      1  0.4594000000000  0.4945020000000  0.5276840000000 1.0
C      1  0.4601600000000  0.5287600000000  0.4922750000000 1.0
C      1  0.5434530000000  0.4807960000000  0.5215040000000 1.0
C      1  0.5444010000000  0.4943310000000  0.4741330000000 1.0
C      1  0.5437770000000  0.5285950000000  0.5095390000000 1.0
C      1  0.5318570000000  0.5368860000000  0.5349770000000 1.0
C      1  0.5333880000000  0.5124460000000  0.4539230000000 1.0
C      1  0.5320740000000  0.4544580000000  0.5156090000000 1.0
C      1  0.4721130000000  0.5370010000000  0.4668370000000 1.0
C      1  0.4704850000000  0.5125750000000  0.5478930000000 1.0
C      1  0.4715690000000  0.4545770000000  0.4862110000000 1.0
C      1  0.4933260000000  0.5572810000000  0.4690260000000 1.0
C      1  0.4931230000000  0.4459140000000  0.4681430000000 1.0
C      1  0.4913460000000  0.5008340000000  0.5650120000000 1.0
C      1  0.5107240000000  0.5572500000000  0.5327860000000 1.0
C      1  0.5104860000000  0.4458830000000  0.5336790000000 1.0
C      1  0.5124800000000  0.5007870000000  0.4368050000000 1.0
C      1  0.4662790000000  0.5175720000000  0.4429850000000 1.0
C      1  0.4647340000000  0.4437580000000  0.5147880000000 1.0
C      1  0.4643870000000  0.5428620000000  0.5428020000000 1.0
C      1  0.5376140000000  0.5174360000000  0.5588300000000 1.0
C      1  0.5388670000000  0.4436100000000  0.4870330000000 1.0
C      1  0.5396060000000  0.5427090000000  0.4590110000000 1.0
C      1  0.5028830000000  0.4707980000000  0.4480540000000 1.0
C      1  0.5008250000000  0.4708060000000  0.5537650000000 1.0
C      1  0.5020350000000  0.5623700000000  0.5009050000000 1.0
C      1  0.5328350000000  0.5012620000000  0.5015100000000 1.0
C      1  0.4709940000000  0.5013840000000  0.5003060000000 1.0
C      1  0.6161150000000  0.5011050000000  0.5031330000000 1.0
C      1  0.3877130000000  0.5015570000000  0.4986840000000 1.0
C      1  0.4170260000000  0.5014950000000  0.4992560000000 1.0
C      1  0.5868030000000  0.5011590000000  0.5025610000000 1.0
C      1  0.6329520000000  0.4857010000000  0.4853280000000 1.0
C      1  0.3708750000000  0.4829370000000  0.5130910000000 1.0
C      1  0.5019140000000  0.5013160000000  0.5009080000000 1.0
END
