TITL C-3985254-1270-2031 -2.59177171663459e-06 125000 -312.421272709442 0 0 60 (C1) n - 1
REM
REM in /home/nfs/bkarasulu/CARBON/AIRSS/Generating-Clusters/TERSOFF/Higher-Symm/Only-C60
REM
REM
REM
REM
REM
REM ./C.cell (28575a23ae977d3b5fae324c64b13b57)
REM
REM compiler GCC version 9.2.1 20190827 (Red Hat 9.2.1-1)
REM options -cpp -mtune=generic -march=x86-64 -g -O0 -fpre-include=/usr/include/finclude/math-vector-fortran.h
REM seed -857819890 -1308854287 -2096635658 1213112914 -921967064 -320449306 1928953913 318152729 330290404 1905189043 -2002083220 -2080923041 -764307694 541392253 -2118405388 939711417 -2108189908 696269349 -1983947992 799571933 -866396255 -2098520577 -1086265524 1172511416 1363097350 -1505191986 1361767269 -2107440499 -1599150594 693954102 59543738 730543168 -2100607105
REM
CELL 1.54180   50.00000   50.00000   50.00000   90.00000   90.00000   90.00000
LATT -1
SFAC C  
C      1  0.5206540000000  0.5100840000000  0.5732400000000 1.0
C      1  0.4849230000000  0.5481100000000  0.5504930000000 1.0
C      1  0.5476710000000  0.4671730000000  0.5320270000000 1.0
C      1  0.5578180000000  0.5396170000000  0.4860520000000 1.0
C      1  0.5188080000000  0.5338910000000  0.5004080000000 1.0
C      1  0.5626380000000  0.4882180000000  0.4848510000000 1.0
C      1  0.4570750000000  0.5118870000000  0.4591330000000 1.0
C      1  0.5252080000000  0.4456080000000  0.4976670000000 1.0
C      1  0.4687250000000  0.5665450000000  0.5067780000000 1.0
C      1  0.5391540000000  0.4787390000000  0.5031370000000 1.0
C      1  0.5465310000000  0.5118090000000  0.5481400000000 1.0
C      1  0.4964300000000  0.4685040000000  0.5463770000000 1.0
C      1  0.4592680000000  0.5326040000000  0.5492080000000 1.0
C      1  0.4750440000000  0.4909290000000  0.4497940000000 1.0
C      1  0.5544070000000  0.5553940000000  0.5108350000000 1.0
C      1  0.4954880000000  0.4913930000000  0.5728650000000 1.0
C      1  0.4917380000000  0.4417900000000  0.4561490000000 1.0
C      1  0.4958270000000  0.4543600000000  0.5132620000000 1.0
C      1  0.4641710000000  0.5035280000000  0.5643180000000 1.0
C      1  0.4627440000000  0.4753970000000  0.5484170000000 1.0
C      1  0.5253070000000  0.4555030000000  0.5464470000000 1.0
C      1  0.5097900000000  0.4757550000000  0.4209760000000 1.0
C      1  0.4567050000000  0.4891430000000  0.5037370000000 1.0
C      1  0.4799750000000  0.4371290000000  0.5480440000000 1.0
C      1  0.4452850000000  0.4697060000000  0.5239560000000 1.0
C      1  0.4908900000000  0.5662900000000  0.5266040000000 1.0
C      1  0.5293450000000  0.5499030000000  0.5440000000000 1.0
C      1  0.5736380000000  0.5149950000000  0.4886680000000 1.0
C      1  0.5305100000000  0.5065770000000  0.5198350000000 1.0
C      1  0.5033220000000  0.5520690000000  0.4573520000000 1.0
C      1  0.5002130000000  0.4283030000000  0.4807290000000 1.0
C      1  0.5022640000000  0.5017070000000  0.5328050000000 1.0
C      1  0.4699430000000  0.4606200000000  0.4583940000000 1.0
C      1  0.5248610000000  0.4783780000000  0.4600400000000 1.0
C      1  0.5012840000000  0.5028690000000  0.4340690000000 1.0
C      1  0.5628380000000  0.4869450000000  0.5473230000000 1.0
C      1  0.4252920000000  0.4740610000000  0.4740160000000 1.0
C      1  0.4631570000000  0.5129510000000  0.5231690000000 1.0
C      1  0.4833970000000  0.4748460000000  0.4955260000000 1.0
C      1  0.4744020000000  0.4313050000000  0.5173150000000 1.0
C      1  0.5555350000000  0.5056810000000  0.4385210000000 1.0
C      1  0.5087490000000  0.4892310000000  0.4855980000000 1.0
C      1  0.5088850000000  0.5307000000000  0.5531820000000 1.0
C      1  0.4916440000000  0.5349770000000  0.4330190000000 1.0
C      1  0.4377640000000  0.5266530000000  0.5028790000000 1.0
C      1  0.5285090000000  0.5373850000000  0.4696060000000 1.0
C      1  0.5206580000000  0.5626640000000  0.5166340000000 1.0
C      1  0.4627440000000  0.5413050000000  0.4450680000000 1.0
C      1  0.4495620000000  0.4447510000000  0.5064710000000 1.0
C      1  0.4363760000000  0.5012300000000  0.4803860000000 1.0
C      1  0.5589510000000  0.5406090000000  0.5418880000000 1.0
C      1  0.4921020000000  0.5154240000000  0.5019000000000 1.0
C      1  0.4459070000000  0.4533290000000  0.4764830000000 1.0
C      1  0.5292550000000  0.5175450000000  0.4455400000000 1.0
C      1  0.4750480000000  0.5585370000000  0.4749260000000 1.0
C      1  0.5378180000000  0.4388970000000  0.4654950000000 1.0
C      1  0.5161540000000  0.4527250000000  0.4425430000000 1.0
C      1  0.5537850000000  0.4836180000000  0.4577040000000 1.0
C      1  0.4676530000000  0.5288970000000  0.4847670000000 1.0
C      1  0.4461630000000  0.5512080000000  0.5212350000000 1.0
END
