TITL C-3985259-1859-1038 -0.000105625980471463 125000 -339.986124804442 0 0 60 (S4) n - 1
REM
REM in /home/nfs/bkarasulu/CARBON/AIRSS/Generating-Clusters/TERSOFF/Higher-Symm/Only-C60
REM
REM
REM
REM
REM
REM ./C.cell (28575a23ae977d3b5fae324c64b13b57)
REM
REM compiler GCC version 9.2.1 20190827 (Red Hat 9.2.1-1)
REM options -cpp -mtune=generic -march=x86-64 -g -O0 -fpre-include=/usr/include/finclude/math-vector-fortran.h
REM seed -832421544 1228855734 387005494 2100041175 320048127 -181821396 -1850445341 1655849325 268759761 -1786708877 1104999845 -1095936964 -1501908572 -1181987657 -816854080 -1094944724 1474646015 242095208 -1723371087 1901531381 1963785446 2053988533 678456106 -1841844616 -1483898438 -598994211 737945910 1665423962 -261275672 -842694808 -1363683203 827157762 1482523789
REM
CELL 1.54180   50.00000   50.00000   50.00000   90.00000   90.00000   90.00000
LATT -1
SFAC C  
C      1  0.4573550000000  0.4611310000000  0.5437530000000 1.0
C      1  0.5437530000000  0.5388690000000  0.5426450000000 1.0
C      1  0.5426450000000  0.4611310000000  0.4562470000000 1.0
C      1  0.4562470000000  0.5388690000000  0.4573550000000 1.0
C      1  0.4817430000000  0.4889210000000  0.4825970000000 1.0
C      1  0.4825860000000  0.5110780000000  0.5182580000000 1.0
C      1  0.5182650000000  0.4889190000000  0.5174090000000 1.0
C      1  0.5174150000000  0.5110780000000  0.4817300000000 1.0
C      1  0.5331080000000  0.5330800000000  0.4412270000000 1.0
C      1  0.4412270000000  0.4669200000000  0.4668920000000 1.0
C      1  0.4668920000000  0.5330800000000  0.5587730000000 1.0
C      1  0.5587730000000  0.4669200000000  0.5331080000000 1.0
C      1  0.4331360000000  0.4984750000000  0.5031880000000 1.0
C      1  0.5031880000000  0.5015250000000  0.5668640000000 1.0
C      1  0.5668640000000  0.4984750000000  0.4968120000000 1.0
C      1  0.4968120000000  0.5015250000000  0.4331360000000 1.0
C      1  0.5225670000000  0.4807200000000  0.4879990000000 1.0
C      1  0.4879990000000  0.5192800000000  0.4774320000000 1.0
C      1  0.4774290000000  0.4807190000000  0.5120010000000 1.0
C      1  0.5120000000000  0.5192820000000  0.5225740000000 1.0
C      1  0.4675840000000  0.4947770000000  0.4326940000000 1.0
C      1  0.4326940000000  0.5052230000000  0.5324160000000 1.0
C      1  0.5324160000000  0.4947770000000  0.5673060000000 1.0
C      1  0.5673060000000  0.5052230000000  0.4675840000000 1.0
C      1  0.4864540000000  0.5425190000000  0.4557610000000 1.0
C      1  0.4557610000000  0.4574810000000  0.5135460000000 1.0
C      1  0.5135460000000  0.5425190000000  0.5442390000000 1.0
C      1  0.5442390000000  0.4574810000000  0.4864540000000 1.0
C      1  0.4975800000000  0.5651750000000  0.4721760000000 1.0
C      1  0.4721760000000  0.4348250000000  0.5024200000000 1.0
C      1  0.5024200000000  0.5651750000000  0.5278240000000 1.0
C      1  0.5278240000000  0.4348250000000  0.4975800000000 1.0
C      1  0.5508680000000  0.4935110000000  0.5434310000000 1.0
C      1  0.5434270000000  0.5064900000000  0.4491370000000 1.0
C      1  0.4491300000000  0.4935110000000  0.4565670000000 1.0
C      1  0.4565710000000  0.5064900000000  0.5508650000000 1.0
C      1  0.5312230000000  0.5312720000000  0.4984540000000 1.0
C      1  0.4984530000000  0.4687280000000  0.4687780000000 1.0
C      1  0.4687780000000  0.5312720000000  0.5015470000000 1.0
C      1  0.5015470000000  0.4687280000000  0.5312220000000 1.0
C      1  0.5422130000000  0.4439850000000  0.5409900000000 1.0
C      1  0.5409900000000  0.5560150000000  0.4577870000000 1.0
C      1  0.4577870000000  0.4439850000000  0.4590100000000 1.0
C      1  0.4590100000000  0.5560150000000  0.5422130000000 1.0
C      1  0.5217480000000  0.5769130000000  0.5090790000000 1.0
C      1  0.5090790000000  0.4230870000000  0.4782520000000 1.0
C      1  0.4782520000000  0.5769130000000  0.4909210000000 1.0
C      1  0.4909210000000  0.4230870000000  0.5217480000000 1.0
C      1  0.5041810000000  0.5300320000000  0.4352710000000 1.0
C      1  0.4352710000000  0.4699680000000  0.4958190000000 1.0
C      1  0.4958190000000  0.5300320000000  0.5647290000000 1.0
C      1  0.5647290000000  0.4699680000000  0.5041810000000 1.0
C      1  0.5156830000000  0.4398430000000  0.5267990000000 1.0
C      1  0.5267990000000  0.5601570000000  0.4843170000000 1.0
C      1  0.4843170000000  0.4398430000000  0.4732010000000 1.0
C      1  0.4732010000000  0.5601570000000  0.5156830000000 1.0
C      1  0.5206110000000  0.4808130000000  0.4445980000000 1.0
C      1  0.4445980000000  0.5191870000000  0.4793890000000 1.0
C      1  0.4793890000000  0.4808130000000  0.5554020000000 1.0
C      1  0.5554020000000  0.5191870000000  0.5206110000000 1.0
END
