TITL C-3985250-725-1255 0.0116177392742214 125000 -291.410626260254 0 0 60 (C1) n - 1
REM
REM in /home/nfs/bkarasulu/CARBON/AIRSS/Generating-Clusters/TERSOFF/Higher-Symm/Only-C60
REM
REM
REM
REM
REM
REM ./C.cell (28575a23ae977d3b5fae324c64b13b57)
REM
REM compiler GCC version 9.2.1 20190827 (Red Hat 9.2.1-1)
REM options -cpp -mtune=generic -march=x86-64 -g -O0 -fpre-include=/usr/include/finclude/math-vector-fortran.h
REM seed 1283264454 -1581387215 2101286508 1805461217 1505337182 1386508541 728053136 -1315381581 682588366 -1743871350 17125967 1454736210 240618879 -888306917 -173354547 -766211905 -102993080 1224582499 -1509092895 -731316940 1303501343 -923118444 -1466667227 -426931494 160478731 -1327684684 541110587 -1812898869 -55326665 -2037310170 1990646775 -1925095091 166540912
REM
CELL 1.54180   50.00000   50.00000   50.00000   90.00000   90.00000   90.00000
LATT -1
SFAC C  
C      1  0.5383960000000  0.5600960000000  0.5318520000000 1.0
C      1  0.4461120000000  0.4628450000000  0.5060670000000 1.0
C      1  0.4462590000000  0.5421580000000  0.5334000000000 1.0
C      1  0.4748150000000  0.4312830000000  0.5332860000000 1.0
C      1  0.4412250000000  0.5233720000000  0.5082540000000 1.0
C      1  0.4761260000000  0.5622960000000  0.5332690000000 1.0
C      1  0.4718690000000  0.4799080000000  0.4333390000000 1.0
C      1  0.5218120000000  0.4929530000000  0.4922430000000 1.0
C      1  0.5357300000000  0.5389080000000  0.5564720000000 1.0
C      1  0.5304380000000  0.5277680000000  0.4873840000000 1.0
C      1  0.4689020000000  0.4814870000000  0.4968410000000 1.0
C      1  0.5550880000000  0.5394490000000  0.5071720000000 1.0
C      1  0.5758800000000  0.4698060000000  0.4816410000000 1.0
C      1  0.5402450000000  0.4854680000000  0.5223230000000 1.0
C      1  0.4953380000000  0.5125590000000  0.5060270000000 1.0
C      1  0.5713910000000  0.5225760000000  0.4804390000000 1.0
C      1  0.4919850000000  0.5291810000000  0.4331460000000 1.0
C      1  0.5718130000000  0.4917970000000  0.5201900000000 1.0
C      1  0.5091450000000  0.5283940000000  0.5257540000000 1.0
C      1  0.5191560000000  0.5140950000000  0.4311640000000 1.0
C      1  0.4517940000000  0.5163900000000  0.4646810000000 1.0
C      1  0.4919910000000  0.5544760000000  0.4776600000000 1.0
C      1  0.5072740000000  0.4856180000000  0.4284420000000 1.0
C      1  0.5078020000000  0.5360190000000  0.5682720000000 1.0
C      1  0.4603080000000  0.4455960000000  0.4772290000000 1.0
C      1  0.4465810000000  0.4709480000000  0.4580770000000 1.0
C      1  0.4658990000000  0.5026240000000  0.5562290000000 1.0
C      1  0.5395060000000  0.5184050000000  0.5289390000000 1.0
C      1  0.4846150000000  0.4547620000000  0.4516960000000 1.0
C      1  0.4955880000000  0.5261920000000  0.4637030000000 1.0
C      1  0.4952490000000  0.5133550000000  0.5527120000000 1.0
C      1  0.5251580000000  0.4694610000000  0.5442370000000 1.0
C      1  0.4880090000000  0.5573300000000  0.5624070000000 1.0
C      1  0.4983930000000  0.4440630000000  0.5213660000000 1.0
C      1  0.5492590000000  0.4346020000000  0.5214900000000 1.0
C      1  0.4552820000000  0.4528320000000  0.5350090000000 1.0
C      1  0.5096600000000  0.5707540000000  0.5229610000000 1.0
C      1  0.5823340000000  0.4970020000000  0.4929240000000 1.0
C      1  0.4676230000000  0.4716920000000  0.5562110000000 1.0
C      1  0.4419220000000  0.5169670000000  0.5496440000000 1.0
C      1  0.4341100000000  0.4937370000000  0.4727940000000 1.0
C      1  0.4913540000000  0.4788530000000  0.5176900000000 1.0
C      1  0.5451940000000  0.5217690000000  0.4549960000000 1.0
C      1  0.5093040000000  0.4650740000000  0.4724150000000 1.0
C      1  0.5239420000000  0.4644450000000  0.4402390000000 1.0
C      1  0.5412540000000  0.4932470000000  0.4661020000000 1.0
C      1  0.4650120000000  0.5256400000000  0.4921190000000 1.0
C      1  0.5246920000000  0.4402760000000  0.5368250000000 1.0
C      1  0.4267110000000  0.4911270000000  0.5057940000000 1.0
C      1  0.4662510000000  0.5109880000000  0.4378880000000 1.0
C      1  0.5022420000000  0.4817820000000  0.5581060000000 1.0
C      1  0.5555610000000  0.4670360000000  0.4537480000000 1.0
C      1  0.4215240000000  0.4997400000000  0.5366050000000 1.0
C      1  0.5121000000000  0.5509710000000  0.4985160000000 1.0
C      1  0.5380220000000  0.4522150000000  0.4777160000000 1.0
C      1  0.4699150000000  0.5555020000000  0.4991380000000 1.0
C      1  0.4943260000000  0.5776220000000  0.4597690000000 1.0
C      1  0.4856530000000  0.4922390000000  0.4708070000000 1.0
C      1  0.5533950000000  0.4580520000000  0.5033130000000 1.0
C      1  0.4934690000000  0.4442000000000  0.4912660000000 1.0
END
