TITL C-3985246-2097-172 5.11982964778277e-06 125000 -323.498478844885 0 0 60 (D5) n - 1
REM
REM in /home/nfs/bkarasulu/CARBON/AIRSS/Generating-Clusters/TERSOFF/Higher-Symm/Only-C60
REM
REM
REM
REM
REM
REM ./C.cell (28575a23ae977d3b5fae324c64b13b57)
REM
REM compiler GCC version 9.2.1 20190827 (Red Hat 9.2.1-1)
REM options -cpp -mtune=generic -march=x86-64 -g -O0 -fpre-include=/usr/include/finclude/math-vector-fortran.h
REM seed -551467267 923380060 -609896148 111184500 -2059580668 -253947799 -510578504 -251199958 -562041492 -744342895 1584197801 481700669 -2130050631 -1992424876 -1538355797 1879328997 222478930 577168425 -2008419679 278818259 -251802080 -10934190 -1796458788 669518871 1470975920 1456531450 1212184943 1664316383 1377920752 -300513816 32016063 -1553955476 2065091689
REM
CELL 1.54180   50.00000   50.00000   50.00000   90.00000   90.00000   90.00000
LATT -1
SFAC C  
C      1  0.5165300000000  0.5224110000000  0.5187520000000 1.0
C      1  0.5229440000000  0.5224130000000  0.4900720000000 1.0
C      1  0.4976500000000  0.5224160000000  0.4751100000000 1.0
C      1  0.4756040000000  0.5224140000000  0.4945420000000 1.0
C      1  0.4872720000000  0.5224110000000  0.5215140000000 1.0
C      1  0.5165300000000  0.4775890000000  0.4812470000000 1.0
C      1  0.5229440000000  0.4775850000000  0.5099280000000 1.0
C      1  0.4976500000000  0.4775830000000  0.5248910000000 1.0
C      1  0.4756030000000  0.4775850000000  0.5054580000000 1.0
C      1  0.4872710000000  0.4775880000000  0.4784860000000 1.0
C      1  0.4749080000000  0.4334580000000  0.5064240000000 1.0
C      1  0.4983560000000  0.4334580000000  0.5258490000000 1.0
C      1  0.5240760000000  0.4334590000000  0.5095520000000 1.0
C      1  0.5165240000000  0.4334610000000  0.4800540000000 1.0
C      1  0.4861370000000  0.4334600000000  0.4781210000000 1.0
C      1  0.4749080000000  0.5665420000000  0.4935760000000 1.0
C      1  0.4983550000000  0.5665420000000  0.4741510000000 1.0
C      1  0.5240770000000  0.5665410000000  0.4904490000000 1.0
C      1  0.5165240000000  0.5665400000000  0.5199460000000 1.0
C      1  0.4861370000000  0.5665400000000  0.5218790000000 1.0
C      1  0.4485500000000  0.4725960000000  0.4623090000000 1.0
C      1  0.4482550000000  0.4725930000000  0.5372850000000 1.0
C      1  0.5194690000000  0.4725930000000  0.5607350000000 1.0
C      1  0.5637790000000  0.4725950000000  0.5002520000000 1.0
C      1  0.5199470000000  0.4725950000000  0.4394210000000 1.0
C      1  0.4485500000000  0.5274040000000  0.5376910000000 1.0
C      1  0.4482550000000  0.5274060000000  0.4627150000000 1.0
C      1  0.5194690000000  0.5274060000000  0.4392650000000 1.0
C      1  0.5637790000000  0.5274070000000  0.4997490000000 1.0
C      1  0.5199470000000  0.5274040000000  0.5605790000000 1.0
C      1  0.5567290000000  0.4999560000000  0.5209740000000 1.0
C      1  0.5374770000000  0.4999590000000  0.4525310000000 1.0
C      1  0.4664350000000  0.4999580000000  0.4496890000000 1.0
C      1  0.4417780000000  0.4999580000000  0.5163760000000 1.0
C      1  0.4975830000000  0.4999560000000  0.5604350000000 1.0
C      1  0.5567280000000  0.5000430000000  0.4790260000000 1.0
C      1  0.5374760000000  0.5000430000000  0.5474690000000 1.0
C      1  0.4664350000000  0.5000420000000  0.5503110000000 1.0
C      1  0.4417780000000  0.5000420000000  0.4836250000000 1.0
C      1  0.4975830000000  0.5000440000000  0.4395660000000 1.0
C      1  0.5591640000000  0.5414580000000  0.5269280000000 1.0
C      1  0.5438950000000  0.5414610000000  0.4520520000000 1.0
C      1  0.4679630000000  0.5414610000000  0.4434370000000 1.0
C      1  0.4363060000000  0.5414600000000  0.5129900000000 1.0
C      1  0.4926720000000  0.5414580000000  0.5645900000000 1.0
C      1  0.5591650000000  0.4585410000000  0.4730710000000 1.0
C      1  0.5438950000000  0.4585390000000  0.5479480000000 1.0
C      1  0.4679630000000  0.4585390000000  0.5565630000000 1.0
C      1  0.4363060000000  0.4585400000000  0.4870100000000 1.0
C      1  0.4926720000000  0.4585420000000  0.4354110000000 1.0
C      1  0.4760560000000  0.5439630000000  0.5406660000000 1.0
C      1  0.5312770000000  0.5439620000000  0.5353390000000 1.0
C      1  0.5432760000000  0.5439650000000  0.4811740000000 1.0
C      1  0.4954680000000  0.5439670000000  0.4530240000000 1.0
C      1  0.4539240000000  0.5439660000000  0.4897930000000 1.0
C      1  0.4760560000000  0.4560380000000  0.4593340000000 1.0
C      1  0.5312760000000  0.4560390000000  0.4646620000000 1.0
C      1  0.5432750000000  0.4560360000000  0.5188260000000 1.0
C      1  0.4954680000000  0.4560330000000  0.5469760000000 1.0
C      1  0.4539240000000  0.4560340000000  0.5102060000000 1.0
END
