TITL C-3985251-913-477 -3.7198493057559e-07 125000 -344.622877829605 0 0 60 (C2v) n - 1
REM
REM in /home/nfs/bkarasulu/CARBON/AIRSS/Generating-Clusters/TERSOFF/Higher-Symm/Only-C60
REM
REM
REM
REM
REM
REM ./C.cell (28575a23ae977d3b5fae324c64b13b57)
REM
REM compiler GCC version 9.2.1 20190827 (Red Hat 9.2.1-1)
REM options -cpp -mtune=generic -march=x86-64 -g -O0 -fpre-include=/usr/include/finclude/math-vector-fortran.h
REM seed -1644209136 2010762138 1241108297 767660998 -1010547624 -1446216058 121414138 -2075799727 -1131435047 1508874472 1491167826 975892083 880849259 338667286 978617532 328642892 -1350532910 1525469390 322500749 1093395684 -863728229 -562394819 -29979722 503411388 1204725747 -91981976 -626708510 53094829 593534288 -1917309759 700788355 2019015349 38129940
REM
CELL 1.54180   50.00000   50.00000   50.00000   90.00000   90.00000   90.00000
LATT -1
SFAC C  
C      1  0.5610490000000  0.5290600000000  0.4890170000000 1.0
C      1  0.4389510000000  0.4709400000000  0.4890170000000 1.0
C      1  0.5610490000000  0.4709400000000  0.4890170000000 1.0
C      1  0.4389510000000  0.5290600000000  0.4890170000000 1.0
C      1  0.5170750000000  0.4333190000000  0.5303680000000 1.0
C      1  0.4829250000000  0.5666810000000  0.5303680000000 1.0
C      1  0.5170750000000  0.5666810000000  0.5303680000000 1.0
C      1  0.4829250000000  0.4333190000000  0.5303680000000 1.0
C      1  0.5158850000000  0.4843110000000  0.4240620000000 1.0
C      1  0.4841150000000  0.5156890000000  0.4240620000000 1.0
C      1  0.5158850000000  0.5156890000000  0.4240620000000 1.0
C      1  0.4841150000000  0.4843110000000  0.4240620000000 1.0
C      1  0.5319580000000  0.4853040000000  0.5560010000000 1.0
C      1  0.4680420000000  0.5146960000000  0.5560010000000 1.0
C      1  0.5319580000000  0.5146960000000  0.5560010000000 1.0
C      1  0.4680420000000  0.4853040000000  0.5560010000000 1.0
C      1  0.5170850000000  0.4819600000000  0.4961140000000 1.0
C      1  0.4829150000000  0.5180400000000  0.4961140000000 1.0
C      1  0.5170850000000  0.5180400000000  0.4961140000000 1.0
C      1  0.4829150000000  0.4819600000000  0.4961140000000 1.0
C      1  0.4421480000000  0.4433390000000  0.5012890000000 1.0
C      1  0.5578520000000  0.5566610000000  0.5012890000000 1.0
C      1  0.4421480000000  0.5566610000000  0.5012890000000 1.0
C      1  0.5578520000000  0.4433390000000  0.5012890000000 1.0
C      1  0.4751190000000  0.5667810000000  0.4773530000000 1.0
C      1  0.5248810000000  0.4332190000000  0.4773530000000 1.0
C      1  0.4751190000000  0.4332190000000  0.4773530000000 1.0
C      1  0.5248810000000  0.5667810000000  0.4773530000000 1.0
C      1  0.5147290000000  0.5297440000000  0.5743810000000 1.0
C      1  0.4852710000000  0.4702560000000  0.5743810000000 1.0
C      1  0.5147290000000  0.4702560000000  0.5743810000000 1.0
C      1  0.4852710000000  0.5297440000000  0.5743810000000 1.0
C      1  0.4364800000000  0.5141900000000  0.5154060000000 1.0
C      1  0.5635200000000  0.4858100000000  0.5154060000000 1.0
C      1  0.4364800000000  0.4858100000000  0.5154060000000 1.0
C      1  0.5635200000000  0.5141900000000  0.5154060000000 1.0
C      1  0.5152630000000  0.5571600000000  0.4516040000000 1.0
C      1  0.4847370000000  0.4428400000000  0.4516040000000 1.0
C      1  0.5152630000000  0.4428400000000  0.4516040000000 1.0
C      1  0.4847370000000  0.5571600000000  0.4516040000000 1.0
C      1  0.4491050000000  0.4712380000000  0.5381260000000 1.0
C      1  0.5508950000000  0.5287620000000  0.5381260000000 1.0
C      1  0.4491050000000  0.5287620000000  0.5381260000000 1.0
C      1  0.5508950000000  0.4712380000000  0.5381260000000 1.0
C      1  0.5385710000000  0.5164770000000  0.4703210000000 1.0
C      1  0.4614290000000  0.4835230000000  0.4703210000000 1.0
C      1  0.5385710000000  0.4835230000000  0.4703210000000 1.0
C      1  0.4614290000000  0.5164770000000  0.4703210000000 1.0
C      1  0.4718150000000  0.5311190000000  0.4456070000000 1.0
C      1  0.5281850000000  0.4688810000000  0.4456070000000 1.0
C      1  0.4718150000000  0.4688810000000  0.4456070000000 1.0
C      1  0.5281850000000  0.5311190000000  0.4456070000000 1.0
C      1  0.4844260000000  0.4479840000000  0.5010840000000 1.0
C      1  0.5155740000000  0.5520160000000  0.5010840000000 1.0
C      1  0.4844260000000  0.5520160000000  0.5010840000000 1.0
C      1  0.5155740000000  0.4479840000000  0.5010840000000 1.0
C      1  0.5462960000000  0.5569440000000  0.5292680000000 1.0
C      1  0.4537040000000  0.4430560000000  0.5292680000000 1.0
C      1  0.5462960000000  0.4430560000000  0.5292680000000 1.0
C      1  0.4537040000000  0.5569440000000  0.5292680000000 1.0
END
