TITL C-3985252-168-296 0.000242930767799483 125000 -348.749230871135 0 0 60 (C2) n - 1
REM
REM in /home/nfs/bkarasulu/CARBON/AIRSS/Generating-Clusters/TERSOFF/Higher-Symm/Only-C60
REM
REM
REM
REM
REM
REM ./C.cell (28575a23ae977d3b5fae324c64b13b57)
REM
REM compiler GCC version 9.2.1 20190827 (Red Hat 9.2.1-1)
REM options -cpp -mtune=generic -march=x86-64 -g -O0 -fpre-include=/usr/include/finclude/math-vector-fortran.h
REM seed 1601923854 1864565221 -565836072 -1050662617 -827651554 1217082299 1882621614 -306702577 1213670943 2109474328 1121949851 1239698810 -1268822149 975585106 -807361982 425658217 766621170 -1268228844 -165464512 -408577533 2021582863 -1675472270 77152329 1749175510 -1425583420 658738135 -1327862978 1962667514 -1891427880 2010844810 1934439329 -1612548164 -2061896412
REM
CELL 1.54180   50.00000   50.00000   50.00000   90.00000   90.00000   90.00000
LATT -1
SFAC C  
C      1  0.4711010000000  0.5630170000000  0.5192600000000 1.0
C      1  0.4710860000000  0.4369950000000  0.4807550000000 1.0
C      1  0.4488040000000  0.4944980000000  0.4664710000000 1.0
C      1  0.4488030000000  0.5054920000000  0.5335370000000 1.0
C      1  0.5596400000000  0.4572980000000  0.5117830000000 1.0
C      1  0.5596420000000  0.5427100000000  0.4882100000000 1.0
C      1  0.5068800000000  0.5069020000000  0.4856550000000 1.0
C      1  0.5068670000000  0.4931100000000  0.5143220000000 1.0
C      1  0.5316950000000  0.4431670000000  0.5143480000000 1.0
C      1  0.5316970000000  0.5568510000000  0.4856400000000 1.0
C      1  0.5195490000000  0.4986910000000  0.4357840000000 1.0
C      1  0.5195510000000  0.5013110000000  0.5642030000000 1.0
C      1  0.5116430000000  0.5504770000000  0.5773260000000 1.0
C      1  0.5116320000000  0.4495150000000  0.4226750000000 1.0
C      1  0.4332560000000  0.4874280000000  0.4918520000000 1.0
C      1  0.4332610000000  0.5125580000000  0.5081570000000 1.0
C      1  0.5700710000000  0.4962200000000  0.4853480000000 1.0
C      1  0.5700700000000  0.5037870000000  0.5146400000000 1.0
C      1  0.4975590000000  0.4228250000000  0.4825940000000 1.0
C      1  0.4975530000000  0.5771730000000  0.5174110000000 1.0
C      1  0.5234810000000  0.4722800000000  0.5269520000000 1.0
C      1  0.5234820000000  0.5277340000000  0.4730130000000 1.0
C      1  0.5264440000000  0.4691880000000  0.4384270000000 1.0
C      1  0.5264500000000  0.5308100000000  0.5615650000000 1.0
C      1  0.5577700000000  0.4690180000000  0.4828300000000 1.0
C      1  0.5577670000000  0.5309860000000  0.5171570000000 1.0
C      1  0.4489380000000  0.4753170000000  0.5374080000000 1.0
C      1  0.4489440000000  0.5246740000000  0.4626090000000 1.0
C      1  0.4867490000000  0.4452360000000  0.5333070000000 1.0
C      1  0.4867520000000  0.5547700000000  0.4667060000000 1.0
C      1  0.5297180000000  0.5376980000000  0.5314670000000 1.0
C      1  0.5297210000000  0.4623040000000  0.4685230000000 1.0
C      1  0.4765990000000  0.4856620000000  0.5075670000000 1.0
C      1  0.4766280000000  0.5143410000000  0.4924410000000 1.0
C      1  0.5128400000000  0.4327380000000  0.5362260000000 1.0
C      1  0.5128260000000  0.5672780000000  0.4637720000000 1.0
C      1  0.5220660000000  0.5621310000000  0.5134680000000 1.0
C      1  0.5220610000000  0.4378720000000  0.4865220000000 1.0
C      1  0.4744320000000  0.5198880000000  0.5434540000000 1.0
C      1  0.4744300000000  0.4801090000000  0.4565500000000 1.0
C      1  0.4861030000000  0.4389220000000  0.4313760000000 1.0
C      1  0.4861060000000  0.5610630000000  0.5686490000000 1.0
C      1  0.5642720000000  0.5195580000000  0.4674510000000 1.0
C      1  0.5642780000000  0.4804530000000  0.5325390000000 1.0
C      1  0.4805350000000  0.4558640000000  0.5062060000000 1.0
C      1  0.4805510000000  0.5441170000000  0.4938300000000 1.0
C      1  0.5386950000000  0.4812030000000  0.5514690000000 1.0
C      1  0.5387030000000  0.5188060000000  0.4485050000000 1.0
C      1  0.4375040000000  0.4634880000000  0.5095310000000 1.0
C      1  0.4375160000000  0.5365000000000  0.4904840000000 1.0
C      1  0.5038360000000  0.4818240000000  0.4715850000000 1.0
C      1  0.5038270000000  0.5181730000000  0.5283970000000 1.0
C      1  0.4713800000000  0.5492950000000  0.5463520000000 1.0
C      1  0.4713810000000  0.4506810000000  0.4536670000000 1.0
C      1  0.4440180000000  0.5625990000000  0.5030530000000 1.0
C      1  0.4440060000000  0.4373830000000  0.4969630000000 1.0
C      1  0.4750650000000  0.4667120000000  0.5517640000000 1.0
C      1  0.4750640000000  0.5332910000000  0.4482520000000 1.0
C      1  0.4893510000000  0.5046600000000  0.4394850000000 1.0
C      1  0.4893550000000  0.4953450000000  0.5605080000000 1.0
END
