TITL C-3985244-725-51 -0.00186885535789313 125000 -359.484142465064 0 0 60 (C1) n - 1
REM
REM in /home/nfs/bkarasulu/CARBON/AIRSS/Generating-Clusters/TERSOFF/Higher-Symm/Only-C60
REM
REM
REM
REM
REM
REM ./C.cell (28575a23ae977d3b5fae324c64b13b57)
REM
REM compiler GCC version 9.2.1 20190827 (Red Hat 9.2.1-1)
REM options -cpp -mtune=generic -march=x86-64 -g -O0 -fpre-include=/usr/include/finclude/math-vector-fortran.h
REM seed 1015831103 1207146994 -164523972 -2005908182 -1553555985 -91875416 -1862345435 180275032 -808459750 319000655 -899686176 1591500182 711365842 519893563 1788432254 1441944653 322338709 38900422 -1334699717 -2035467914 714378802 922042904 -325935073 -676399942 647946856 22158858 -1395779549 -872221867 -2126941321 -320294480 -990610387 -719616160 -1370969119
REM
CELL 1.54180   50.00000   50.00000   50.00000   90.00000   90.00000   90.00000
LATT -1
SFAC C  
C      1  0.5735930000000  0.5381020000000  0.4843920000000 1.0
C      1  0.5349900000000  0.5378360000000  0.5584430000000 1.0
C      1  0.4534810000000  0.5378590000000  0.5497450000000 1.0
C      1  0.4312060000000  0.5375440000000  0.4713390000000 1.0
C      1  0.5066510000000  0.5367990000000  0.4294740000000 1.0
C      1  0.5734840000000  0.5382190000000  0.5153940000000 1.0
C      1  0.5349700000000  0.5379020000000  0.4415280000000 1.0
C      1  0.4534700000000  0.5378790000000  0.4502740000000 1.0
C      1  0.4311930000000  0.5375480000000  0.5286990000000 1.0
C      1  0.5066750000000  0.5367170000000  0.5705250000000 1.0
C      1  0.4928760000000  0.4621880000000  0.5617110000000 1.0
C      1  0.4261370000000  0.4619980000000  0.5154510000000 1.0
C      1  0.4625280000000  0.4621050000000  0.4397790000000 1.0
C      1  0.5486070000000  0.4623170000000  0.4478760000000 1.0
C      1  0.5695200000000  0.4627790000000  0.5289820000000 1.0
C      1  0.4929300000000  0.4622140000000  0.4381560000000 1.0
C      1  0.4262550000000  0.4619780000000  0.4846140000000 1.0
C      1  0.4624680000000  0.4620810000000  0.5602420000000 1.0
C      1  0.5485860000000  0.4621470000000  0.5516540000000 1.0
C      1  0.5687220000000  0.4625020000000  0.4712140000000 1.0
C      1  0.5309770000000  0.5619040000000  0.4629490000000 1.0
C      1  0.5527690000000  0.5624050000000  0.5163670000000 1.0
C      1  0.5002950000000  0.5600710000000  0.5502750000000 1.0
C      1  0.4481000000000  0.5603770000000  0.5147030000000 1.0
C      1  0.4729860000000  0.5609240000000  0.4627020000000 1.0
C      1  0.5309500000000  0.5618950000000  0.5371290000000 1.0
C      1  0.5528280000000  0.5622050000000  0.4836960000000 1.0
C      1  0.5003000000000  0.5601010000000  0.4497780000000 1.0
C      1  0.4480980000000  0.5603730000000  0.4853240000000 1.0
C      1  0.4730050000000  0.5608970000000  0.5373200000000 1.0
C      1  0.5536910000000  0.4384960000000  0.4856050000000 1.0
C      1  0.5309490000000  0.4380770000000  0.5389540000000 1.0
C      1  0.4666840000000  0.4389390000000  0.5385740000000 1.0
C      1  0.4471580000000  0.4378740000000  0.4834420000000 1.0
C      1  0.5010420000000  0.4418140000000  0.4619840000000 1.0
C      1  0.5538510000000  0.4390750000000  0.5153060000000 1.0
C      1  0.5313020000000  0.4386500000000  0.4612440000000 1.0
C      1  0.4668160000000  0.4390080000000  0.4614220000000 1.0
C      1  0.4470190000000  0.4379090000000  0.5165830000000 1.0
C      1  0.5008240000000  0.4419150000000  0.5378510000000 1.0
C      1  0.4309400000000  0.4871980000000  0.5295230000000 1.0
C      1  0.4497830000000  0.4873570000000  0.4473470000000 1.0
C      1  0.5360520000000  0.4874510000000  0.4398900000000 1.0
C      1  0.5739880000000  0.4878680000000  0.5148430000000 1.0
C      1  0.5073620000000  0.4866770000000  0.5666180000000 1.0
C      1  0.4310220000000  0.4871860000000  0.4705280000000 1.0
C      1  0.4497380000000  0.4873460000000  0.5526860000000 1.0
C      1  0.5360330000000  0.4873340000000  0.5598050000000 1.0
C      1  0.5737030000000  0.4877260000000  0.4851300000000 1.0
C      1  0.5073630000000  0.4867570000000  0.4332380000000 1.0
C      1  0.4255910000000  0.5124360000000  0.5149150000000 1.0
C      1  0.4638210000000  0.5126160000000  0.4399490000000 1.0
C      1  0.5484970000000  0.5129510000000  0.4484830000000 1.0
C      1  0.5681520000000  0.5130810000000  0.5291990000000 1.0
C      1  0.4919620000000  0.5117090000000  0.5693210000000 1.0
C      1  0.4256160000000  0.5124280000000  0.4851180000000 1.0
C      1  0.4638230000000  0.5125880000000  0.5600480000000 1.0
C      1  0.5485160000000  0.5129250000000  0.5513670000000 1.0
C      1  0.5681070000000  0.5129630000000  0.4706620000000 1.0
C      1  0.4919400000000  0.5117790000000  0.4306280000000 1.0
END
