TITL C-3985245-9316-1170 0.000715769467135467 125000 -326.765088514772 0 0 60 (C1) n - 1
REM
REM in /home/nfs/bkarasulu/CARBON/AIRSS/Generating-Clusters/TERSOFF/Higher-Symm/Only-C60
REM
REM
REM
REM
REM
REM ./C.cell (28575a23ae977d3b5fae324c64b13b57)
REM
REM compiler GCC version 9.2.1 20190827 (Red Hat 9.2.1-1)
REM options -cpp -mtune=generic -march=x86-64 -g -O0 -fpre-include=/usr/include/finclude/math-vector-fortran.h
REM seed 1952820737 -385480712 117694357 -1613469897 91714329 -488772622 566384584 996978174 1551018036 1026829791 -807946152 -454282484 -500290538 -1029104649 877393686 -1092932505 2079101146 -1259346656 -1899434424 -1166902995 -1912944938 -1008468599 -1999026566 -257630785 1847286295 -1076566525 157108526 -293385813 235163541 1295923434 999669568 684383427 789645149
REM
CELL 1.54180   50.00000   50.00000   50.00000   90.00000   90.00000   90.00000
LATT -1
SFAC C  
C      1  0.4831730000000  0.5741910000000  0.4874510000000 1.0
C      1  0.5483870000000  0.5459940000000  0.5171100000000 1.0
C      1  0.4629200000000  0.5098400000000  0.5427980000000 1.0
C      1  0.4923510000000  0.4576130000000  0.5404140000000 1.0
C      1  0.4560980000000  0.4383400000000  0.5119820000000 1.0
C      1  0.5335210000000  0.5021230000000  0.4860180000000 1.0
C      1  0.5195300000000  0.5675620000000  0.4554490000000 1.0
C      1  0.4461270000000  0.4825440000000  0.5384640000000 1.0
C      1  0.5209610000000  0.4685950000000  0.4503470000000 1.0
C      1  0.4880330000000  0.4741670000000  0.4865200000000 1.0
C      1  0.4689900000000  0.4578920000000  0.4679280000000 1.0
C      1  0.4429680000000  0.5265030000000  0.4991570000000 1.0
C      1  0.5016810000000  0.5037370000000  0.4753020000000 1.0
C      1  0.4880960000000  0.5567330000000  0.5323020000000 1.0
C      1  0.5026230000000  0.4524520000000  0.5061690000000 1.0
C      1  0.5174930000000  0.4439400000000  0.4670050000000 1.0
C      1  0.4836510000000  0.5124910000000  0.5181090000000 1.0
C      1  0.5338460000000  0.4418910000000  0.4943680000000 1.0
C      1  0.4640590000000  0.5069320000000  0.4319820000000 1.0
C      1  0.5284580000000  0.4857920000000  0.5160050000000 1.0
C      1  0.5294790000000  0.4756620000000  0.5479530000000 1.0
C      1  0.5786880000000  0.5008510000000  0.5113840000000 1.0
C      1  0.5484230000000  0.4661460000000  0.5035690000000 1.0
C      1  0.5323300000000  0.4267660000000  0.5210650000000 1.0
C      1  0.4619670000000  0.4566200000000  0.5354750000000 1.0
C      1  0.4781480000000  0.5433000000000  0.4510000000000 1.0
C      1  0.5745200000000  0.4763450000000  0.4932350000000 1.0
C      1  0.4850460000000  0.5063820000000  0.5631480000000 1.0
C      1  0.4249710000000  0.4844190000000  0.5175960000000 1.0
C      1  0.5765950000000  0.4967560000000  0.5404220000000 1.0
C      1  0.5317560000000  0.5198870000000  0.5456300000000 1.0
C      1  0.4555570000000  0.5357390000000  0.4717540000000 1.0
C      1  0.4907650000000  0.5685130000000  0.4591770000000 1.0
C      1  0.4836280000000  0.5256970000000  0.4887210000000 1.0
C      1  0.5380540000000  0.5495610000000  0.5481110000000 1.0
C      1  0.5002310000000  0.4808950000000  0.5611420000000 1.0
C      1  0.4384120000000  0.4889090000000  0.4643270000000 1.0
C      1  0.4698990000000  0.4891510000000  0.5041740000000 1.0
C      1  0.4557000000000  0.5420220000000  0.5275930000000 1.0
C      1  0.4969210000000  0.5153360000000  0.4413290000000 1.0
C      1  0.5013970000000  0.5627620000000  0.5071790000000 1.0
C      1  0.4414960000000  0.4952710000000  0.4952280000000 1.0
C      1  0.5143670000000  0.5152660000000  0.5207110000000 1.0
C      1  0.5572670000000  0.5191410000000  0.5014300000000 1.0
C      1  0.4892570000000  0.4341460000000  0.4700270000000 1.0
C      1  0.5506470000000  0.4979370000000  0.5541680000000 1.0
C      1  0.4463570000000  0.4508040000000  0.4866090000000 1.0
C      1  0.5312310000000  0.5434870000000  0.4672990000000 1.0
C      1  0.4829460000000  0.4269310000000  0.5007280000000 1.0
C      1  0.4570880000000  0.5659710000000  0.5008550000000 1.0
C      1  0.5421740000000  0.4901310000000  0.4575050000000 1.0
C      1  0.5702160000000  0.4820570000000  0.4645160000000 1.0
C      1  0.5223720000000  0.4416220000000  0.5439950000000 1.0
C      1  0.4633070000000  0.4735780000000  0.4424480000000 1.0
C      1  0.5294800000000  0.5194350000000  0.4480750000000 1.0
C      1  0.4432370000000  0.5164520000000  0.4515590000000 1.0
C      1  0.5061750000000  0.5516760000000  0.5554660000000 1.0
C      1  0.4972880000000  0.5304950000000  0.5733730000000 1.0
C      1  0.4969340000000  0.4817680000000  0.4383660000000 1.0
C      1  0.5227060000000  0.5427780000000  0.4987780000000 1.0
END
