TITL C-3985254-1270-398 -0.000353678550213149 125000 -305.511999805664 0 0 60 (C3) n - 1
REM
REM in /home/nfs/bkarasulu/CARBON/AIRSS/Generating-Clusters/TERSOFF/Higher-Symm/Only-C60
REM
REM
REM
REM
REM
REM ./C.cell (28575a23ae977d3b5fae324c64b13b57)
REM
REM compiler GCC version 9.2.1 20190827 (Red Hat 9.2.1-1)
REM options -cpp -mtune=generic -march=x86-64 -g -O0 -fpre-include=/usr/include/finclude/math-vector-fortran.h
REM seed 210454140 -2114743076 408024239 1233518125 670702989 -587742908 97364125 276765824 2007896759 922896629 866034694 216896806 -1217456641 -1553149259 907229351 1517331067 -1027018264 -1878710189 1769737692 -708366408 -1623767639 292624274 521054832 -544492437 2002306571 563189637 280574935 -990184092 -959199051 989396939 -1641687078 -968111893 1960795191
REM
CELL 1.54180   50.00000   50.00000   50.00000   90.00000   90.00000   90.00000
LATT -1
SFAC C  
C      1  0.4678850000000  0.5729180000000  0.5164200000000 1.0
C      1  0.5302730000000  0.5729130000000  0.5195980000000 1.0
C      1  0.5018350000000  0.5729130000000  0.4639860000000 1.0
C      1  0.5088510000000  0.4702400000000  0.4574020000000 1.0
C      1  0.4586830000000  0.4702410000000  0.5136400000000 1.0
C      1  0.5324620000000  0.4702330000000  0.5289800000000 1.0
C      1  0.4382750000000  0.5060450000000  0.5056700000000 1.0
C      1  0.5357770000000  0.5060590000000  0.5506370000000 1.0
C      1  0.5259600000000  0.5060500000000  0.4437010000000 1.0
C      1  0.5382450000000  0.5377870000000  0.4482810000000 1.0
C      1  0.4360860000000  0.5377870000000  0.4927360000000 1.0
C      1  0.5256640000000  0.5377840000000  0.5589810000000 1.0
C      1  0.5133890000000  0.5578340000000  0.5393040000000 1.0
C      1  0.5273450000000  0.5578290000000  0.4687560000000 1.0
C      1  0.4592710000000  0.5578300000000  0.4919440000000 1.0
C      1  0.4425380000000  0.4710970000000  0.5410920000000 1.0
C      1  0.5643190000000  0.4710990000000  0.5292210000000 1.0
C      1  0.4931460000000  0.4711000000000  0.4296860000000 1.0
C      1  0.4979400000000  0.5296380000000  0.4786890000000 1.0
C      1  0.4825760000000  0.5296120000000  0.5124180000000 1.0
C      1  0.5194860000000  0.5296360000000  0.5088700000000 1.0
C      1  0.5209950000000  0.4445630000000  0.5196740000000 1.0
C      1  0.5065850000000  0.4445770000000  0.4719690000000 1.0
C      1  0.4725320000000  0.4445570000000  0.5084000000000 1.0
C      1  0.5530210000000  0.5163310000000  0.5081590000000 1.0
C      1  0.4805570000000  0.5163300000000  0.4500040000000 1.0
C      1  0.4664210000000  0.5163280000000  0.5418420000000 1.0
C      1  0.4330980000000  0.4770800000000  0.4896720000000 1.0
C      1  0.5245070000000  0.4770930000000  0.5630880000000 1.0
C      1  0.5423850000000  0.4770880000000  0.4472330000000 1.0
C      1  0.4919560000000  0.4390730000000  0.5332700000000 1.0
C      1  0.5328140000000  0.4390620000000  0.4903440000000 1.0
C      1  0.4752050000000  0.4390560000000  0.4764080000000 1.0
C      1  0.5100910000000  0.4487620000000  0.5600920000000 1.0
C      1  0.5469670000000  0.4487630000000  0.4612140000000 1.0
C      1  0.4428570000000  0.4487910000000  0.4786340000000 1.0
C      1  0.5604750000000  0.4605770000000  0.4992190000000 1.0
C      1  0.4690890000000  0.4605680000000  0.4480120000000 1.0
C      1  0.4704390000000  0.4605600000000  0.5527660000000 1.0
C      1  0.4260950000000  0.5234250000000  0.4682730000000 1.0
C      1  0.5094740000000  0.5234230000000  0.5798670000000 1.0
C      1  0.5644300000000  0.5234260000000  0.4518600000000 1.0
C      1  0.5634980000000  0.4957660000000  0.4605040000000 1.0
C      1  0.4340470000000  0.4957700000000  0.4647560000000 1.0
C      1  0.5024530000000  0.4957690000000  0.5747420000000 1.0
C      1  0.5606470000000  0.5023400000000  0.5343520000000 1.0
C      1  0.4994250000000  0.5023430000000  0.4303010000000 1.0
C      1  0.4399220000000  0.5023400000000  0.5353460000000 1.0
C      1  0.4838170000000  0.5620160000000  0.5392060000000 1.0
C      1  0.5420300000000  0.5619800000000  0.4944280000000 1.0
C      1  0.4741590000000  0.5619820000000  0.4663860000000 1.0
C      1  0.5580990000000  0.4910360000000  0.4883480000000 1.0
C      1  0.4608600000000  0.4910350000000  0.4555110000000 1.0
C      1  0.4810430000000  0.4910370000000  0.5561410000000 1.0
C      1  0.4835040000000  0.4856440000000  0.4784250000000 1.0
C      1  0.4895520000000  0.4856420000000  0.5250690000000 1.0
C      1  0.5269360000000  0.4856460000000  0.4964890000000 1.0
C      1  0.5186770000000  0.5078590000000  0.4731110000000 1.0
C      1  0.4673730000000  0.5078630000000  0.4972660000000 1.0
C      1  0.5139550000000  0.5078540000000  0.5296090000000 1.0
END
