TITL C-3985251-913-753 -0.000297199749093213 125000 -276.767717660799 0 0 60 (C5) n - 1
REM
REM in /home/nfs/bkarasulu/CARBON/AIRSS/Generating-Clusters/TERSOFF/Higher-Symm/Only-C60
REM
REM
REM
REM
REM
REM ./C.cell (28575a23ae977d3b5fae324c64b13b57)
REM
REM compiler GCC version 9.2.1 20190827 (Red Hat 9.2.1-1)
REM options -cpp -mtune=generic -march=x86-64 -g -O0 -fpre-include=/usr/include/finclude/math-vector-fortran.h
REM seed 1148751752 -333968384 1087026124 -148479250 1881284292 508038130 -1050973914 1930233523 -1339406111 787447335 1095849918 1109710607 -385533014 119817708 67789987 -169306113 1555831631 1560768503 696537340 -1050493222 1160561337 1980233330 -1926320171 -1700117764 1710159559 -1852021251 -1626422266 -510278103 1124126435 234915708 1141389992 2098215365 -767643399
REM
CELL 1.54180   50.00000   50.00000   50.00000   90.00000   90.00000   90.00000
LATT -1
SFAC C  
C      1  0.4393710000000  0.5149150000000  0.4563010000000 1.0
C      1  0.4954500000000  0.5622700000000  0.4563020000000 1.0
C      1  0.5578170000000  0.5235700000000  0.4563010000000 1.0
C      1  0.5402830000000  0.4522970000000  0.4563010000000 1.0
C      1  0.4670790000000  0.4469470000000  0.4563000000000 1.0
C      1  0.5223020000000  0.5188910000000  0.5037040000000 1.0
C      1  0.5248580000000  0.4846270000000  0.5037040000000 1.0
C      1  0.4930600000000  0.4716090000000  0.5037050000000 1.0
C      1  0.4708540000000  0.4978260000000  0.5037040000000 1.0
C      1  0.4889260000000  0.5270480000000  0.5037040000000 1.0
C      1  0.4417210000000  0.4602180000000  0.4795220000000 1.0
C      1  0.4441560000000  0.5431330000000  0.4795230000000 1.0
C      1  0.5237660000000  0.5664400000000  0.4795220000000 1.0
C      1  0.5705320000000  0.4979280000000  0.4795220000000 1.0
C      1  0.5198250000000  0.4322800000000  0.4795220000000 1.0
C      1  0.4742450000000  0.5679390000000  0.5231110000000 1.0
C      1  0.5566550000000  0.5454890000000  0.5231110000000 1.0
C      1  0.5607700000000  0.4601750000000  0.5231110000000 1.0
C      1  0.4809030000000  0.4298980000000  0.5231110000000 1.0
C      1  0.4274280000000  0.4964990000000  0.5231110000000 1.0
C      1  0.4972400000000  0.5303200000000  0.5568130000000 1.0
C      1  0.5279840000000  0.5119940000000  0.5568130000000 1.0
C      1  0.5200550000000  0.4770920000000  0.5568130000000 1.0
C      1  0.4844110000000  0.4738480000000  0.5568130000000 1.0
C      1  0.4703110000000  0.5067450000000  0.5568130000000 1.0
C      1  0.4504740000000  0.5493820000000  0.5144960000000 1.0
C      1  0.5316610000000  0.5623620000000  0.5144960000000 1.0
C      1  0.5690930000000  0.4891590000000  0.5144960000000 1.0
C      1  0.5110410000000  0.4309390000000  0.5144960000000 1.0
C      1  0.4377310000000  0.4681570000000  0.5144960000000 1.0
C      1  0.4696840000000  0.4464840000000  0.4981460000000 1.0
C      1  0.4397340000000  0.5122950000000  0.4981450000000 1.0
C      1  0.4930700000000  0.5611150000000  0.4981450000000 1.0
C      1  0.5559830000000  0.5254770000000  0.4981450000000 1.0
C      1  0.5415300000000  0.4546310000000  0.4981450000000 1.0
C      1  0.4377550000000  0.5035730000000  0.5507470000000 1.0
C      1  0.4841640000000  0.5603030000000  0.5507460000000 1.0
C      1  0.5524580000000  0.5336960000000  0.5507460000000 1.0
C      1  0.5482570000000  0.4605220000000  0.5507460000000 1.0
C      1  0.4773670000000  0.4419060000000  0.5507460000000 1.0
C      1  0.4728660000000  0.5296340000000  0.4767010000000 1.0
C      1  0.5197990000000  0.5349640000000  0.4767000000000 1.0
C      1  0.5393710000000  0.4919740000000  0.4767010000000 1.0
C      1  0.5045330000000  0.4600760000000  0.4767000000000 1.0
C      1  0.4634310000000  0.4833520000000  0.4767010000000 1.0
C      1  0.5543900000000  0.5548030000000  0.4639010000000 1.0
C      1  0.5689280000000  0.4652070000000  0.4639010000000 1.0
C      1  0.4882100000000  0.4236930000000  0.4639010000000 1.0
C      1  0.4237840000000  0.4876330000000  0.4639010000000 1.0
C      1  0.4646860000000  0.5686630000000  0.4639010000000 1.0
C      1  0.4746810000000  0.5122530000000  0.4485500000000 1.0
C      1  0.5038290000000  0.5278670000000  0.4485510000000 1.0
C      1  0.5276860000000  0.5049690000000  0.4485500000000 1.0
C      1  0.5132820000000  0.4752040000000  0.4485500000000 1.0
C      1  0.4805220000000  0.4797060000000  0.4485510000000 1.0
C      1  0.4672070000000  0.4756780000000  0.5280090000000 1.0
C      1  0.4667350000000  0.5236720000000  0.5280100000000 1.0
C      1  0.5122340000000  0.5389530000000  0.5280090000000 1.0
C      1  0.5408270000000  0.5004020000000  0.5280090000000 1.0
C      1  0.5129980000000  0.4612960000000  0.5280100000000 1.0
END
