TITL C-3985250-725-465 -0.00312567038149504 125000 -327.500822749093 0 0 60 (C3) n - 1
REM
REM in /home/nfs/bkarasulu/CARBON/AIRSS/Generating-Clusters/TERSOFF/Higher-Symm/Only-C60
REM
REM
REM
REM
REM
REM ./C.cell (28575a23ae977d3b5fae324c64b13b57)
REM
REM compiler GCC version 9.2.1 20190827 (Red Hat 9.2.1-1)
REM options -cpp -mtune=generic -march=x86-64 -g -O0 -fpre-include=/usr/include/finclude/math-vector-fortran.h
REM seed -1095974971 633563344 -1293097011 -1466717817 1418981808 1841291056 159354002 1107662632 1541018957 -559380143 -299562717 210151314 402440176 1729626692 -207621431 811546984 194089387 2036303571 -1360633434 -1545900205 -342907051 -1779203531 -1123132972 1120553172 42423208 690637458 -2067290748 -1453817082 -1417489994 916846170 -1617310063 -1696654446 802383823
REM
CELL 1.54180   50.00000   50.00000   50.00000   90.00000   90.00000   90.00000
LATT -1
SFAC C  
C      1  0.5200760000000  0.4331160000000  0.5171640000000 1.0
C      1  0.5200880000000  0.5185880000000  0.4334680000000 1.0
C      1  0.5200700000000  0.5483090000000  0.5493370000000 1.0
C      1  0.5561590000000  0.5073130000000  0.5428490000000 1.0
C      1  0.5561660000000  0.4592200000000  0.4849030000000 1.0
C      1  0.5561540000000  0.5334570000000  0.4722510000000 1.0
C      1  0.5223800000000  0.5155490000000  0.5457860000000 1.0
C      1  0.5223820000000  0.4525420000000  0.4905720000000 1.0
C      1  0.5223890000000  0.5318780000000  0.4636360000000 1.0
C      1  0.4760320000000  0.5138690000000  0.5118910000000 1.0
C      1  0.4760350000000  0.4827470000000  0.5060470000000 1.0
C      1  0.4760300000000  0.5033710000000  0.4820290000000 1.0
C      1  0.5218130000000  0.4351730000000  0.4654380000000 1.0
C      1  0.5218350000000  0.5623570000000  0.4611670000000 1.0
C      1  0.5218430000000  0.5024590000000  0.5734130000000 1.0
C      1  0.4618100000000  0.5552980000000  0.4734640000000 1.0
C      1  0.4618090000000  0.4953300000000  0.5611420000000 1.0
C      1  0.4617840000000  0.4493710000000  0.4653770000000 1.0
C      1  0.5013590000000  0.5022830000000  0.4672100000000 1.0
C      1  0.5013640000000  0.5272670000000  0.5183950000000 1.0
C      1  0.5013710000000  0.4704360000000  0.5144140000000 1.0
C      1  0.4610470000000  0.5244480000000  0.5496400000000 1.0
C      1  0.4610400000000  0.4447940000000  0.4963510000000 1.0
C      1  0.4610660000000  0.5307520000000  0.4540240000000 1.0
C      1  0.4604840000000  0.4775030000000  0.4529180000000 1.0
C      1  0.4605000000000  0.5520550000000  0.5040550000000 1.0
C      1  0.4605030000000  0.4704610000000  0.5430370000000 1.0
C      1  0.4333760000000  0.5225690000000  0.4901080000000 1.0
C      1  0.4333610000000  0.4974320000000  0.5243640000000 1.0
C      1  0.4333950000000  0.4799960000000  0.4854870000000 1.0
C      1  0.4461240000000  0.5036000000000  0.4675560000000 1.0
C      1  0.4462330000000  0.5263500000000  0.5193810000000 1.0
C      1  0.4462190000000  0.4700680000000  0.5131370000000 1.0
C      1  0.5231680000000  0.5289240000000  0.4976480000000 1.0
C      1  0.5231780000000  0.4875790000000  0.5262280000000 1.0
C      1  0.5231370000000  0.4835100000000  0.4763220000000 1.0
C      1  0.5054190000000  0.4412500000000  0.4426760000000 1.0
C      1  0.5054220000000  0.5790220000000  0.4778100000000 1.0
C      1  0.5054310000000  0.4797150000000  0.5795280000000 1.0
C      1  0.5522930000000  0.4740630000000  0.5332650000000 1.0
C      1  0.5522630000000  0.4841560000000  0.4609080000000 1.0
C      1  0.5522810000000  0.5417860000000  0.5058310000000 1.0
C      1  0.4863790000000  0.4886930000000  0.4411740000000 1.0
C      1  0.4863750000000  0.5565990000000  0.5196220000000 1.0
C      1  0.4863800000000  0.4547120000000  0.5391950000000 1.0
C      1  0.4781710000000  0.5785810000000  0.4674240000000 1.0
C      1  0.4781750000000  0.4889270000000  0.5843240000000 1.0
C      1  0.4781550000000  0.4324920000000  0.4482450000000 1.0
C      1  0.5687600000000  0.5081250000000  0.4654040000000 1.0
C      1  0.5687570000000  0.5259230000000  0.5243420000000 1.0
C      1  0.5687630000000  0.4659680000000  0.5102680000000 1.0
C      1  0.5316420000000  0.4496510000000  0.5421440000000 1.0
C      1  0.5317010000000  0.4886690000000  0.4351380000000 1.0
C      1  0.5316340000000  0.5616800000000  0.5225270000000 1.0
C      1  0.4856040000000  0.5480230000000  0.5513200000000 1.0
C      1  0.4856030000000  0.4315470000000  0.5159250000000 1.0
C      1  0.4856260000000  0.5204350000000  0.4327520000000 1.0
C      1  0.5077930000000  0.5746180000000  0.5075840000000 1.0
C      1  0.5078000000000  0.4561300000000  0.5608230000000 1.0
C      1  0.5077960000000  0.4692570000000  0.4315580000000 1.0
END
