TITL C-3985250-725-171 4.80234130724966e-09 125000 -277.319876464352 0 0 60 (Td) n - 1
REM
REM in /home/nfs/bkarasulu/CARBON/AIRSS/Generating-Clusters/TERSOFF/Higher-Symm/Only-C60
REM
REM
REM
REM
REM
REM ./C.cell (28575a23ae977d3b5fae324c64b13b57)
REM
REM compiler GCC version 9.2.1 20190827 (Red Hat 9.2.1-1)
REM options -cpp -mtune=generic -march=x86-64 -g -O0 -fpre-include=/usr/include/finclude/math-vector-fortran.h
REM seed 1063597806 -1472265417 1112227433 1861266931 -284541762 1368744631 -1179523950 104265262 345079435 745144816 1693315974 -595684575 725830581 -1676272475 1824405394 1095075476 -1911267476 1574874470 570958778 -1410650762 1013591171 491413225 -1715818739 -1133757262 -1638565734 771239779 1276588207 -630260725 -1340678202 1033428230 623676802 -160940042 -19608528
REM
CELL 1.54180   50.00000   50.00000   50.00000   90.00000   90.00000   90.00000
LATT -1
SFAC C  
C      1  0.4679490000000  0.4921030000000  0.4451870000000 1.0
C      1  0.4451870000000  0.4679490000000  0.4921030000000 1.0
C      1  0.4921030000000  0.4451870000000  0.4679490000000 1.0
C      1  0.5320510000000  0.4921030000000  0.5548130000000 1.0
C      1  0.4679490000000  0.5078970000000  0.5548130000000 1.0
C      1  0.5320510000000  0.5078970000000  0.4451870000000 1.0
C      1  0.5548130000000  0.4679490000000  0.5078970000000 1.0
C      1  0.4451870000000  0.5320510000000  0.5078970000000 1.0
C      1  0.5548130000000  0.5320510000000  0.4921030000000 1.0
C      1  0.5078970000000  0.4451870000000  0.5320510000000 1.0
C      1  0.4921030000000  0.5548130000000  0.5320510000000 1.0
C      1  0.5078970000000  0.5548130000000  0.4679490000000 1.0
C      1  0.4451870000000  0.4921030000000  0.4679490000000 1.0
C      1  0.4921030000000  0.4679490000000  0.4451870000000 1.0
C      1  0.4679490000000  0.4451870000000  0.4921030000000 1.0
C      1  0.5548130000000  0.4921030000000  0.5320510000000 1.0
C      1  0.5548130000000  0.5078970000000  0.4679490000000 1.0
C      1  0.4451870000000  0.5078970000000  0.5320510000000 1.0
C      1  0.5078970000000  0.4679490000000  0.5548130000000 1.0
C      1  0.5078970000000  0.5320510000000  0.4451870000000 1.0
C      1  0.4921030000000  0.5320510000000  0.5548130000000 1.0
C      1  0.5320510000000  0.4451870000000  0.5078970000000 1.0
C      1  0.5320510000000  0.5548130000000  0.4921030000000 1.0
C      1  0.4679490000000  0.5548130000000  0.5078970000000 1.0
C      1  0.5852130000000  0.4766290000000  0.4995840000000 1.0
C      1  0.4995840000000  0.5852130000000  0.4766290000000 1.0
C      1  0.4766290000000  0.4995840000000  0.5852130000000 1.0
C      1  0.4147870000000  0.4766290000000  0.5004160000000 1.0
C      1  0.5852130000000  0.5233710000000  0.5004160000000 1.0
C      1  0.4147870000000  0.5233710000000  0.4995840000000 1.0
C      1  0.5004160000000  0.5852130000000  0.5233710000000 1.0
C      1  0.4995840000000  0.4147870000000  0.5233710000000 1.0
C      1  0.5004160000000  0.4147870000000  0.4766290000000 1.0
C      1  0.5233710000000  0.4995840000000  0.4147870000000 1.0
C      1  0.4766290000000  0.5004160000000  0.4147870000000 1.0
C      1  0.5233710000000  0.5004160000000  0.5852130000000 1.0
C      1  0.4995840000000  0.4766290000000  0.5852130000000 1.0
C      1  0.4766290000000  0.5852130000000  0.4995840000000 1.0
C      1  0.5852130000000  0.4995840000000  0.4766290000000 1.0
C      1  0.5004160000000  0.4766290000000  0.4147870000000 1.0
C      1  0.5004160000000  0.5233710000000  0.5852130000000 1.0
C      1  0.4995840000000  0.5233710000000  0.4147870000000 1.0
C      1  0.5233710000000  0.5852130000000  0.5004160000000 1.0
C      1  0.5233710000000  0.4147870000000  0.4995840000000 1.0
C      1  0.4766290000000  0.4147870000000  0.5004160000000 1.0
C      1  0.4147870000000  0.4995840000000  0.5233710000000 1.0
C      1  0.4147870000000  0.5004160000000  0.4766290000000 1.0
C      1  0.5852130000000  0.5004160000000  0.5233710000000 1.0
C      1  0.5113590000000  0.4886410000000  0.4632370000000 1.0
C      1  0.5113590000000  0.4632370000000  0.4886410000000 1.0
C      1  0.4886410000000  0.5367630000000  0.4886410000000 1.0
C      1  0.4886410000000  0.4886410000000  0.5367630000000 1.0
C      1  0.5113590000000  0.5113590000000  0.5367630000000 1.0
C      1  0.4886410000000  0.5113590000000  0.4632370000000 1.0
C      1  0.4886410000000  0.4632370000000  0.5113590000000 1.0
C      1  0.4632370000000  0.5113590000000  0.4886410000000 1.0
C      1  0.5113590000000  0.5367630000000  0.5113590000000 1.0
C      1  0.5367630000000  0.5113590000000  0.5113590000000 1.0
C      1  0.4632370000000  0.4886410000000  0.5113590000000 1.0
C      1  0.5367630000000  0.4886410000000  0.4886410000000 1.0
END
