TITL C-3985253-1688-1088 1.74816830469348e-05 125000 -334.55877530291 0 0 60 (C1) n - 1
REM
REM in /home/nfs/bkarasulu/CARBON/AIRSS/Generating-Clusters/TERSOFF/Higher-Symm/Only-C60
REM
REM
REM
REM
REM
REM ./C.cell (28575a23ae977d3b5fae324c64b13b57)
REM
REM compiler GCC version 9.2.1 20190827 (Red Hat 9.2.1-1)
REM options -cpp -mtune=generic -march=x86-64 -g -O0 -fpre-include=/usr/include/finclude/math-vector-fortran.h
REM seed 1830742335 1358277519 -93515893 1851090219 -902280248 933520580 1598800521 2055739925 1578501442 1960231528 249022636 814628455 -1723820537 -1423154128 977273488 -409788754 966089706 332828794 2131779549 56223818 -1373576026 -1111172608 1491935107 1383247412 -1244548937 384139718 -1223247845 -2038160916 758928117 1411103739 1994017661 330054733 -80077426
REM
CELL 1.54180   50.00000   50.00000   50.00000   90.00000   90.00000   90.00000
LATT -1
SFAC C  
C      1  0.5037230000000  0.4333070000000  0.4790720000000 1.0
C      1  0.5084250000000  0.4803080000000  0.5726610000000 1.0
C      1  0.5140930000000  0.4564670000000  0.4557440000000 1.0
C      1  0.4448840000000  0.4968960000000  0.4498200000000 1.0
C      1  0.5051170000000  0.4403560000000  0.5125410000000 1.0
C      1  0.4881760000000  0.5781290000000  0.4946070000000 1.0
C      1  0.5049590000000  0.5477470000000  0.5394430000000 1.0
C      1  0.5195080000000  0.5027710000000  0.4400120000000 1.0
C      1  0.5323080000000  0.4649660000000  0.5682460000000 1.0
C      1  0.5209880000000  0.5324290000000  0.5630450000000 1.0
C      1  0.5645410000000  0.5081060000000  0.5542000000000 1.0
C      1  0.4864530000000  0.4732880000000  0.5546000000000 1.0
C      1  0.5067460000000  0.5414240000000  0.4297140000000 1.0
C      1  0.4896700000000  0.4848370000000  0.5264960000000 1.0
C      1  0.4509660000000  0.4469290000000  0.5374220000000 1.0
C      1  0.4645740000000  0.5197480000000  0.4498840000000 1.0
C      1  0.4558340000000  0.5480880000000  0.4540220000000 1.0
C      1  0.4822250000000  0.4444010000000  0.5401970000000 1.0
C      1  0.4872940000000  0.4761810000000  0.4442140000000 1.0
C      1  0.5098370000000  0.5014250000000  0.4690820000000 1.0
C      1  0.5502080000000  0.4452240000000  0.4954100000000 1.0
C      1  0.4625000000000  0.4881420000000  0.5656850000000 1.0
C      1  0.5492300000000  0.5000630000000  0.5081040000000 1.0
C      1  0.4880830000000  0.4657390000000  0.5045320000000 1.0
C      1  0.5143310000000  0.5691630000000  0.4743530000000 1.0
C      1  0.4615060000000  0.5319890000000  0.5234170000000 1.0
C      1  0.4892860000000  0.5129070000000  0.5220730000000 1.0
C      1  0.5277370000000  0.4878770000000  0.4900090000000 1.0
C      1  0.5342310000000  0.5286750000000  0.4345710000000 1.0
C      1  0.4890680000000  0.5097390000000  0.4303340000000 1.0
C      1  0.5601930000000  0.4820130000000  0.4555840000000 1.0
C      1  0.5716600000000  0.5108070000000  0.4940490000000 1.0
C      1  0.5406610000000  0.4643890000000  0.4757090000000 1.0
C      1  0.5498210000000  0.5309610000000  0.5634000000000 1.0
C      1  0.4464670000000  0.5086060000000  0.5110720000000 1.0
C      1  0.5479560000000  0.5323600000000  0.4601120000000 1.0
C      1  0.4817820000000  0.5118940000000  0.4745600000000 1.0
C      1  0.4595680000000  0.4633820000000  0.4875040000000 1.0
C      1  0.5351100000000  0.4443040000000  0.5204890000000 1.0
C      1  0.4749410000000  0.5166230000000  0.5717460000000 1.0
C      1  0.5545200000000  0.4897590000000  0.5341940000000 1.0
C      1  0.4395850000000  0.4753860000000  0.5512410000000 1.0
C      1  0.5013050000000  0.5753030000000  0.5242030000000 1.0
C      1  0.4292090000000  0.4890520000000  0.5250310000000 1.0
C      1  0.4795030000000  0.4191690000000  0.4717720000000 1.0
C      1  0.5048040000000  0.5112720000000  0.5776340000000 1.0
C      1  0.5011600000000  0.5657010000000  0.4463760000000 1.0
C      1  0.4742690000000  0.5389780000000  0.5512520000000 1.0
C      1  0.4744390000000  0.5699470000000  0.4613540000000 1.0
C      1  0.5149490000000  0.5310910000000  0.5089920000000 1.0
C      1  0.4558900000000  0.4343170000000  0.4764690000000 1.0
C      1  0.4391070000000  0.4613610000000  0.5116630000000 1.0
C      1  0.5345520000000  0.4770730000000  0.4362270000000 1.0
C      1  0.4897280000000  0.5367820000000  0.4876720000000 1.0
C      1  0.5672230000000  0.5104660000000  0.4659790000000 1.0
C      1  0.4598470000000  0.4721210000000  0.4561930000000 1.0
C      1  0.5440390000000  0.4638780000000  0.5419950000000 1.0
C      1  0.4623300000000  0.4958760000000  0.4907110000000 1.0
C      1  0.4671840000000  0.5532660000000  0.5002540000000 1.0
C      1  0.5316940000000  0.5465420000000  0.4830560000000 1.0
END
