TITL C-3985248-2097-132 0.000134195926548278 125000 -364.511155960793 0 0 60 (Ci) n - 1
REM
REM in /home/nfs/bkarasulu/CARBON/AIRSS/Generating-Clusters/TERSOFF/Higher-Symm/Only-C60
REM
REM
REM
REM
REM
REM ./C.cell (28575a23ae977d3b5fae324c64b13b57)
REM
REM compiler GCC version 9.2.1 20190827 (Red Hat 9.2.1-1)
REM options -cpp -mtune=generic -march=x86-64 -g -O0 -fpre-include=/usr/include/finclude/math-vector-fortran.h
REM seed -1404163863 -844456033 -1278056301 -873504069 547034817 1784176895 -783129597 1375021818 -607757384 -1596634381 -1975862626 -110175782 -13987715 1147992176 2048595802 1903277791 2072820796 1047978259 -45018987 1455560539 1722291934 -91168352 908174326 -367420761 -1903898264 -1403751621 -1065382047 -21333705 365582127 -1355002959 326464371 1857544937 1033115189
REM
CELL 1.54180   50.00000   50.00000   50.00000   90.00000   90.00000   90.00000
LATT -1
SFAC C  
C      1  0.4523870000000  0.5228120000000  0.5152560000000 1.0
C      1  0.5475840000000  0.4771440000000  0.5152090000000 1.0
C      1  0.4524310000000  0.5228580000000  0.4848200000000 1.0
C      1  0.5475940000000  0.4772280000000  0.4847670000000 1.0
C      1  0.5100660000000  0.5532420000000  0.5552780000000 1.0
C      1  0.4898020000000  0.4467090000000  0.5551840000000 1.0
C      1  0.5102010000000  0.5533040000000  0.4447830000000 1.0
C      1  0.4899410000000  0.4467860000000  0.4447610000000 1.0
C      1  0.5354410000000  0.5715200000000  0.4849350000000 1.0
C      1  0.4645980000000  0.4284640000000  0.4850210000000 1.0
C      1  0.5354030000000  0.5714930000000  0.5149460000000 1.0
C      1  0.4645590000000  0.4284280000000  0.5150300000000 1.0
C      1  0.5560730000000  0.5009850000000  0.4696090000000 1.0
C      1  0.4439420000000  0.4992120000000  0.4695540000000 1.0
C      1  0.5560630000000  0.5007860000000  0.5304770000000 1.0
C      1  0.4439200000000  0.4990580000000  0.5304030000000 1.0
C      1  0.4853510000000  0.5350870000000  0.5553790000000 1.0
C      1  0.5144590000000  0.4649150000000  0.5551050000000 1.0
C      1  0.4855620000000  0.5350600000000  0.4449690000000 1.0
C      1  0.5146480000000  0.4649540000000  0.4446960000000 1.0
C      1  0.5230900000000  0.4640990000000  0.4738340000000 1.0
C      1  0.4770760000000  0.5357850000000  0.4740730000000 1.0
C      1  0.5229770000000  0.4641570000000  0.5260000000000 1.0
C      1  0.4768620000000  0.5359810000000  0.5262370000000 1.0
C      1  0.5377380000000  0.5097590000000  0.5543260000000 1.0
C      1  0.4621230000000  0.4900530000000  0.5542260000000 1.0
C      1  0.5379030000000  0.5099780000000  0.4457450000000 1.0
C      1  0.4622720000000  0.4902280000000  0.4457240000000 1.0
C      1  0.5004470000000  0.5165690000000  0.5177730000000 1.0
C      1  0.4996670000000  0.4834860000000  0.5169940000000 1.0
C      1  0.5003300000000  0.5164960000000  0.4832200000000 1.0
C      1  0.4995640000000  0.4834410000000  0.4824650000000 1.0
C      1  0.4849940000000  0.5627960000000  0.5146940000000 1.0
C      1  0.5149460000000  0.4372780000000  0.5145840000000 1.0
C      1  0.4850750000000  0.5626940000000  0.4854360000000 1.0
C      1  0.5150030000000  0.4372450000000  0.4853310000000 1.0
C      1  0.4471520000000  0.4511150000000  0.5296380000000 1.0
C      1  0.5516970000000  0.5481000000000  0.5291840000000 1.0
C      1  0.4480760000000  0.4517420000000  0.4707450000000 1.0
C      1  0.5529410000000  0.5489320000000  0.4702590000000 1.0
C      1  0.4630230000000  0.4602020000000  0.5556430000000 1.0
C      1  0.5367270000000  0.5395800000000  0.5553150000000 1.0
C      1  0.4632720000000  0.4604200000000  0.4447150000000 1.0
C      1  0.5370340000000  0.5398560000000  0.4441470000000 1.0
C      1  0.5089950000000  0.5718410000000  0.5301440000000 1.0
C      1  0.4909230000000  0.4282640000000  0.5300750000000 1.0
C      1  0.5090900000000  0.5716980000000  0.4699200000000 1.0
C      1  0.4910140000000  0.4281830000000  0.4698640000000 1.0
C      1  0.5285200000000  0.5300910000000  0.5136670000000 1.0
C      1  0.4711890000000  0.4698860000000  0.5156100000000 1.0
C      1  0.5288410000000  0.5300650000000  0.4841330000000 1.0
C      1  0.4714190000000  0.4698820000000  0.4860460000000 1.0
C      1  0.5703390000000  0.5241760000000  0.4848020000000 1.0
C      1  0.4299400000000  0.4758450000000  0.4847280000000 1.0
C      1  0.5699950000000  0.5241800000000  0.5152790000000 1.0
C      1  0.4297060000000  0.4758380000000  0.5152050000000 1.0
C      1  0.5136730000000  0.4935180000000  0.4370940000000 1.0
C      1  0.4864990000000  0.5066240000000  0.4371240000000 1.0
C      1  0.5135080000000  0.4933770000000  0.5629040000000 1.0
C      1  0.4863360000000  0.5064930000000  0.5629110000000 1.0
END
