TITL C-3985254-1270-1595 -7.61960860760702e-07 125000 -306.793329515176 0 0 60 (Cs) n - 1
REM
REM in /home/nfs/bkarasulu/CARBON/AIRSS/Generating-Clusters/TERSOFF/Higher-Symm/Only-C60
REM
REM
REM
REM
REM
REM ./C.cell (28575a23ae977d3b5fae324c64b13b57)
REM
REM compiler GCC version 9.2.1 20190827 (Red Hat 9.2.1-1)
REM options -cpp -mtune=generic -march=x86-64 -g -O0 -fpre-include=/usr/include/finclude/math-vector-fortran.h
REM seed -919289281 1464945344 1618568184 404139660 -1664321213 930368024 1151745680 317904822 -1349650638 1245207485 1533835231 -1390289762 -977216931 287182749 -633083102 -1438758589 903523855 -1643981248 -1637841422 255173602 -1260854237 213167228 -1234120973 1996854861 -251365938 1572590421 1668147386 1567935595 -1463710977 -1157298436 -19582294 1493815911 -300169520
REM
CELL 1.54180   50.00000   50.00000   50.00000   90.00000   90.00000   90.00000
LATT -1
SFAC C  
C      1  0.5276740000000  0.5175940000000  0.5477180000000 1.0
C      1  0.4723260000000  0.5175940000000  0.5477180000000 1.0
C      1  0.4408070000000  0.4626020000000  0.5007590000000 1.0
C      1  0.5591930000000  0.4626020000000  0.5007590000000 1.0
C      1  0.4863390000000  0.4994860000000  0.4557820000000 1.0
C      1  0.5136610000000  0.4994860000000  0.4557820000000 1.0
C      1  0.4601460000000  0.5607540000000  0.5247190000000 1.0
C      1  0.5398530000000  0.5607540000000  0.5247190000000 1.0
C      1  0.5319990000000  0.4397190000000  0.4995700000000 1.0
C      1  0.4680010000000  0.4397190000000  0.4995700000000 1.0
C      1  0.5151730000000  0.5042780000000  0.5708740000000 1.0
C      1  0.4848270000000  0.5042780000000  0.5708740000000 1.0
C      1  0.4833480000000  0.4723340000000  0.5727950000000 1.0
C      1  0.5166520000000  0.4723340000000  0.5727950000000 1.0
C      1  0.4705290000000  0.4793080000000  0.4429100000000 1.0
C      1  0.5294710000000  0.4793080000000  0.4429100000000 1.0
C      1  0.4741920000000  0.5166880000000  0.4777700000000 1.0
C      1  0.5258080000000  0.5166880000000  0.4777700000000 1.0
C      1  0.5403770000000  0.4792530000000  0.5266720000000 1.0
C      1  0.4596220000000  0.4792530000000  0.5266720000000 1.0
C      1  0.5597090000000  0.5444230000000  0.5083610000000 1.0
C      1  0.4402910000000  0.5444230000000  0.5083610000000 1.0
C      1  0.4767960000000  0.4361970000000  0.5277070000000 1.0
C      1  0.5232040000000  0.4361970000000  0.5277070000000 1.0
C      1  0.5739510000000  0.4992310000000  0.5617080000000 1.0
C      1  0.4260490000000  0.4992310000000  0.5617080000000 1.0
C      1  0.5630910000000  0.5171390000000  0.4596630000000 1.0
C      1  0.4369090000000  0.5171390000000  0.4596630000000 1.0
C      1  0.5180420000000  0.4521440000000  0.4529220000000 1.0
C      1  0.4819580000000  0.4521440000000  0.4529220000000 1.0
C      1  0.4841970000000  0.5397480000000  0.4975080000000 1.0
C      1  0.5158030000000  0.5397480000000  0.4975090000000 1.0
C      1  0.5153390000000  0.5296100000000  0.4259610000000 1.0
C      1  0.4846610000000  0.5296100000000  0.4259610000000 1.0
C      1  0.4374370000000  0.5454300000000  0.4785820000000 1.0
C      1  0.5625630000000  0.5454300000000  0.4785820000000 1.0
C      1  0.4847020000000  0.5129630000000  0.5182610000000 1.0
C      1  0.5152980000000  0.5129630000000  0.5182610000000 1.0
C      1  0.5163620000000  0.4252500000000  0.4744440000000 1.0
C      1  0.4836380000000  0.4252500000000  0.4744440000000 1.0
C      1  0.4428160000000  0.4897480000000  0.4437310000000 1.0
C      1  0.5571840000000  0.4897480000000  0.4437310000000 1.0
C      1  0.4714470000000  0.4908750000000  0.4973850000000 1.0
C      1  0.5285530000000  0.4908760000000  0.4973850000000 1.0
C      1  0.5177820000000  0.5476940000000  0.5417230000000 1.0
C      1  0.4822180000000  0.5476940000000  0.5417230000000 1.0
C      1  0.4352580000000  0.5158600000000  0.5145760000000 1.0
C      1  0.5647420000000  0.5158600000000  0.5145760000000 1.0
C      1  0.5331740000000  0.5361560000000  0.4500590000000 1.0
C      1  0.4668260000000  0.5361560000000  0.4500590000000 1.0
C      1  0.4453310000000  0.5040160000000  0.5402820000000 1.0
C      1  0.5546690000000  0.5040160000000  0.5402820000000 1.0
C      1  0.4843560000000  0.4654460000000  0.4863470000000 1.0
C      1  0.5156440000000  0.4654460000000  0.4863470000000 1.0
C      1  0.5181140000000  0.4622320000000  0.5424140000000 1.0
C      1  0.4818860000000  0.4622320000000  0.5424140000000 1.0
C      1  0.4385350000000  0.4971390000000  0.4897290000000 1.0
C      1  0.5614650000000  0.4971390000000  0.4897290000000 1.0
C      1  0.4834850000000  0.5566810000000  0.4690680000000 1.0
C      1  0.5165150000000  0.5566810000000  0.4690680000000 1.0
END
