TITL C-3985253-1688-140 -0.00187948827834228 125000 -364.225385738721 0 0 60 (C1) n - 1
REM
REM in /home/nfs/bkarasulu/CARBON/AIRSS/Generating-Clusters/TERSOFF/Higher-Symm/Only-C60
REM
REM
REM
REM
REM
REM ./C.cell (28575a23ae977d3b5fae324c64b13b57)
REM
REM compiler GCC version 9.2.1 20190827 (Red Hat 9.2.1-1)
REM options -cpp -mtune=generic -march=x86-64 -g -O0 -fpre-include=/usr/include/finclude/math-vector-fortran.h
REM seed 74706406 -1599645744 1102949229 -30937740 -1848067930 1115393579 1517711180 1326284433 -1496939544 -554147033 2142976032 981081858 -297058858 -1225411969 -1899749478 1635292630 -1690151023 -1895485999 1437480554 -208211114 -1329478642 1069113800 569170872 -963845081 -1725847741 2141929812 436381002 -589156326 511087750 -2146869895 -1450241767 -1185088803 605956447
REM
CELL 1.54180   50.00000   50.00000   50.00000   90.00000   90.00000   90.00000
LATT -1
SFAC C  
C      1  0.5358770000000  0.4853060000000  0.5052320000000 1.0
C      1  0.5171310000000  0.5386680000000  0.5080340000000 1.0
C      1  0.4618880000000  0.5175910000000  0.5058670000000 1.0
C      1  0.4860650000000  0.4629360000000  0.5034550000000 1.0
C      1  0.4617780000000  0.4835060000000  0.4941670000000 1.0
C      1  0.4862740000000  0.5394340000000  0.4971890000000 1.0
C      1  0.5364880000000  0.5166870000000  0.4953700000000 1.0
C      1  0.5164750000000  0.4636950000000  0.4922320000000 1.0
C      1  0.5243990000000  0.5493260000000  0.5344060000000 1.0
C      1  0.4516590000000  0.5244430000000  0.5330890000000 1.0
C      1  0.4840870000000  0.4556130000000  0.5354240000000 1.0
C      1  0.5381790000000  0.4771000000000  0.5364840000000 1.0
C      1  0.4841130000000  0.5461980000000  0.4649380000000 1.0
C      1  0.5382700000000  0.5245070000000  0.4640910000000 1.0
C      1  0.5238300000000  0.4526430000000  0.4659990000000 1.0
C      1  0.4515190000000  0.4768860000000  0.4669410000000 1.0
C      1  0.5443500000000  0.5528620000000  0.4582790000000 1.0
C      1  0.4543940000000  0.5468600000000  0.4602280000000 1.0
C      1  0.4532810000000  0.4490600000000  0.4582050000000 1.0
C      1  0.5515910000000  0.4561070000000  0.4577220000000 1.0
C      1  0.4535020000000  0.5523990000000  0.5415510000000 1.0
C      1  0.5519970000000  0.5455160000000  0.5429990000000 1.0
C      1  0.5442720000000  0.4487340000000  0.5421600000000 1.0
C      1  0.4544070000000  0.4547850000000  0.5402550000000 1.0
C      1  0.5224660000000  0.4754060000000  0.5935560000000 1.0
C      1  0.5262990000000  0.5253980000000  0.5894360000000 1.0
C      1  0.4764130000000  0.5281380000000  0.5875550000000 1.0
C      1  0.4723290000000  0.4778040000000  0.5898690000000 1.0
C      1  0.4764300000000  0.4738180000000  0.4124290000000 1.0
C      1  0.4723460000000  0.5241660000000  0.4105690000000 1.0
C      1  0.5225560000000  0.5264570000000  0.4070170000000 1.0
C      1  0.5263320000000  0.4764390000000  0.4108800000000 1.0
C      1  0.4380520000000  0.5237050000000  0.4557140000000 1.0
C      1  0.4781620000000  0.4348800000000  0.4537500000000 1.0
C      1  0.5638790000000  0.4818630000000  0.4534950000000 1.0
C      1  0.5245010000000  0.5689520000000  0.4453350000000 1.0
C      1  0.5640940000000  0.5196210000000  0.5470550000000 1.0
C      1  0.5244360000000  0.4327500000000  0.5552410000000 1.0
C      1  0.4380090000000  0.4778340000000  0.5448380000000 1.0
C      1  0.4784140000000  0.5666840000000  0.5458520000000 1.0
C      1  0.4989210000000  0.5565470000000  0.4398930000000 1.0
C      1  0.4484040000000  0.4983860000000  0.4470920000000 1.0
C      1  0.5030210000000  0.4476750000000  0.4457820000000 1.0
C      1  0.5493080000000  0.5051700000000  0.4443870000000 1.0
C      1  0.5032640000000  0.5541280000000  0.5542980000000 1.0
C      1  0.5493410000000  0.4964160000000  0.5562020000000 1.0
C      1  0.4988760000000  0.4453130000000  0.5606070000000 1.0
C      1  0.4484280000000  0.5032650000000  0.5531730000000 1.0
C      1  0.4974830000000  0.4638080000000  0.5838620000000 1.0
C      1  0.5354510000000  0.4988580000000  0.5818820000000 1.0
C      1  0.5023130000000  0.5380600000000  0.5789250000000 1.0
C      1  0.4642260000000  0.5035170000000  0.5780700000000 1.0
C      1  0.5022450000000  0.4638030000000  0.4211880000000 1.0
C      1  0.4642260000000  0.4983350000000  0.4221570000000 1.0
C      1  0.4975040000000  0.5380770000000  0.4166550000000 1.0
C      1  0.5354300000000  0.5029190000000  0.4186360000000 1.0
C      1  0.4987760000000  0.5010340000000  0.4856680000000 1.0
C      1  0.4991210000000  0.5019230000000  0.5168790000000 1.0
C      1  0.5067220000000  0.4810090000000  0.5351390000000 1.0
C      1  0.5068450000000  0.5206860000000  0.4658770000000 1.0
END
