TITL C-3985259-1859-346 5.77423847739195e-06 125000 -313.84380530053 0 0 60 (Th) n - 1
REM
REM in /home/nfs/bkarasulu/CARBON/AIRSS/Generating-Clusters/TERSOFF/Higher-Symm/Only-C60
REM
REM
REM
REM
REM
REM ./C.cell (28575a23ae977d3b5fae324c64b13b57)
REM
REM compiler GCC version 9.2.1 20190827 (Red Hat 9.2.1-1)
REM options -cpp -mtune=generic -march=x86-64 -g -O0 -fpre-include=/usr/include/finclude/math-vector-fortran.h
REM seed -89071504 697327182 -843392880 311927138 1898635882 -1516439872 365626601 306396872 674168320 -1699519528 1572627261 1159496566 396252179 1251178289 -641705608 -550536538 1001396117 -968235577 -1532692480 -1388378877 -148614564 1450032250 565997816 -1065456114 1233934852 856772845 -1835744429 1567060271 -2026861219 275055199 -691925313 1711337399 -453547927
REM
CELL 1.54180   50.00000   50.00000   50.00000   90.00000   90.00000   90.00000
LATT -1
SFAC C  
C      1  0.5252910000000  0.4852300000000  0.5672920000000 1.0
C      1  0.4852300000000  0.5672920000000  0.5252910000000 1.0
C      1  0.5672920000000  0.5252910000000  0.4852300000000 1.0
C      1  0.4747090000000  0.5147700000000  0.5672920000000 1.0
C      1  0.5252910000000  0.5147700000000  0.4327080000000 1.0
C      1  0.4747090000000  0.4852300000000  0.4327080000000 1.0
C      1  0.5147700000000  0.4327080000000  0.5252910000000 1.0
C      1  0.4852300000000  0.4327080000000  0.4747090000000 1.0
C      1  0.5147700000000  0.5672920000000  0.4747090000000 1.0
C      1  0.4327080000000  0.4747090000000  0.4852300000000 1.0
C      1  0.5672920000000  0.4747090000000  0.5147700000000 1.0
C      1  0.4327080000000  0.5252910000000  0.5147700000000 1.0
C      1  0.5252910000000  0.4852300000000  0.4327080000000 1.0
C      1  0.4852300000000  0.5672920000000  0.4747090000000 1.0
C      1  0.5672920000000  0.5252910000000  0.5147700000000 1.0
C      1  0.4747090000000  0.5147700000000  0.4327080000000 1.0
C      1  0.5252910000000  0.5147700000000  0.5672920000000 1.0
C      1  0.4747090000000  0.4852300000000  0.5672920000000 1.0
C      1  0.5147700000000  0.4327080000000  0.4747090000000 1.0
C      1  0.4852300000000  0.4327080000000  0.5252910000000 1.0
C      1  0.5147700000000  0.5672920000000  0.5252910000000 1.0
C      1  0.4327080000000  0.4747090000000  0.5147700000000 1.0
C      1  0.5672920000000  0.4747090000000  0.4852300000000 1.0
C      1  0.4327080000000  0.5252910000000  0.4852300000000 1.0
C      1  0.4470620000000  0.5502260000000  0.4786880000000 1.0
C      1  0.5502260000000  0.4786880000000  0.4470620000000 1.0
C      1  0.4786880000000  0.4470620000000  0.5502260000000 1.0
C      1  0.5529380000000  0.4497740000000  0.4786880000000 1.0
C      1  0.4470620000000  0.4497740000000  0.5213120000000 1.0
C      1  0.5529380000000  0.5502260000000  0.5213120000000 1.0
C      1  0.4497740000000  0.5213120000000  0.4470620000000 1.0
C      1  0.5502260000000  0.5213120000000  0.5529380000000 1.0
C      1  0.4497740000000  0.4786880000000  0.5529380000000 1.0
C      1  0.5213120000000  0.5529380000000  0.5502260000000 1.0
C      1  0.4786880000000  0.5529380000000  0.4497740000000 1.0
C      1  0.5213120000000  0.4470620000000  0.4497740000000 1.0
C      1  0.4470620000000  0.5502260000000  0.5213120000000 1.0
C      1  0.5502260000000  0.4786880000000  0.5529380000000 1.0
C      1  0.4786880000000  0.4470620000000  0.4497740000000 1.0
C      1  0.5529380000000  0.4497740000000  0.5213120000000 1.0
C      1  0.4470620000000  0.4497740000000  0.4786880000000 1.0
C      1  0.5529380000000  0.5502260000000  0.4786880000000 1.0
C      1  0.4497740000000  0.5213120000000  0.5529380000000 1.0
C      1  0.5502260000000  0.5213120000000  0.4470620000000 1.0
C      1  0.4497740000000  0.4786880000000  0.4470620000000 1.0
C      1  0.5213120000000  0.5529380000000  0.4497740000000 1.0
C      1  0.4786880000000  0.5529380000000  0.5502260000000 1.0
C      1  0.5213120000000  0.4470620000000  0.5502260000000 1.0
C      1  0.5000000000000  0.5330160000000  0.4343340000000 1.0
C      1  0.5330160000000  0.4343340000000  0.5000000000000 1.0
C      1  0.4343340000000  0.5000000000000  0.5330160000000 1.0
C      1  0.5000000000000  0.4669840000000  0.4343340000000 1.0
C      1  0.5000000000000  0.4669840000000  0.5656660000000 1.0
C      1  0.5000000000000  0.5330160000000  0.5656660000000 1.0
C      1  0.4669840000000  0.5656660000000  0.5000000000000 1.0
C      1  0.5330160000000  0.5656660000000  0.5000000000000 1.0
C      1  0.4669840000000  0.4343340000000  0.5000000000000 1.0
C      1  0.5656660000000  0.5000000000000  0.5330160000000 1.0
C      1  0.4343340000000  0.5000000000000  0.4669840000000 1.0
C      1  0.5656660000000  0.5000000000000  0.4669840000000 1.0
END
