TITL C-3985244-725-118 -0.000352910802367205 125000 -287.810154880232 0 0 60 (D3d) n - 1
REM
REM in /home/nfs/bkarasulu/CARBON/AIRSS/Generating-Clusters/TERSOFF/Higher-Symm/Only-C60
REM
REM
REM
REM
REM
REM ./C.cell (28575a23ae977d3b5fae324c64b13b57)
REM
REM compiler GCC version 9.2.1 20190827 (Red Hat 9.2.1-1)
REM options -cpp -mtune=generic -march=x86-64 -g -O0 -fpre-include=/usr/include/finclude/math-vector-fortran.h
REM seed -2083867438 -1891235580 654280160 1147007745 -634803877 1747073770 551638223 -1370523681 823384173 2137005872 890519886 1712136435 1152557505 -117248269 1613459157 -205763154 -628231336 -630762375 1503015248 -1938555733 780322751 -1875764043 -1250216653 -993195540 81557937 -2049065416 1648433636 -249561576 -2136691139 2013961381 2113625402 -2043946428 -1485689158
REM
CELL 1.54180   50.00000   50.00000   50.00000   90.00000   90.00000   90.00000
LATT -1
SFAC C  
C      1  0.4344310000000  0.5388110000000  0.4819700000000 1.0
C      1  0.4991880000000  0.4238120000000  0.4819700000000 1.0
C      1  0.5663940000000  0.5373810000000  0.4819550000000 1.0
C      1  0.5655690000000  0.5388110000000  0.5180300000000 1.0
C      1  0.5008120000000  0.4238120000000  0.5180300000000 1.0
C      1  0.4336060000000  0.5373810000000  0.5180450000000 1.0
C      1  0.5655690000000  0.4611890000000  0.5180300000000 1.0
C      1  0.5008120000000  0.5761880000000  0.5180300000000 1.0
C      1  0.4336060000000  0.4626190000000  0.5180450000000 1.0
C      1  0.4344310000000  0.4611890000000  0.4819700000000 1.0
C      1  0.4991880000000  0.5761880000000  0.4819700000000 1.0
C      1  0.5663940000000  0.4626190000000  0.4819550000000 1.0
C      1  0.5255430000000  0.5140640000000  0.4616780000000 1.0
C      1  0.4750680000000  0.5151030000000  0.4616570000000 1.0
C      1  0.4993870000000  0.4708610000000  0.4616810000000 1.0
C      1  0.4744570000000  0.5140640000000  0.5383220000000 1.0
C      1  0.5249320000000  0.5151030000000  0.5383430000000 1.0
C      1  0.5006130000000  0.4708610000000  0.5383190000000 1.0
C      1  0.4744570000000  0.4859360000000  0.5383220000000 1.0
C      1  0.5249320000000  0.4848970000000  0.5383430000000 1.0
C      1  0.5006130000000  0.5291390000000  0.5383190000000 1.0
C      1  0.5255430000000  0.4859360000000  0.4616780000000 1.0
C      1  0.4750680000000  0.4848970000000  0.4616570000000 1.0
C      1  0.4993870000000  0.5291390000000  0.4616810000000 1.0
C      1  0.4613200000000  0.5306760000000  0.5628910000000 1.0
C      1  0.4927890000000  0.4511440000000  0.5628770000000 1.0
C      1  0.5459200000000  0.5181640000000  0.5628750000000 1.0
C      1  0.5386800000000  0.5306760000000  0.4371090000000 1.0
C      1  0.5072110000000  0.4511440000000  0.4371230000000 1.0
C      1  0.4540800000000  0.5181640000000  0.4371250000000 1.0
C      1  0.5386800000000  0.4693240000000  0.4371090000000 1.0
C      1  0.5072110000000  0.5488560000000  0.4371230000000 1.0
C      1  0.4540800000000  0.4818360000000  0.4371250000000 1.0
C      1  0.4613200000000  0.4693240000000  0.5628910000000 1.0
C      1  0.4927890000000  0.5488560000000  0.5628770000000 1.0
C      1  0.5459200000000  0.4818360000000  0.5628750000000 1.0
C      1  0.4522390000000  0.4504420000000  0.4547130000000 1.0
C      1  0.5668160000000  0.4834280000000  0.4547330000000 1.0
C      1  0.4809810000000  0.5661370000000  0.4547220000000 1.0
C      1  0.5477610000000  0.4504420000000  0.5452870000000 1.0
C      1  0.4331840000000  0.4834280000000  0.5452670000000 1.0
C      1  0.5190190000000  0.5661370000000  0.5452780000000 1.0
C      1  0.5477610000000  0.5495580000000  0.5452870000000 1.0
C      1  0.4331840000000  0.5165720000000  0.5452670000000 1.0
C      1  0.5190190000000  0.4338630000000  0.5452780000000 1.0
C      1  0.4522390000000  0.5495580000000  0.4547130000000 1.0
C      1  0.5668160000000  0.5165720000000  0.4547330000000 1.0
C      1  0.4809810000000  0.4338630000000  0.4547220000000 1.0
C      1  0.5353870000000  0.5294530000000  0.4869580000000 1.0
C      1  0.4567890000000  0.5159220000000  0.4869540000000 1.0
C      1  0.5078200000000  0.4546310000000  0.4869430000000 1.0
C      1  0.4646130000000  0.5294530000000  0.5130420000000 1.0
C      1  0.5432110000000  0.5159220000000  0.5130460000000 1.0
C      1  0.4921800000000  0.4546310000000  0.5130570000000 1.0
C      1  0.4646130000000  0.4705470000000  0.5130420000000 1.0
C      1  0.5432110000000  0.4840780000000  0.5130460000000 1.0
C      1  0.4921800000000  0.5453690000000  0.5130570000000 1.0
C      1  0.5353870000000  0.4705470000000  0.4869580000000 1.0
C      1  0.4567890000000  0.4840780000000  0.4869540000000 1.0
C      1  0.5078200000000  0.5453690000000  0.4869430000000 1.0
END
