TITL C-3985245-9316-992 0.000462640587390743 125000 -315.143321206305 0 0 60 (C3) n - 1
REM
REM in /home/nfs/bkarasulu/CARBON/AIRSS/Generating-Clusters/TERSOFF/Higher-Symm/Only-C60
REM
REM
REM
REM
REM
REM ./C.cell (28575a23ae977d3b5fae324c64b13b57)
REM
REM compiler GCC version 9.2.1 20190827 (Red Hat 9.2.1-1)
REM options -cpp -mtune=generic -march=x86-64 -g -O0 -fpre-include=/usr/include/finclude/math-vector-fortran.h
REM seed -873991131 -2069273130 1657849249 -1459623058 1371109232 -571342935 331734024 1090106339 -717090837 1587709096 1751171480 1810641257 584297420 -2050238143 -1674089549 -780682566 1255765128 -7760604 1872214929 -2110564368 1070392851 -2094198520 -341039311 44001552 530384134 380268004 576610997 1680690687 -1201246549 -884787644 -1395334253 -1653210460 -1705780328
REM
CELL 1.54180   50.00000   50.00000   50.00000   90.00000   90.00000   90.00000
LATT -1
SFAC C  
C      1  0.5230780000000  0.5152600000000  0.5416970000000 1.0
C      1  0.5245840000000  0.5152590000000  0.4591590000000 1.0
C      1  0.4523450000000  0.5152500000000  0.4991300000000 1.0
C      1  0.4769220000000  0.5152600000000  0.5416970000000 1.0
C      1  0.4754160000000  0.5152590000000  0.4591590000000 1.0
C      1  0.5476550000000  0.5152500000000  0.4991300000000 1.0
C      1  0.5493040000000  0.4947570000000  0.4321210000000 1.0
C      1  0.4165670000000  0.4947500000000  0.4912370000000 1.0
C      1  0.5341390000000  0.4947570000000  0.5766290000000 1.0
C      1  0.4506960000000  0.4947570000000  0.4321210000000 1.0
C      1  0.5834330000000  0.4947500000000  0.4912370000000 1.0
C      1  0.4658610000000  0.4947570000000  0.5766290000000 1.0
C      1  0.4756700000000  0.4653740000000  0.4605320000000 1.0
C      1  0.4779800000000  0.4653730000000  0.5407980000000 1.0
C      1  0.5463420000000  0.4653780000000  0.4986590000000 1.0
C      1  0.5243300000000  0.4653740000000  0.4605320000000 1.0
C      1  0.5220200000000  0.4653730000000  0.5407980000000 1.0
C      1  0.4536580000000  0.4653780000000  0.4986590000000 1.0
C      1  0.4851820000000  0.4909130000000  0.4739230000000 1.0
C      1  0.4848260000000  0.4909130000000  0.5258620000000 1.0
C      1  0.5299960000000  0.4909110000000  0.5002000000000 1.0
C      1  0.5148180000000  0.4909130000000  0.4739230000000 1.0
C      1  0.5151740000000  0.4909130000000  0.5258620000000 1.0
C      1  0.4700040000000  0.4909110000000  0.5002000000000 1.0
C      1  0.4837100000000  0.5439670000000  0.4712230000000 1.0
C      1  0.4832310000000  0.5439690000000  0.5284960000000 1.0
C      1  0.5330640000000  0.5439710000000  0.5002760000000 1.0
C      1  0.5162900000000  0.5439670000000  0.4712230000000 1.0
C      1  0.5167690000000  0.5439690000000  0.5284960000000 1.0
C      1  0.4669360000000  0.5439710000000  0.5002760000000 1.0
C      1  0.4456330000000  0.5131950000000  0.5522660000000 1.0
C      1  0.5724550000000  0.5131960000000  0.5209610000000 1.0
C      1  0.4819210000000  0.5131920000000  0.4267740000000 1.0
C      1  0.5543670000000  0.5131950000000  0.5522660000000 1.0
C      1  0.4275450000000  0.5131960000000  0.5209610000000 1.0
C      1  0.5180790000000  0.5131920000000  0.4267740000000 1.0
C      1  0.4356980000000  0.5484220000000  0.5184650000000 1.0
C      1  0.5481220000000  0.5484210000000  0.5465200000000 1.0
C      1  0.5161950000000  0.5484150000000  0.4350660000000 1.0
C      1  0.5643020000000  0.5484220000000  0.5184650000000 1.0
C      1  0.4518780000000  0.5484210000000  0.5465200000000 1.0
C      1  0.4838050000000  0.5484150000000  0.4350660000000 1.0
C      1  0.4447320000000  0.5184530000000  0.4514270000000 1.0
C      1  0.4855530000000  0.5184830000000  0.5721460000000 1.0
C      1  0.5697000000000  0.5184530000000  0.4764380000000 1.0
C      1  0.5552680000000  0.5184530000000  0.4514270000000 1.0
C      1  0.5144470000000  0.5184830000000  0.5721460000000 1.0
C      1  0.4303000000000  0.5184530000000  0.4764380000000 1.0
C      1  0.5523120000000  0.4694730000000  0.4507150000000 1.0
C      1  0.4311570000000  0.4694760000000  0.4793460000000 1.0
C      1  0.5165260000000  0.4694760000000  0.5699390000000 1.0
C      1  0.4476880000000  0.4694730000000  0.4507150000000 1.0
C      1  0.5688430000000  0.4694760000000  0.4793460000000 1.0
C      1  0.4834740000000  0.4694760000000  0.5699390000000 1.0
C      1  0.5299800000000  0.4401870000000  0.5000610000000 1.0
C      1  0.4850640000000  0.4401800000000  0.4740060000000 1.0
C      1  0.4849550000000  0.4401780000000  0.5259290000000 1.0
C      1  0.4700200000000  0.4401870000000  0.5000610000000 1.0
C      1  0.5149360000000  0.4401800000000  0.4740060000000 1.0
C      1  0.5150450000000  0.4401780000000  0.5259290000000 1.0
END
