TITL C-599893-4344-696 -0.000392739064302954 125000 -513.033616533923 0 0 84 (C1) n - 1
REM
REM in /home/nfs/bkarasulu/CARBON/AIRSS/Generating-Clusters/TERSOFF/Only-C1/FIRE-HFTN
REM
REM
REM
REM
REM
REM ./C.cell (11c1c37f851c82e70ff6c80c92926a4b)
REM AIRSS Version 0.9.1 bugfix July 2018 build 013d7b7c2542+ Fri, 06 Jul 2018 19:26:36 +0100
REM compiler GCC version 9.2.1 20190827 (Red Hat 9.2.1-1)
REM options -cpp -mtune=generic -march=x86-64 -g -O0 -fpre-include=/usr/include/finclude/math-vector-fortran.h
REM seed 2010040224 1450393869 -1597853885 947979422 -1810062380 -1899669053 1827723554 -1868981879 704301652 139911245 584049075 1535518817 -799767294 -671284859 -1500929781 1437921498 1225248283 644980855 817472173 -175148511 91686206 -506926100 1337039874 131134897 48612844 847377507 -1383639592 207663851 -627551580 -238838384 395828696 -193848701 -1971742378
REM
CELL 1.54180   50.00000   50.00000   50.00000   90.00000   90.00000   90.00000
LATT -1
SFAC C  
C      1  0.4190390000000  0.5615060000000  0.5624790000000 1.0
C      1  0.5016460000000  0.4841980000000  0.4415480000000 1.0
C      1  0.6070760000000  0.5192280000000  0.4289320000000 1.0
C      1  0.3808880000000  0.5539240000000  0.5293650000000 1.0
C      1  0.5113870000000  0.4637380000000  0.4601380000000 1.0
C      1  0.4073700000000  0.4929390000000  0.5001690000000 1.0
C      1  0.5215550000000  0.5000430000000  0.4262400000000 1.0
C      1  0.5522720000000  0.4955050000000  0.4931070000000 1.0
C      1  0.4705090000000  0.5667430000000  0.4216790000000 1.0
C      1  0.5489200000000  0.4920590000000  0.4227320000000 1.0
C      1  0.5275000000000  0.5570750000000  0.5465680000000 1.0
C      1  0.5326690000000  0.6411150000000  0.3980880000000 1.0
C      1  0.4650730000000  0.4999120000000  0.4731360000000 1.0
C      1  0.5253230000000  0.5562590000000  0.5753050000000 1.0
C      1  0.5697170000000  0.5215700000000  0.4943820000000 1.0
C      1  0.4970020000000  0.4207540000000  0.5212930000000 1.0
C      1  0.4684950000000  0.5268010000000  0.4813240000000 1.0
C      1  0.4676120000000  0.4839700000000  0.5958990000000 1.0
C      1  0.5007620000000  0.5558170000000  0.5361140000000 1.0
C      1  0.5289690000000  0.4081920000000  0.4565000000000 1.0
C      1  0.5677010000000  0.4943170000000  0.4439650000000 1.0
C      1  0.5448690000000  0.4146760000000  0.4777120000000 1.0
C      1  0.5086940000000  0.3867150000000  0.5572770000000 1.0
C      1  0.5320330000000  0.5118470000000  0.5738330000000 1.0
C      1  0.4130680000000  0.4798240000000  0.4751050000000 1.0
C      1  0.5143990000000  0.4692470000000  0.5516310000000 1.0
C      1  0.4980840000000  0.4497980000000  0.4813670000000 1.0
C      1  0.4271950000000  0.4711860000000  0.4534450000000 1.0
C      1  0.4684250000000  0.5534180000000  0.5726710000000 1.0
C      1  0.4708060000000  0.4537210000000  0.4844370000000 1.0
C      1  0.4812990000000  0.5685230000000  0.5525560000000 1.0
C      1  0.5112830000000  0.4356330000000  0.5023660000000 1.0
C      1  0.5231570000000  0.5078440000000  0.4967650000000 1.0
C      1  0.5397180000000  0.4316700000000  0.5001550000000 1.0
C      1  0.3767810000000  0.5338280000000  0.5123570000000 1.0
C      1  0.4654630000000  0.5169780000000  0.4278820000000 1.0
C      1  0.5565700000000  0.4478750000000  0.5167470000000 1.0
C      1  0.4243670000000  0.5034390000000  0.5488840000000 1.0
C      1  0.5066380000000  0.4123420000000  0.4417690000000 1.0
C      1  0.5335340000000  0.3834230000000  0.5665540000000 1.0
C      1  0.4595600000000  0.4783770000000  0.4907310000000 1.0
C      1  0.4644840000000  0.5082660000000  0.5828420000000 1.0
C      1  0.4409270000000  0.5457620000000  0.5690290000000 1.0
C      1  0.5571260000000  0.4816780000000  0.4671190000000 1.0
C      1  0.5574430000000  0.3951420000000  0.5645770000000 1.0
C      1  0.4859870000000  0.5871850000000  0.4139380000000 1.0
C      1  0.5240830000000  0.5503710000000  0.4413370000000 1.0
C      1  0.5198560000000  0.5281620000000  0.4244020000000 1.0
C      1  0.3969010000000  0.5643350000000  0.5479450000000 1.0
C      1  0.4981640000000  0.4845310000000  0.5359850000000 1.0
C      1  0.4840370000000  0.4246540000000  0.4334710000000 1.0
C      1  0.4829280000000  0.5433550000000  0.4635230000000 1.0
C      1  0.5574060000000  0.4774730000000  0.5158040000000 1.0
C      1  0.5886550000000  0.5245880000000  0.4738920000000 1.0
C      1  0.4681120000000  0.5341340000000  0.5081080000000 1.0
C      1  0.5681420000000  0.4416570000000  0.5430590000000 1.0
C      1  0.4645980000000  0.4434080000000  0.4319880000000 1.0
C      1  0.5514160000000  0.5414620000000  0.5058740000000 1.0
C      1  0.5498910000000  0.5137480000000  0.5506140000000 1.0
C      1  0.4914310000000  0.5318630000000  0.5236380000000 1.0
C      1  0.5117410000000  0.5468260000000  0.4669740000000 1.0
C      1  0.5129850000000  0.5312370000000  0.5839410000000 1.0
C      1  0.4840750000000  0.5303010000000  0.5836240000000 1.0
C      1  0.5271600000000  0.5365260000000  0.4889180000000 1.0
C      1  0.4508370000000  0.4811930000000  0.5170390000000 1.0
C      1  0.5698620000000  0.4165100000000  0.5546450000000 1.0
C      1  0.4713400000000  0.5434070000000  0.4369720000000 1.0
C      1  0.3861060000000  0.5111720000000  0.5018980000000 1.0
C      1  0.5055860000000  0.5066510000000  0.5196040000000 1.0
C      1  0.4399800000000  0.5166220000000  0.5685810000000 1.0
C      1  0.5886570000000  0.5129950000000  0.4479830000000 1.0
C      1  0.4710380000000  0.4608060000000  0.6073350000000 1.0
C      1  0.5129860000000  0.5946910000000  0.4169440000000 1.0
C      1  0.5392550000000  0.4612150000000  0.4609530000000 1.0
C      1  0.4951860000000  0.4020700000000  0.5401470000000 1.0
C      1  0.4524840000000  0.4682190000000  0.4395680000000 1.0
C      1  0.4716910000000  0.4919620000000  0.4436540000000 1.0
C      1  0.5231360000000  0.6186430000000  0.4072180000000 1.0
C      1  0.4708470000000  0.4780740000000  0.5361220000000 1.0
C      1  0.5625490000000  0.4895690000000  0.5421190000000 1.0
C      1  0.4254580000000  0.4917530000000  0.5228740000000 1.0
C      1  0.5288680000000  0.5758310000000  0.4306740000000 1.0
C      1  0.5469800000000  0.5392160000000  0.5347670000000 1.0
C      1  0.5721760000000  0.4667060000000  0.5570950000000 1.0
END
