TITL C-599897-7526-416 0.0947295923261854 125000 -929.609247387916 0 0 152 (C1) n - 1
REM
REM in /home/nfs/bkarasulu/CARBON/AIRSS/Generating-Clusters/TERSOFF/Only-C1/FIRE-HFTN
REM
REM
REM
REM
REM
REM ./C.cell (11c1c37f851c82e70ff6c80c92926a4b)
REM AIRSS Version 0.9.1 bugfix July 2018 build 013d7b7c2542+ Fri, 06 Jul 2018 19:26:36 +0100
REM compiler GCC version 9.2.1 20190827 (Red Hat 9.2.1-1)
REM options -cpp -mtune=generic -march=x86-64 -g -O0 -fpre-include=/usr/include/finclude/math-vector-fortran.h
REM seed 1019043423 435463183 1609532511 -342096355 422708143 690523242 -1004580420 1578556620 861802563 -1804111751 -2060866965 1982632211 -1261567505 -526674885 -1212626976 -1378836689 1065553135 -618506546 -1684831686 -168317309 -202955341 1488454644 -68390203 1246308341 -813725490 1221520629 -888236593 342575182 -285016182 1438000735 1495696620 -488702116 1585838192
REM
CELL 1.54180   50.00000   50.00000   50.00000   90.00000   90.00000   90.00000
LATT -1
SFAC C  
C      1  0.5675690000000  0.4867740000000  0.4332110000000 1.0
C      1  0.5272850000000  0.4964410000000  0.3874230000000 1.0
C      1  0.6166640000000  0.4480760000000  0.5473590000000 1.0
C      1  0.5109340000000  0.5136280000000  0.5411250000000 1.0
C      1  0.4165920000000  0.4834890000000  0.4201380000000 1.0
C      1  0.4362140000000  0.5424130000000  0.5840660000000 1.0
C      1  0.4920660000000  0.5031970000000  0.4426670000000 1.0
C      1  0.5888300000000  0.4805340000000  0.4514350000000 1.0
C      1  0.4705040000000  0.5959190000000  0.5068410000000 1.0
C      1  0.5239440000000  0.4685470000000  0.4882680000000 1.0
C      1  0.6029620000000  0.4708360000000  0.5441110000000 1.0
C      1  0.5181340000000  0.5983030000000  0.4310540000000 1.0
C      1  0.5233800000000  0.4933450000000  0.5003460000000 1.0
C      1  0.4751050000000  0.4378160000000  0.4920400000000 1.0
C      1  0.5183680000000  0.5788310000000  0.5674100000000 1.0
C      1  0.4325400000000  0.4945800000000  0.5772440000000 1.0
C      1  0.5636260000000  0.4125900000000  0.5387160000000 1.0
C      1  0.5477680000000  0.5054730000000  0.4399480000000 1.0
C      1  0.5190550000000  0.4407200000000  0.5253970000000 1.0
C      1  0.4255440000000  0.5212030000000  0.5630420000000 1.0
C      1  0.4694200000000  0.4383020000000  0.5189140000000 1.0
C      1  0.4450850000000  0.5269380000000  0.5411040000000 1.0
C      1  0.5226920000000  0.4293220000000  0.4544700000000 1.0
C      1  0.4609990000000  0.4684850000000  0.4615510000000 1.0
C      1  0.4741070000000  0.5245160000000  0.4429600000000 1.0
C      1  0.5706280000000  0.4660970000000  0.5972570000000 1.0
C      1  0.5831250000000  0.5520360000000  0.5840270000000 1.0
C      1  0.5780400000000  0.4642160000000  0.4739860000000 1.0
C      1  0.5889260000000  0.5141170000000  0.5545160000000 1.0
C      1  0.3991360000000  0.5186960000000  0.5479710000000 1.0
C      1  0.6058060000000  0.4252580000000  0.5568260000000 1.0
C      1  0.5212750000000  0.4127830000000  0.5150860000000 1.0
C      1  0.4523690000000  0.5859050000000  0.5562680000000 1.0
C      1  0.3963390000000  0.5016140000000  0.4620180000000 1.0
C      1  0.4094540000000  0.5270930000000  0.4602890000000 1.0
C      1  0.3853440000000  0.4667510000000  0.5403580000000 1.0
C      1  0.4347940000000  0.4397660000000  0.4164270000000 1.0
C      1  0.4209970000000  0.4409150000000  0.5143120000000 1.0
C      1  0.4439920000000  0.4993530000000  0.6032000000000 1.0
C      1  0.4495850000000  0.5291690000000  0.4853890000000 1.0
C      1  0.4728820000000  0.5464790000000  0.4852080000000 1.0
C      1  0.5364760000000  0.5664730000000  0.4043450000000 1.0
C      1  0.4690900000000  0.4423090000000  0.4660340000000 1.0
C      1  0.5437460000000  0.5923720000000  0.4436120000000 1.0
C      1  0.4456740000000  0.4791890000000  0.4841030000000 1.0
C      1  0.4433090000000  0.4246010000000  0.5221350000000 1.0
C      1  0.5694810000000  0.4423580000000  0.5829120000000 1.0
C      1  0.4887930000000  0.4963780000000  0.5344800000000 1.0
C      1  0.4410970000000  0.5688230000000  0.5741410000000 1.0
C      1  0.6045020000000  0.5583760000000  0.5021830000000 1.0
C      1  0.4238690000000  0.4298870000000  0.4418450000000 1.0
C      1  0.4833710000000  0.4654190000000  0.4163160000000 1.0
C      1  0.5531900000000  0.4770300000000  0.5508360000000 1.0
C      1  0.4708620000000  0.5068610000000  0.3928440000000 1.0
C      1  0.6111470000000  0.5176840000000  0.4263290000000 1.0
C      1  0.4806100000000  0.3897480000000  0.4851800000000 1.0
C      1  0.5335040000000  0.4523380000000  0.4157490000000 1.0
C      1  0.4557810000000  0.5035640000000  0.4935260000000 1.0
C      1  0.5061230000000  0.5623720000000  0.5232160000000 1.0
C      1  0.3785300000000  0.5203360000000  0.5046580000000 1.0
C      1  0.4871180000000  0.5624290000000  0.4142690000000 1.0
C      1  0.4788700000000  0.5480680000000  0.4576190000000 1.0
C      1  0.4732400000000  0.5915760000000  0.5373650000000 1.0
C      1  0.4043680000000  0.4788450000000  0.4459240000000 1.0
C      1  0.4478450000000  0.4468620000000  0.5705340000000 1.0
C      1  0.5024870000000  0.5095040000000  0.4903520000000 1.0
C      1  0.5122940000000  0.5255720000000  0.5659870000000 1.0
C      1  0.4960530000000  0.4590230000000  0.5965100000000 1.0
C      1  0.3937060000000  0.5348530000000  0.5241980000000 1.0
C      1  0.4631240000000  0.4244580000000  0.5721690000000 1.0
C      1  0.5679830000000  0.4932280000000  0.6028750000000 1.0
C      1  0.5318370000000  0.5098780000000  0.5229980000000 1.0
C      1  0.4635830000000  0.3986670000000  0.4621270000000 1.0
C      1  0.5296550000000  0.5681970000000  0.5091540000000 1.0
C      1  0.5041260000000  0.4455930000000  0.4164560000000 1.0
C      1  0.5000070000000  0.5803030000000  0.5452690000000 1.0
C      1  0.4894420000000  0.5302550000000  0.3969220000000 1.0
C      1  0.5713020000000  0.5892780000000  0.4843150000000 1.0
C      1  0.6178850000000  0.5395840000000  0.4879970000000 1.0
C      1  0.5183670000000  0.4451810000000  0.4771210000000 1.0
C      1  0.4813300000000  0.5295690000000  0.6022330000000 1.0
C      1  0.4389000000000  0.4722010000000  0.5607320000000 1.0
C      1  0.4496330000000  0.5250430000000  0.4287610000000 1.0
C      1  0.4558320000000  0.4790940000000  0.6183420000000 1.0
C      1  0.5471780000000  0.4623400000000  0.5257800000000 1.0
C      1  0.4380540000000  0.4776890000000  0.5327560000000 1.0
C      1  0.5061450000000  0.4685680000000  0.5722030000000 1.0
C      1  0.4631990000000  0.4788060000000  0.3998040000000 1.0
C      1  0.4564980000000  0.5877690000000  0.4579300000000 1.0
C      1  0.5548690000000  0.5537180000000  0.5125540000000 1.0
C      1  0.5663010000000  0.4388410000000  0.4653140000000 1.0
C      1  0.4070700000000  0.5593990000000  0.5154700000000 1.0
C      1  0.5810570000000  0.4874760000000  0.5508310000000 1.0
C      1  0.5036300000000  0.5114080000000  0.6094890000000 1.0
C      1  0.5365020000000  0.5654900000000  0.5831550000000 1.0
C      1  0.4769450000000  0.4208910000000  0.4491980000000 1.0
C      1  0.5625440000000  0.4189560000000  0.4872340000000 1.0
C      1  0.5257260000000  0.5085250000000  0.5873110000000 1.0
C      1  0.5820720000000  0.5614990000000  0.4225930000000 1.0
C      1  0.5197990000000  0.5032710000000  0.4375990000000 1.0
C      1  0.4309140000000  0.5353010000000  0.4135630000000 1.0
C      1  0.5565030000000  0.5252680000000  0.4585840000000 1.0
C      1  0.5108150000000  0.5784420000000  0.4112580000000 1.0
C      1  0.4829110000000  0.5503560000000  0.5117210000000 1.0
C      1  0.4530430000000  0.5268250000000  0.6031610000000 1.0
C      1  0.5470440000000  0.4392100000000  0.4410760000000 1.0
C      1  0.5380140000000  0.4734600000000  0.3970770000000 1.0
C      1  0.5675820000000  0.4762870000000  0.5000130000000 1.0
C      1  0.4955850000000  0.3957270000000  0.5113160000000 1.0
C      1  0.3789670000000  0.5022340000000  0.4844690000000 1.0
C      1  0.6054630000000  0.5198500000000  0.4725820000000 1.0
C      1  0.5168360000000  0.5230130000000  0.3888150000000 1.0
C      1  0.4478780000000  0.5866620000000  0.4873330000000 1.0
C      1  0.5010170000000  0.4249660000000  0.4365010000000 1.0
C      1  0.5565650000000  0.5461900000000  0.5917920000000 1.0
C      1  0.4261750000000  0.5422610000000  0.4771180000000 1.0
C      1  0.5772790000000  0.5188490000000  0.4768460000000 1.0
C      1  0.4769080000000  0.3931000000000  0.5345780000000 1.0
C      1  0.5462030000000  0.5942000000000  0.4718420000000 1.0
C      1  0.5776470000000  0.4240930000000  0.5613250000000 1.0
C      1  0.5963360000000  0.5369400000000  0.5661520000000 1.0
C      1  0.5549300000000  0.5247730000000  0.5172910000000 1.0
C      1  0.5505950000000  0.4101780000000  0.5126460000000 1.0
C      1  0.5354570000000  0.5440880000000  0.3879460000000 1.0
C      1  0.4244830000000  0.5670960000000  0.4930600000000 1.0
C      1  0.5241560000000  0.5898330000000  0.4900640000000 1.0
C      1  0.4645290000000  0.5414040000000  0.5309970000000 1.0
C      1  0.4368190000000  0.4676400000000  0.4073600000000 1.0
C      1  0.4069870000000  0.4507070000000  0.4536810000000 1.0
C      1  0.3866830000000  0.4925760000000  0.5484850000000 1.0
C      1  0.4729740000000  0.5704260000000  0.4404080000000 1.0
C      1  0.5353520000000  0.5415800000000  0.4665460000000 1.0
C      1  0.4323150000000  0.4665680000000  0.5064390000000 1.0
C      1  0.4921300000000  0.4484580000000  0.5325980000000 1.0
C      1  0.5522030000000  0.5175880000000  0.5974280000000 1.0
C      1  0.5569250000000  0.5741610000000  0.4238230000000 1.0
C      1  0.5315520000000  0.4823560000000  0.5711890000000 1.0
C      1  0.4971410000000  0.6006200000000  0.4933570000000 1.0
C      1  0.4790660000000  0.4786360000000  0.4419230000000 1.0
C      1  0.5780400000000  0.5681670000000  0.5022980000000 1.0
C      1  0.5700170000000  0.5061530000000  0.5008630000000 1.0
C      1  0.4785020000000  0.4047880000000  0.5609320000000 1.0
C      1  0.4908390000000  0.4713280000000  0.5483150000000 1.0
C      1  0.4913490000000  0.5407440000000  0.5777640000000 1.0
C      1  0.5996410000000  0.5413110000000  0.4194370000000 1.0
C      1  0.3962650000000  0.4451270000000  0.5278840000000 1.0
C      1  0.4352230000000  0.4057650000000  0.4553410000000 1.0
C      1  0.4489220000000  0.3971820000000  0.5267610000000 1.0
C      1  0.4802480000000  0.5016000000000  0.5070930000000 1.0
C      1  0.5130130000000  0.5319840000000  0.4776230000000 1.0
C      1  0.6089600000000  0.5022170000000  0.4503810000000 1.0
C      1  0.4771850000000  0.4631640000000  0.6150740000000 1.0
END
