TITL C-599896-8500-477 0.0091720477957395 125000 -701.853445220101 0 0 114 (C1) n - 1
REM
REM in /home/nfs/bkarasulu/CARBON/AIRSS/Generating-Clusters/TERSOFF/Only-C1/FIRE-HFTN
REM
REM
REM
REM
REM
REM ./C.cell (11c1c37f851c82e70ff6c80c92926a4b)
REM AIRSS Version 0.9.1 bugfix July 2018 build 013d7b7c2542+ Fri, 06 Jul 2018 19:26:36 +0100
REM compiler GCC version 9.2.1 20190827 (Red Hat 9.2.1-1)
REM options -cpp -mtune=generic -march=x86-64 -g -O0 -fpre-include=/usr/include/finclude/math-vector-fortran.h
REM seed 241329602 -148799748 -829046585 1583728912 -1150520875 -2001799213 -1755615310 536742880 -784952370 -1569059533 1428633765 -1221516851 -1865946888 1041462095 279431119 -1380126617 1135326339 -1619973978 1729992492 -340475410 121153618 -1861365361 1407804136 1119802713 832033747 -1994241886 -1736789755 390756253 -1426173345 -503043434 625366164 947393205 512065126
REM
CELL 1.54180   50.00000   50.00000   50.00000   90.00000   90.00000   90.00000
LATT -1
SFAC C  
C      1  0.4670890000000  0.5305350000000  0.4199280000000 1.0
C      1  0.4641860000000  0.5081500000000  0.4920450000000 1.0
C      1  0.4831050000000  0.4616970000000  0.4574540000000 1.0
C      1  0.4789060000000  0.4820720000000  0.4812420000000 1.0
C      1  0.5399300000000  0.5374350000000  0.4204690000000 1.0
C      1  0.4934520000000  0.4458850000000  0.5093320000000 1.0
C      1  0.4814990000000  0.3651280000000  0.5632610000000 1.0
C      1  0.4307300000000  0.5673240000000  0.5593530000000 1.0
C      1  0.5521000000000  0.4790910000000  0.5559230000000 1.0
C      1  0.5736480000000  0.5019570000000  0.5173130000000 1.0
C      1  0.5502850000000  0.5180070000000  0.5086780000000 1.0
C      1  0.5874960000000  0.5618030000000  0.5061030000000 1.0
C      1  0.3996800000000  0.6026640000000  0.4422640000000 1.0
C      1  0.5580610000000  0.4312640000000  0.5261220000000 1.0
C      1  0.5063910000000  0.4934450000000  0.4801370000000 1.0
C      1  0.4923260000000  0.5597750000000  0.4879590000000 1.0
C      1  0.4551830000000  0.5949360000000  0.5069440000000 1.0
C      1  0.5825540000000  0.4326810000000  0.4738010000000 1.0
C      1  0.4223440000000  0.4822200000000  0.4706930000000 1.0
C      1  0.4486930000000  0.4965740000000  0.5521930000000 1.0
C      1  0.5739040000000  0.4432070000000  0.4012660000000 1.0
C      1  0.5693240000000  0.5710320000000  0.4831230000000 1.0
C      1  0.4083770000000  0.5237340000000  0.5476950000000 1.0
C      1  0.4222410000000  0.5005210000000  0.5410370000000 1.0
C      1  0.4255380000000  0.4782160000000  0.6105410000000 1.0
C      1  0.4719990000000  0.5916990000000  0.5694580000000 1.0
C      1  0.5206520000000  0.4511660000000  0.5025490000000 1.0
C      1  0.5455110000000  0.5723050000000  0.5242510000000 1.0
C      1  0.4672320000000  0.6181360000000  0.5744560000000 1.0
C      1  0.4215900000000  0.4745050000000  0.3781330000000 1.0
C      1  0.5516600000000  0.5255360000000  0.4814170000000 1.0
C      1  0.5284430000000  0.4616370000000  0.5601990000000 1.0
C      1  0.4722910000000  0.4624570000000  0.5024140000000 1.0
C      1  0.5294620000000  0.5306780000000  0.4665610000000 1.0
C      1  0.5423350000000  0.5768180000000  0.4958920000000 1.0
C      1  0.4695230000000  0.4349470000000  0.4592600000000 1.0
C      1  0.4387400000000  0.4419520000000  0.5325020000000 1.0
C      1  0.4971170000000  0.4956550000000  0.5478250000000 1.0
C      1  0.4456230000000  0.4555720000000  0.5071740000000 1.0
C      1  0.5801760000000  0.4339210000000  0.4255110000000 1.0
C      1  0.4866790000000  0.4178940000000  0.5125470000000 1.0
C      1  0.4931010000000  0.5781710000000  0.5817500000000 1.0
C      1  0.5756710000000  0.5294570000000  0.4653010000000 1.0
C      1  0.5713790000000  0.5567260000000  0.4568330000000 1.0
C      1  0.5009370000000  0.4972600000000  0.4170630000000 1.0
C      1  0.5732470000000  0.5652790000000  0.5313850000000 1.0
C      1  0.4756140000000  0.4121620000000  0.5378760000000 1.0
C      1  0.5267320000000  0.4037010000000  0.4969050000000 1.0
C      1  0.5414990000000  0.4154360000000  0.4474590000000 1.0
C      1  0.5091100000000  0.5554140000000  0.5841140000000 1.0
C      1  0.5756310000000  0.5480280000000  0.5546640000000 1.0
C      1  0.4431140000000  0.4417810000000  0.4512810000000 1.0
C      1  0.4828240000000  0.5407050000000  0.4652740000000 1.0
C      1  0.5161050000000  0.5768510000000  0.4827490000000 1.0
C      1  0.5769800000000  0.4517960000000  0.5210180000000 1.0
C      1  0.5209180000000  0.5096840000000  0.5453580000000 1.0
C      1  0.5901850000000  0.4456460000000  0.4964580000000 1.0
C      1  0.4137000000000  0.5087730000000  0.4663320000000 1.0
C      1  0.5349120000000  0.5826300000000  0.4370680000000 1.0
C      1  0.4612890000000  0.4345500000000  0.5485370000000 1.0
C      1  0.5516720000000  0.4747390000000  0.4715730000000 1.0
C      1  0.4986670000000  0.4046320000000  0.4895970000000 1.0
C      1  0.5207200000000  0.5186800000000  0.4153010000000 1.0
C      1  0.5449770000000  0.5064480000000  0.5625370000000 1.0
C      1  0.5370410000000  0.4278300000000  0.5080980000000 1.0
C      1  0.5050520000000  0.5192100000000  0.4680800000000 1.0
C      1  0.4504580000000  0.4816190000000  0.5997780000000 1.0
C      1  0.5910350000000  0.5062980000000  0.4724890000000 1.0
C      1  0.4193000000000  0.5569580000000  0.4592480000000 1.0
C      1  0.4113630000000  0.4795150000000  0.5248450000000 1.0
C      1  0.4800920000000  0.4753490000000  0.6375060000000 1.0
C      1  0.4722630000000  0.5075100000000  0.5400300000000 1.0
C      1  0.4296160000000  0.5319920000000  0.4656620000000 1.0
C      1  0.5159120000000  0.4284620000000  0.4486600000000 1.0
C      1  0.4722740000000  0.4903730000000  0.6159770000000 1.0
C      1  0.4773370000000  0.5522450000000  0.5124520000000 1.0
C      1  0.4550550000000  0.4768210000000  0.5723080000000 1.0
C      1  0.5412020000000  0.3884200000000  0.4415710000000 1.0
C      1  0.4923720000000  0.4164880000000  0.4637490000000 1.0
C      1  0.4860350000000  0.5139820000000  0.6096410000000 1.0
C      1  0.5540310000000  0.5337740000000  0.5682340000000 1.0
C      1  0.5520840000000  0.4535770000000  0.3898600000000 1.0
C      1  0.5286500000000  0.5277780000000  0.5250860000000 1.0
C      1  0.5965420000000  0.5111670000000  0.5010970000000 1.0
C      1  0.5277390000000  0.5544850000000  0.5367720000000 1.0
C      1  0.5066110000000  0.4552760000000  0.4410070000000 1.0
C      1  0.4240460000000  0.4732780000000  0.4981990000000 1.0
C      1  0.5000890000000  0.4683420000000  0.5575750000000 1.0
C      1  0.4365090000000  0.4699060000000  0.4481080000000 1.0
C      1  0.4565120000000  0.5275410000000  0.4725580000000 1.0
C      1  0.4121170000000  0.5486050000000  0.5563400000000 1.0
C      1  0.5272440000000  0.4739920000000  0.4858710000000 1.0
C      1  0.4093490000000  0.5800090000000  0.4508000000000 1.0
C      1  0.5517810000000  0.5597940000000  0.4349330000000 1.0
C      1  0.4739050000000  0.4564250000000  0.5629980000000 1.0
C      1  0.4630800000000  0.5741260000000  0.5241810000000 1.0
C      1  0.5768390000000  0.4827710000000  0.4656940000000 1.0
C      1  0.5704420000000  0.4774520000000  0.5326800000000 1.0
C      1  0.4712040000000  0.5231660000000  0.5164570000000 1.0
C      1  0.5279170000000  0.4620430000000  0.3972150000000 1.0
C      1  0.4344910000000  0.4791150000000  0.4002990000000 1.0
C      1  0.5003270000000  0.5344450000000  0.6005350000000 1.0
C      1  0.5175680000000  0.5888350000000  0.4568840000000 1.0
C      1  0.4486480000000  0.4841610000000  0.4244400000000 1.0
C      1  0.4721100000000  0.5023460000000  0.4204470000000 1.0
C      1  0.5113870000000  0.4707980000000  0.4179730000000 1.0
C      1  0.4131860000000  0.4535970000000  0.5387180000000 1.0
C      1  0.5302110000000  0.5518520000000  0.5659270000000 1.0
C      1  0.4556750000000  0.5770830000000  0.5514090000000 1.0
C      1  0.6043710000000  0.5385820000000  0.5055580000000 1.0
C      1  0.5678440000000  0.4273550000000  0.4500420000000 1.0
C      1  0.4499510000000  0.6157850000000  0.4922110000000 1.0
C      1  0.4777370000000  0.5487280000000  0.4372320000000 1.0
C      1  0.4783430000000  0.3879590000000  0.5511010000000 1.0
END
