TITL C-599893-4344-492 1760.02656293138 125000 -917.346835831324 0 0 150 (C1) n - 1
REM
REM in /home/nfs/bkarasulu/CARBON/AIRSS/Generating-Clusters/TERSOFF/Only-C1/FIRE-HFTN
REM
REM
REM
REM
REM
REM ./C.cell (11c1c37f851c82e70ff6c80c92926a4b)
REM AIRSS Version 0.9.1 bugfix July 2018 build 013d7b7c2542+ Fri, 06 Jul 2018 19:26:36 +0100
REM compiler GCC version 9.2.1 20190827 (Red Hat 9.2.1-1)
REM options -cpp -mtune=generic -march=x86-64 -g -O0 -fpre-include=/usr/include/finclude/math-vector-fortran.h
REM seed 348546288 -1343950855 -785765119 -1436121025 786027539 390664676 1336397876 -1404799884 2095138667 -1824759878 -1591746767 -338926794 1531252736 1375900427 727613577 1968075242 -270646714 -589363258 1498675841 -1894994642 -1092420081 1650451602 -1945532807 -1075082369 1401156018 -158460974 -2140810680 781906737 208947315 806274614 367274306 309825421 1765199102
REM
CELL 1.54180   50.00000   50.00000   50.00000   90.00000   90.00000   90.00000
LATT -1
SFAC C  
C      1  0.5326290000000  0.5540540000000  0.4175090000000 1.0
C      1  0.5034030000000  0.5115750000000  0.4491670000000 1.0
C      1  0.5770160000000  0.5064940000000  0.4258780000000 1.0
C      1  0.5933580000000  0.4984720000000  0.5084080000000 1.0
C      1  0.5072630000000  0.6046070000000  0.4829340000000 1.0
C      1  0.4555000000000  0.5279960000000  0.5326800000000 1.0
C      1  0.5713660000000  0.4291500000000  0.5271320000000 1.0
C      1  0.4330400000000  0.4436390000000  0.5587440000000 1.0
C      1  0.5200860000000  0.5523030000000  0.5081900000000 1.0
C      1  0.4079390000000  0.5576000000000  0.5368790000000 1.0
C      1  0.4649880000000  0.3924600000000  0.5198810000000 1.0
C      1  0.4616340000000  0.4896580000000  0.3992410000000 1.0
C      1  0.4769660000000  0.4034050000000  0.5425730000000 1.0
C      1  0.3843150000000  0.5607740000000  0.4660430000000 1.0
C      1  0.5001070000000  0.5556940000000  0.6134390000000 1.0
C      1  0.5458490000000  0.5490100000000  0.5198780000000 1.0
C      1  0.4633090000000  0.6206380000000  0.5633440000000 1.0
C      1  0.5265830000000  0.5077090000000  0.5869900000000 1.0
C      1  0.5227670000000  0.5926060000000  0.5485010000000 1.0
C      1  0.4777420000000  0.4619330000000  0.5222880000000 1.0
C      1  0.4962850000000  0.4411900000000  0.5792300000000 1.0
C      1  0.5771880000000  0.5096720000000  0.5287080000000 1.0
C      1  0.5430640000000  0.4188640000000  0.5237510000000 1.0
C      1  0.6016480000000  0.4746170000000  0.4556020000000 1.0
C      1  0.4495690000000  0.5104660000000  0.5811720000000 1.0
C      1  0.4318220000000  0.5932930000000  0.5042210000000 1.0
C      1  0.5554910000000  0.5047980000000  0.4056630000000 1.0
C      1  0.4468590000000  0.5135790000000  0.4001450000000 1.0
C      1  0.4013770000000  0.4559260000000  0.4521610000000 1.0
C      1  0.4329830000000  0.4838170000000  0.5174250000000 1.0
C      1  0.5647230000000  0.5703190000000  0.5152470000000 1.0
C      1  0.5184610000000  0.4352620000000  0.4745290000000 1.0
C      1  0.3969900000000  0.5376920000000  0.4750700000000 1.0
C      1  0.4301960000000  0.5324370000000  0.5750490000000 1.0
C      1  0.4321950000000  0.4122910000000  0.4871280000000 1.0
C      1  0.6826040000000  0.5806980000000  0.4801040000000 1.0
C      1  0.4571540000000  0.4077140000000  0.4446600000000 1.0
C      1  0.4991610000000  0.4032800000000  0.4158460000000 1.0
C      1  0.4278020000000  0.4474820000000  0.4496480000000 1.0
C      1  0.5669780000000  0.4364000000000  0.4362330000000 1.0
C      1  0.5749550000000  0.4571150000000  0.5256700000000 1.0
C      1  0.4762550000000  0.4276610000000  0.4876190000000 1.0
C      1  0.5915720000000  0.5629190000000  0.5101390000000 1.0
C      1  0.4548380000000  0.4643730000000  0.4122270000000 1.0
C      1  0.5260020000000  0.4072850000000  0.4174380000000 1.0
C      1  0.5140030000000  0.5100830000000  0.5617530000000 1.0
C      1  0.5003760000000  0.5305690000000  0.5495210000000 1.0
C      1  0.4978780000000  0.5551760000000  0.5605360000000 1.0
C      1  0.4417200000000  0.5028910000000  0.5363370000000 1.0
C      1  0.4620580000000  0.4837200000000  0.4810930000000 1.0
C      1  0.4504070000000  0.5370570000000  0.4131430000000 1.0
C      1  0.4992410000000  0.4155210000000  0.4783590000000 1.0
C      1  0.5165100000000  0.4279050000000  0.5339980000000 1.0
C      1  0.5554630000000  0.5587600000000  0.4691460000000 1.0
C      1  0.7063990000000  0.5910820000000  0.4777290000000 1.0
C      1  0.5399330000000  0.3765280000000  0.4976420000000 1.0
C      1  0.4066310000000  0.4823260000000  0.5087450000000 1.0
C      1  0.4160090000000  0.5771800000000  0.5195900000000 1.0
C      1  0.4956720000000  0.4833960000000  0.4480990000000 1.0
C      1  0.4953400000000  0.3890760000000  0.4684550000000 1.0
C      1  0.4904610000000  0.5144850000000  0.5020440000000 1.0
C      1  0.4211810000000  0.4242310000000  0.5104600000000 1.0
C      1  0.6351850000000  0.5588690000000  0.4889510000000 1.0
C      1  0.5312410000000  0.4804300000000  0.5310250000000 1.0
C      1  0.4555190000000  0.4704780000000  0.5051160000000 1.0
C      1  0.5262350000000  0.4813620000000  0.5027960000000 1.0
C      1  0.5254360000000  0.6009250000000  0.5141140000000 1.0
C      1  0.4760780000000  0.5392720000000  0.6118310000000 1.0
C      1  0.5247400000000  0.5760110000000  0.4343190000000 1.0
C      1  0.4530760000000  0.5562400000000  0.6085510000000 1.0
C      1  0.4676490000000  0.5110710000000  0.4851920000000 1.0
C      1  0.4493700000000  0.4618710000000  0.5730430000000 1.0
C      1  0.4233250000000  0.4323180000000  0.5361990000000 1.0
C      1  0.5057140000000  0.5139740000000  0.4029820000000 1.0
C      1  0.6118050000000  0.5467680000000  0.4982750000000 1.0
C      1  0.5566510000000  0.5262710000000  0.5314580000000 1.0
C      1  0.5508860000000  0.5920920000000  0.5027830000000 1.0
C      1  0.5765330000000  0.4344380000000  0.4650450000000 1.0
C      1  0.5734920000000  0.4594610000000  0.4188800000000 1.0
C      1  0.5015680000000  0.4463450000000  0.5167050000000 1.0
C      1  0.4702110000000  0.5943200000000  0.5639570000000 1.0
C      1  0.5096910000000  0.4864580000000  0.5479870000000 1.0
C      1  0.4484220000000  0.4643550000000  0.4396030000000 1.0
C      1  0.4549290000000  0.4888710000000  0.5596890000000 1.0
C      1  0.5250710000000  0.5434800000000  0.6181090000000 1.0
C      1  0.4355150000000  0.4220200000000  0.4592660000000 1.0
C      1  0.5163610000000  0.5059950000000  0.4927540000000 1.0
C      1  0.4970950000000  0.4214520000000  0.5556410000000 1.0
C      1  0.4939510000000  0.5257930000000  0.4269920000000 1.0
C      1  0.5204230000000  0.4554030000000  0.5905910000000 1.0
C      1  0.3849380000000  0.4697170000000  0.4679540000000 1.0
C      1  0.4667080000000  0.3880350000000  0.4659530000000 1.0
C      1  0.5484910000000  0.5536070000000  0.5773690000000 1.0
C      1  0.5558900000000  0.4715320000000  0.5401720000000 1.0
C      1  0.3824300000000  0.5153360000000  0.4836500000000 1.0
C      1  0.5897730000000  0.4588070000000  0.4761540000000 1.0
C      1  0.5469330000000  0.4029510000000  0.4981600000000 1.0
C      1  0.5198170000000  0.4692750000000  0.4443600000000 1.0
C      1  0.5880440000000  0.4703720000000  0.5030710000000 1.0
C      1  0.4966930000000  0.4604820000000  0.3945290000000 1.0
C      1  0.5385370000000  0.5327250000000  0.5955510000000 1.0
C      1  0.4839370000000  0.5230770000000  0.5278510000000 1.0
C      1  0.4984490000000  0.5845160000000  0.5674790000000 1.0
C      1  0.5888960000000  0.4152800000000  0.5083340000000 1.0
C      1  0.5015430000000  0.5809750000000  0.5984200000000 1.0
C      1  0.5145320000000  0.4833770000000  0.5988680000000 1.0
C      1  0.4248960000000  0.5353920000000  0.4754260000000 1.0
C      1  0.5423150000000  0.4836090000000  0.4500510000000 1.0
C      1  0.4693850000000  0.4747990000000  0.4558780000000 1.0
C      1  0.4735900000000  0.4587670000000  0.5893630000000 1.0
C      1  0.5246220000000  0.5181190000000  0.4679170000000 1.0
C      1  0.4715760000000  0.5426390000000  0.4310700000000 1.0
C      1  0.4527300000000  0.3916340000000  0.4927430000000 1.0
C      1  0.4791300000000  0.5969860000000  0.4793080000000 1.0
C      1  0.5897230000000  0.4808490000000  0.4308850000000 1.0
C      1  0.4848970000000  0.4849940000000  0.6022850000000 1.0
C      1  0.6089790000000  0.5184650000000  0.4961010000000 1.0
C      1  0.4079630000000  0.5360170000000  0.5564250000000 1.0
C      1  0.5401810000000  0.4265000000000  0.4323310000000 1.0
C      1  0.4410680000000  0.5577750000000  0.5831990000000 1.0
C      1  0.5559670000000  0.4752870000000  0.4001900000000 1.0
C      1  0.5496420000000  0.5321770000000  0.4631850000000 1.0
C      1  0.4559130000000  0.5567900000000  0.5369920000000 1.0
C      1  0.5445720000000  0.5763450000000  0.5619270000000 1.0
C      1  0.3857550000000  0.5191430000000  0.5582130000000 1.0
C      1  0.3881540000000  0.4883860000000  0.4885450000000 1.0
C      1  0.5716280000000  0.4131400000000  0.4844930000000 1.0
C      1  0.3733120000000  0.5830170000000  0.4580820000000 1.0
C      1  0.5113770000000  0.3691640000000  0.4595790000000 1.0
C      1  0.5175370000000  0.4554340000000  0.4944340000000 1.0
C      1  0.4754270000000  0.5679960000000  0.5199300000000 1.0
C      1  0.6585950000000  0.5699640000000  0.4834260000000 1.0
C      1  0.4941890000000  0.5603940000000  0.5000430000000 1.0
C      1  0.5231240000000  0.4422770000000  0.4483830000000 1.0
C      1  0.5335860000000  0.5250840000000  0.4046660000000 1.0
C      1  0.5489480000000  0.5853340000000  0.4747530000000 1.0
C      1  0.4523880000000  0.5317730000000  0.4734050000000 1.0
C      1  0.4709170000000  0.5112910000000  0.6015150000000 1.0
C      1  0.5706920000000  0.5211150000000  0.4485420000000 1.0
C      1  0.4519850000000  0.5722110000000  0.5612510000000 1.0
C      1  0.4912650000000  0.4899150000000  0.3940690000000 1.0
C      1  0.5250930000000  0.5932580000000  0.4600240000000 1.0
C      1  0.4748830000000  0.4178660000000  0.4214230000000 1.0
C      1  0.4824130000000  0.5681520000000  0.4745090000000 1.0
C      1  0.4535480000000  0.6029730000000  0.4907070000000 1.0
C      1  0.4821610000000  0.4794310000000  0.5447400000000 1.0
C      1  0.4676280000000  0.5506320000000  0.4582350000000 1.0
C      1  0.4747840000000  0.4437420000000  0.4066330000000 1.0
C      1  0.5446130000000  0.4433060000000  0.5942810000000 1.0
C      1  0.3657540000000  0.5025400000000  0.5600800000000 1.0
END
