TITL C-599897-7526-1328 8.22337037671667e-05 125000 -375.263352163818 0 0 63 (C1) n - 1
REM
REM in /home/nfs/bkarasulu/CARBON/AIRSS/Generating-Clusters/TERSOFF/Only-C1/FIRE-HFTN
REM
REM
REM
REM
REM
REM ./C.cell (11c1c37f851c82e70ff6c80c92926a4b)
REM AIRSS Version 0.9.1 bugfix July 2018 build 013d7b7c2542+ Fri, 06 Jul 2018 19:26:36 +0100
REM compiler GCC version 9.2.1 20190827 (Red Hat 9.2.1-1)
REM options -cpp -mtune=generic -march=x86-64 -g -O0 -fpre-include=/usr/include/finclude/math-vector-fortran.h
REM seed -373193165 -1542943212 1629375136 1746055053 -1204223582 577483366 -1561716301 -1174386363 1648968077 959927423 824913974 1492113353 -1690823061 230654473 -1338938017 1637225488 -207124292 -1227307449 -1151519901 1635130157 -191697389 -390308064 -1637564065 -1491312492 738494964 -1850467942 -243774885 -1239389968 -372532077 -1621668580 -921819452 1153671850 -417081300
REM
CELL 1.54180   50.00000   50.00000   50.00000   90.00000   90.00000   90.00000
LATT -1
SFAC C  
C      1  0.4611910000000  0.4678870000000  0.5002640000000 1.0
C      1  0.4851790000000  0.5168780000000  0.5745520000000 1.0
C      1  0.5497200000000  0.5182410000000  0.5333590000000 1.0
C      1  0.5956640000000  0.5241100000000  0.5115430000000 1.0
C      1  0.4426400000000  0.5064050000000  0.4564460000000 1.0
C      1  0.5082980000000  0.4752350000000  0.4775530000000 1.0
C      1  0.5156790000000  0.5153080000000  0.4397700000000 1.0
C      1  0.4867900000000  0.5246020000000  0.6011120000000 1.0
C      1  0.4834200000000  0.4202640000000  0.5044440000000 1.0
C      1  0.4717530000000  0.4421790000000  0.5505720000000 1.0
C      1  0.4966430000000  0.5769490000000  0.4935440000000 1.0
C      1  0.4534360000000  0.5510880000000  0.4967090000000 1.0
C      1  0.5369160000000  0.4358890000000  0.5354000000000 1.0
C      1  0.5383650000000  0.4935130000000  0.5233680000000 1.0
C      1  0.4913040000000  0.6023860000000  0.5029700000000 1.0
C      1  0.3933510000000  0.4177150000000  0.4504580000000 1.0
C      1  0.5780790000000  0.5207180000000  0.5317740000000 1.0
C      1  0.5517030000000  0.4810060000000  0.5007250000000 1.0
C      1  0.5626480000000  0.5274280000000  0.4495370000000 1.0
C      1  0.4670760000000  0.4958020000000  0.4429000000000 1.0
C      1  0.4632580000000  0.4435600000000  0.4577160000000 1.0
C      1  0.4810020000000  0.4892370000000  0.5648220000000 1.0
C      1  0.5137440000000  0.4508090000000  0.5303920000000 1.0
C      1  0.4876050000000  0.5153580000000  0.4347560000000 1.0
C      1  0.4853230000000  0.4753020000000  0.4909600000000 1.0
C      1  0.4999590000000  0.5297810000000  0.4935360000000 1.0
C      1  0.4537840000000  0.5538030000000  0.4682390000000 1.0
C      1  0.4814980000000  0.3668910000000  0.5135810000000 1.0
C      1  0.5011160000000  0.5698120000000  0.4657540000000 1.0
C      1  0.4791900000000  0.4288490000000  0.4769840000000 1.0
C      1  0.5081220000000  0.5484770000000  0.5360610000000 1.0
C      1  0.5851600000000  0.5230690000000  0.4633530000000 1.0
C      1  0.4711310000000  0.4670500000000  0.4425220000000 1.0
C      1  0.5776870000000  0.4690550000000  0.5007200000000 1.0
C      1  0.4861220000000  0.6261320000000  0.5123630000000 1.0
C      1  0.4524100000000  0.5273790000000  0.5130220000000 1.0
C      1  0.4884600000000  0.5318150000000  0.6260980000000 1.0
C      1  0.5352080000000  0.5341600000000  0.4487290000000 1.0
C      1  0.4886930000000  0.4368040000000  0.5280040000000 1.0
C      1  0.4739540000000  0.5178510000000  0.5299870000000 1.0
C      1  0.5973290000000  0.5118260000000  0.4860910000000 1.0
C      1  0.4367190000000  0.4674070000000  0.4856540000000 1.0
C      1  0.5979060000000  0.4835580000000  0.4877490000000 1.0
C      1  0.5454520000000  0.5651620000000  0.4849000000000 1.0
C      1  0.4823700000000  0.3925170000000  0.5089300000000 1.0
C      1  0.4357110000000  0.4463370000000  0.4666760000000 1.0
C      1  0.4139400000000  0.4316000000000  0.4583580000000 1.0
C      1  0.4315160000000  0.5103430000000  0.5039770000000 1.0
C      1  0.5806580000000  0.4451950000000  0.5150060000000 1.0
C      1  0.4308060000000  0.4944470000000  0.4802000000000 1.0
C      1  0.4375460000000  0.5344240000000  0.4547680000000 1.0
C      1  0.4796060000000  0.5425970000000  0.4304810000000 1.0
C      1  0.4773840000000  0.5603070000000  0.4526840000000 1.0
C      1  0.4991890000000  0.5531530000000  0.5088560000000 1.0
C      1  0.5365240000000  0.5437750000000  0.5319930000000 1.0
C      1  0.5348460000000  0.4765880000000  0.4787400000000 1.0
C      1  0.5627250000000  0.4318900000000  0.5298620000000 1.0
C      1  0.4883140000000  0.4926430000000  0.5360640000000 1.0
C      1  0.5136040000000  0.4800760000000  0.5302740000000 1.0
C      1  0.5479010000000  0.5609590000000  0.5115890000000 1.0
C      1  0.4711480000000  0.4629030000000  0.5685650000000 1.0
C      1  0.4875130000000  0.5349920000000  0.5511640000000 1.0
C      1  0.5280100000000  0.5585070000000  0.4628220000000 1.0
END
