TITL C-599894-471-1056 931.561210582895 125000 -1019.75423661229 0 0 166 (C1) n - 1
REM
REM in /home/nfs/bkarasulu/CARBON/AIRSS/Generating-Clusters/TERSOFF/Only-C1/FIRE-HFTN
REM
REM
REM
REM
REM
REM ./C.cell (11c1c37f851c82e70ff6c80c92926a4b)
REM AIRSS Version 0.9.1 bugfix July 2018 build 013d7b7c2542+ Fri, 06 Jul 2018 19:26:36 +0100
REM compiler GCC version 9.2.1 20190827 (Red Hat 9.2.1-1)
REM options -cpp -mtune=generic -march=x86-64 -g -O0 -fpre-include=/usr/include/finclude/math-vector-fortran.h
REM seed -1574304156 454186059 50992167 448496429 496854665 -121647258 -231448661 -512811788 1172372160 -1433874546 -1816689137 1864299403 1021360483 353126264 198688025 -1944628791 -1307886829 -444124652 -209201584 1544456213 -1017533888 1408339361 -1992436355 167115685 -2120738755 1824624249 1792875789 -1952513393 -1219669823 1178156669 616452633 2095705995 -1009858811
REM
CELL 1.54180   50.00000   50.00000   50.00000   90.00000   90.00000   90.00000
LATT -1
SFAC C  
C      1  0.4655250000000  0.4268710000000  0.4290020000000 1.0
C      1  0.5747640000000  0.5754340000000  0.5135420000000 1.0
C      1  0.4097520000000  0.5943720000000  0.5150110000000 1.0
C      1  0.4683660000000  0.4431970000000  0.4042400000000 1.0
C      1  0.4034300000000  0.4776310000000  0.4449920000000 1.0
C      1  0.4606240000000  0.4928260000000  0.4945770000000 1.0
C      1  0.4580040000000  0.4459780000000  0.5473230000000 1.0
C      1  0.4860880000000  0.4985240000000  0.5103600000000 1.0
C      1  0.5091470000000  0.5942700000000  0.5325400000000 1.0
C      1  0.3871680000000  0.5474760000000  0.5066540000000 1.0
C      1  0.4372990000000  0.5365950000000  0.4186100000000 1.0
C      1  0.5150640000000  0.5660380000000  0.5305410000000 1.0
C      1  0.5799110000000  0.5065390000000  0.4869850000000 1.0
C      1  0.5427380000000  0.5063460000000  0.7012240000000 1.0
C      1  0.5597720000000  0.4362840000000  0.4327980000000 1.0
C      1  0.4358290000000  0.5044680000000  0.5024980000000 1.0
C      1  0.5422270000000  0.5817220000000  0.4446730000000 1.0
C      1  0.4118510000000  0.5293760000000  0.5531170000000 1.0
C      1  0.5272100000000  0.5707390000000  0.5838040000000 1.0
C      1  0.5598920000000  0.4746820000000  0.5141320000000 1.0
C      1  0.4843490000000  0.5473170000000  0.4843350000000 1.0
C      1  0.5059210000000  0.3959620000000  0.5284830000000 1.0
C      1  0.4872920000000  0.5427150000000  0.5953790000000 1.0
C      1  0.5743400000000  0.4087820000000  0.4801640000000 1.0
C      1  0.5129760000000  0.5157270000000  0.4616510000000 1.0
C      1  0.4990710000000  0.5521760000000  0.5486190000000 1.0
C      1  0.4700520000000  0.5719830000000  0.4290990000000 1.0
C      1  0.4163210000000  0.4300920000000  0.4880880000000 1.0
C      1  0.4249230000000  0.4511290000000  0.5072190000000 1.0
C      1  0.4962570000000  0.5175540000000  0.6056700000000 1.0
C      1  0.3966620000000  0.5390170000000  0.4791590000000 1.0
C      1  0.4574120000000  0.4683470000000  0.3972840000000 1.0
C      1  0.5874770000000  0.4525390000000  0.4702180000000 1.0
C      1  0.5246460000000  0.3813760000000  0.5129340000000 1.0
C      1  0.4247250000000  0.5467950000000  0.4809400000000 1.0
C      1  0.5977670000000  0.5439300000000  0.4112070000000 1.0
C      1  0.4607070000000  0.3810270000000  0.5052640000000 1.0
C      1  0.5675930000000  0.5952310000000  0.5613490000000 1.0
C      1  0.3637210000000  0.4820020000000  0.5127500000000 1.0
C      1  0.3895740000000  0.4852370000000  0.5134750000000 1.0
C      1  0.5080120000000  0.5154120000000  0.6307800000000 1.0
C      1  0.5195980000000  0.5124520000000  0.6544110000000 1.0
C      1  0.5397820000000  0.4222340000000  0.4179460000000 1.0
C      1  0.5598000000000  0.5003930000000  0.4669800000000 1.0
C      1  0.5430040000000  0.5159280000000  0.5512820000000 1.0
C      1  0.4348920000000  0.6031990000000  0.5184050000000 1.0
C      1  0.5140000000000  0.4313380000000  0.4773710000000 1.0
C      1  0.4854980000000  0.4685240000000  0.5968110000000 1.0
C      1  0.4981670000000  0.3855770000000  0.4718910000000 1.0
C      1  0.4222010000000  0.5029950000000  0.5636850000000 1.0
C      1  0.4679120000000  0.5174080000000  0.4486300000000 1.0
C      1  0.4840170000000  0.4320480000000  0.5491360000000 1.0
C      1  0.5057690000000  0.4269750000000  0.5289860000000 1.0
C      1  0.4515750000000  0.3917580000000  0.4585840000000 1.0
C      1  0.5709310000000  0.3995900000000  0.5325950000000 1.0
C      1  0.4891650000000  0.5307110000000  0.4612960000000 1.0
C      1  0.4970610000000  0.4320950000000  0.5006750000000 1.0
C      1  0.5822660000000  0.4520270000000  0.5574220000000 1.0
C      1  0.5052590000000  0.4767990000000  0.4205330000000 1.0
C      1  0.4560410000000  0.4952560000000  0.3949140000000 1.0
C      1  0.5312510000000  0.5403670000000  0.4176210000000 1.0
C      1  0.5413290000000  0.5243340000000  0.4631550000000 1.0
C      1  0.5047850000000  0.4106350000000  0.4595520000000 1.0
C      1  0.5564210000000  0.4657670000000  0.4307500000000 1.0
C      1  0.5725530000000  0.5001840000000  0.3995070000000 1.0
C      1  0.4585450000000  0.4778970000000  0.4708660000000 1.0
C      1  0.4519790000000  0.4939400000000  0.4491420000000 1.0
C      1  0.4484400000000  0.5639850000000  0.5726380000000 1.0
C      1  0.5399470000000  0.5426430000000  0.4874850000000 1.0
C      1  0.5900830000000  0.5204040000000  0.4007550000000 1.0
C      1  0.4748240000000  0.5404820000000  0.5353410000000 1.0
C      1  0.4369970000000  0.4979990000000  0.5890300000000 1.0
C      1  0.5963290000000  0.5675610000000  0.4933900000000 1.0
C      1  0.4584400000000  0.5462100000000  0.5940050000000 1.0
C      1  0.5119460000000  0.4224090000000  0.4124900000000 1.0
C      1  0.4801480000000  0.5981680000000  0.5415130000000 1.0
C      1  0.5186590000000  0.5667880000000  0.4216410000000 1.0
C      1  0.5511120000000  0.4851790000000  0.4099440000000 1.0
C      1  0.5100140000000  0.4502220000000  0.5945700000000 1.0
C      1  0.4828610000000  0.4884110000000  0.5388000000000 1.0
C      1  0.5500130000000  0.5382520000000  0.4387000000000 1.0
C      1  0.5888670000000  0.5630370000000  0.4281480000000 1.0
C      1  0.4188110000000  0.4820250000000  0.5156930000000 1.0
C      1  0.4779030000000  0.5996130000000  0.4950390000000 1.0
C      1  0.4792220000000  0.5761060000000  0.4782750000000 1.0
C      1  0.5312580000000  0.5093750000000  0.6780140000000 1.0
C      1  0.5791820000000  0.5946670000000  0.5369540000000 1.0
C      1  0.4855670000000  0.5301000000000  0.5090290000000 1.0
C      1  0.5744540000000  0.4289130000000  0.4581230000000 1.0
C      1  0.6094780000000  0.5440700000000  0.4881700000000 1.0
C      1  0.5232430000000  0.4938080000000  0.4071560000000 1.0
C      1  0.4701530000000  0.3821410000000  0.4778790000000 1.0
C      1  0.4330180000000  0.3859900000000  0.5085430000000 1.0
C      1  0.4582080000000  0.4757420000000  0.5442000000000 1.0
C      1  0.5926010000000  0.4377080000000  0.5143640000000 1.0
C      1  0.4308290000000  0.4849520000000  0.5434270000000 1.0
C      1  0.4437940000000  0.5225680000000  0.6021080000000 1.0
C      1  0.4936280000000  0.4173320000000  0.4346970000000 1.0
C      1  0.4907300000000  0.5612590000000  0.4132400000000 1.0
C      1  0.5812160000000  0.4117650000000  0.5089090000000 1.0
C      1  0.5498570000000  0.4739770000000  0.4580300000000 1.0
C      1  0.5308800000000  0.6061330000000  0.5173690000000 1.0
C      1  0.5634930000000  0.4326350000000  0.5718200000000 1.0
C      1  0.6062920000000  0.5158170000000  0.4934410000000 1.0
C      1  0.4698060000000  0.4378700000000  0.4977680000000 1.0
C      1  0.3834000000000  0.4964000000000  0.4541280000000 1.0
C      1  0.4448650000000  0.5601720000000  0.4330500000000 1.0
C      1  0.5093380000000  0.4848270000000  0.4969030000000 1.0
C      1  0.4165230000000  0.5217840000000  0.4329870000000 1.0
C      1  0.4065740000000  0.4501560000000  0.4454240000000 1.0
C      1  0.6087790000000  0.4647870000000  0.4581630000000 1.0
C      1  0.5294810000000  0.4696370000000  0.5105050000000 1.0
C      1  0.3917760000000  0.5324210000000  0.5316620000000 1.0
C      1  0.4318600000000  0.5509420000000  0.5517500000000 1.0
C      1  0.4974380000000  0.6082190000000  0.4454520000000 1.0
C      1  0.4340950000000  0.5619380000000  0.4593320000000 1.0
C      1  0.4469280000000  0.4457580000000  0.5759580000000 1.0
C      1  0.5656900000000  0.5035830000000  0.5115110000000 1.0
C      1  0.3933800000000  0.5241760000000  0.4539630000000 1.0
C      1  0.4945150000000  0.4351380000000  0.3931850000000 1.0
C      1  0.4497430000000  0.4399410000000  0.5183830000000 1.0
C      1  0.5383700000000  0.5974870000000  0.4690010000000 1.0
C      1  0.4445070000000  0.4168290000000  0.4466900000000 1.0
C      1  0.4800030000000  0.5863920000000  0.4507060000000 1.0
C      1  0.5356630000000  0.4661050000000  0.5559440000000 1.0
C      1  0.5226980000000  0.4516530000000  0.5326250000000 1.0
C      1  0.3906240000000  0.5758650000000  0.5106800000000 1.0
C      1  0.4630470000000  0.6023140000000  0.5185720000000 1.0
C      1  0.4635860000000  0.4511190000000  0.4738850000000 1.0
C      1  0.5045540000000  0.5554820000000  0.5766470000000 1.0
C      1  0.5338510000000  0.4516380000000  0.4709230000000 1.0
C      1  0.5485000000000  0.5941440000000  0.4970140000000 1.0
C      1  0.6173920000000  0.5041230000000  0.5189450000000 1.0
C      1  0.6171010000000  0.4766640000000  0.5291180000000 1.0
C      1  0.5151790000000  0.6149640000000  0.4667710000000 1.0
C      1  0.5639390000000  0.4072530000000  0.5579260000000 1.0
C      1  0.5641620000000  0.5633940000000  0.4413460000000 1.0
C      1  0.4364130000000  0.5338160000000  0.5033280000000 1.0
C      1  0.5795280000000  0.4572480000000  0.4974760000000 1.0
C      1  0.4927970000000  0.4952490000000  0.5885460000000 1.0
C      1  0.5489690000000  0.5851990000000  0.5778420000000 1.0
C      1  0.5010570000000  0.4730800000000  0.4467250000000 1.0
C      1  0.5084810000000  0.4888130000000  0.4687500000000 1.0
C      1  0.4995080000000  0.4956620000000  0.5608720000000 1.0
C      1  0.4793830000000  0.3844190000000  0.5264590000000 1.0
C      1  0.5141260000000  0.5210200000000  0.4050170000000 1.0
C      1  0.6037780000000  0.4515880000000  0.5371750000000 1.0
C      1  0.4219310000000  0.4311610000000  0.4593140000000 1.0
C      1  0.6005080000000  0.5436390000000  0.5442650000000 1.0
C      1  0.5284200000000  0.5538020000000  0.5090050000000 1.0
C      1  0.4975300000000  0.6196230000000  0.4887840000000 1.0
C      1  0.4465090000000  0.5483720000000  0.5262570000000 1.0
C      1  0.4553790000000  0.4677660000000  0.5926250000000 1.0
C      1  0.4593170000000  0.5227210000000  0.4028110000000 1.0
C      1  0.5269030000000  0.4940870000000  0.5576130000000 1.0
C      1  0.4653430000000  0.5864830000000  0.5638870000000 1.0
C      1  0.4869160000000  0.5336210000000  0.4028750000000 1.0
C      1  0.5185580000000  0.3737440000000  0.4875770000000 1.0
C      1  0.5752840000000  0.5478590000000  0.5310540000000 1.0
C      1  0.4259100000000  0.4943610000000  0.4384250000000 1.0
C      1  0.5598530000000  0.5238770000000  0.5303900000000 1.0
C      1  0.6187950000000  0.5242530000000  0.5393370000000 1.0
C      1  0.5631200000000  0.4692650000000  0.5444140000000 1.0
C      1  0.4150080000000  0.4040880000000  0.4997850000000 1.0
C      1  0.5364430000000  0.4470010000000  0.5793580000000 1.0
C      1  0.4661120000000  0.5224120000000  0.5573500000000 1.0
END
