TITL C-599897-7526-1400 -4344.48923228845 125000 -1030.55069440697 0 0 168 (C1) n - 1
REM
REM in /home/nfs/bkarasulu/CARBON/AIRSS/Generating-Clusters/TERSOFF/Only-C1/FIRE-HFTN
REM
REM
REM
REM
REM
REM ./C.cell (11c1c37f851c82e70ff6c80c92926a4b)
REM AIRSS Version 0.9.1 bugfix July 2018 build 013d7b7c2542+ Fri, 06 Jul 2018 19:26:36 +0100
REM compiler GCC version 9.2.1 20190827 (Red Hat 9.2.1-1)
REM options -cpp -mtune=generic -march=x86-64 -g -O0 -fpre-include=/usr/include/finclude/math-vector-fortran.h
REM seed -1157141310 -916912753 -978969654 1927913997 -406107617 696763252 484749587 848597935 -1723941740 -732017377 2036550909 581623632 279619782 1950893826 1429790117 545753506 446913268 1221168319 -490611630 -1539526141 -2136175704 2012828465 -894933682 -69139740 820044647 -863381627 -1842940384 1751425997 533913798 814604819 -1851354788 -275581037 1080589894
REM
CELL 1.54180   50.00000   50.00000   50.00000   90.00000   90.00000   90.00000
LATT -1
SFAC C  
C      1  0.5970710000000  0.4686310000000  0.4711070000000 1.0
C      1  0.4327210000000  0.5736860000000  0.5010840000000 1.0
C      1  0.5278670000000  0.5043900000000  0.5456950000000 1.0
C      1  0.5910100000000  0.5182440000000  0.4201060000000 1.0
C      1  0.3977730000000  0.5426940000000  0.4491440000000 1.0
C      1  0.5182580000000  0.5603740000000  0.4703390000000 1.0
C      1  0.4906720000000  0.6078110000000  0.5358270000000 1.0
C      1  0.6351640000000  0.4919280000000  0.4537060000000 1.0
C      1  0.4473440000000  0.5421130000000  0.3955960000000 1.0
C      1  0.4944700000000  0.5017030000000  0.4514880000000 1.0
C      1  0.4022590000000  0.4753550000000  0.4562420000000 1.0
C      1  0.5166930000000  0.4569180000000  0.5764770000000 1.0
C      1  0.4653600000000  0.5355280000000  0.4362990000000 1.0
C      1  0.4795770000000  0.6428550000000  0.6143350000000 1.0
C      1  0.4130050000000  0.5786920000000  0.4820190000000 1.0
C      1  0.4627460000000  0.5213340000000  0.5415030000000 1.0
C      1  0.5834970000000  0.5557330000000  0.5169090000000 1.0
C      1  0.4147080000000  0.4970280000000  0.4296260000000 1.0
C      1  0.6078150000000  0.5811770000000  0.4378940000000 1.0
C      1  0.4831760000000  0.5566840000000  0.4272240000000 1.0
C      1  0.5858650000000  0.4706220000000  0.4098340000000 1.0
C      1  0.5448360000000  0.5728770000000  0.6066250000000 1.0
C      1  0.4568280000000  0.6902160000000  0.6161870000000 1.0
C      1  0.4936680000000  0.4395050000000  0.4973800000000 1.0
C      1  0.5161020000000  0.6412510000000  0.5588310000000 1.0
C      1  0.5076640000000  0.3880180000000  0.5036680000000 1.0
C      1  0.5153260000000  0.5343570000000  0.5089500000000 1.0
C      1  0.5603540000000  0.5405860000000  0.5018150000000 1.0
C      1  0.4488200000000  0.4564880000000  0.5885150000000 1.0
C      1  0.5365330000000  0.4173990000000  0.4387680000000 1.0
C      1  0.5700630000000  0.5533750000000  0.3917350000000 1.0
C      1  0.5655380000000  0.4544440000000  0.5782550000000 1.0
C      1  0.6091120000000  0.4838600000000  0.4506840000000 1.0
C      1  0.4749290000000  0.5552010000000  0.5000680000000 1.0
C      1  0.5004030000000  0.4801650000000  0.6323790000000 1.0
C      1  0.5016870000000  0.5533110000000  0.4930920000000 1.0
C      1  0.5833080000000  0.5451160000000  0.4156910000000 1.0
C      1  0.4600880000000  0.4074440000000  0.4965010000000 1.0
C      1  0.5150400000000  0.4017040000000  0.5492160000000 1.0
C      1  0.4364650000000  0.4951580000000  0.4076070000000 1.0
C      1  0.5476570000000  0.4647100000000  0.5236100000000 1.0
C      1  0.4150840000000  0.5263290000000  0.4345260000000 1.0
C      1  0.5868310000000  0.5007030000000  0.5714250000000 1.0
C      1  0.5024310000000  0.4872290000000  0.5032360000000 1.0
C      1  0.4246560000000  0.4356880000000  0.4394090000000 1.0
C      1  0.5044600000000  0.5639080000000  0.4450330000000 1.0
C      1  0.4732700000000  0.6004700000000  0.5169400000000 1.0
C      1  0.3995030000000  0.4838080000000  0.5406660000000 1.0
C      1  0.5683090000000  0.4542960000000  0.3981080000000 1.0
C      1  0.4970250000000  0.3837350000000  0.4555190000000 1.0
C      1  0.4067050000000  0.4455700000000  0.4597090000000 1.0
C      1  0.4653720000000  0.4896900000000  0.4138880000000 1.0
C      1  0.4772320000000  0.4874270000000  0.4918380000000 1.0
C      1  0.5144430000000  0.4835060000000  0.5866970000000 1.0
C      1  0.4404200000000  0.4858790000000  0.5182300000000 1.0
C      1  0.5164840000000  0.5109800000000  0.4663110000000 1.0
C      1  0.4127400000000  0.4331750000000  0.4860640000000 1.0
C      1  0.4774260000000  0.4812970000000  0.3878760000000 1.0
C      1  0.5370570000000  0.5449200000000  0.5232100000000 1.0
C      1  0.5855460000000  0.4718320000000  0.5675610000000 1.0
C      1  0.4101510000000  0.4881730000000  0.4811570000000 1.0
C      1  0.5244740000000  0.4363600000000  0.4181100000000 1.0
C      1  0.5412430000000  0.5049770000000  0.3810820000000 1.0
C      1  0.5203810000000  0.5697770000000  0.3846630000000 1.0
C      1  0.5199130000000  0.4890120000000  0.6140470000000 1.0
C      1  0.4881690000000  0.4065090000000  0.4408070000000 1.0
C      1  0.5503370000000  0.5542270000000  0.5478680000000 1.0
C      1  0.4789530000000  0.5125280000000  0.5646410000000 1.0
C      1  0.5179180000000  0.4602070000000  0.4358700000000 1.0
C      1  0.5216830000000  0.4545720000000  0.5302330000000 1.0
C      1  0.4797680000000  0.4783770000000  0.4633880000000 1.0
C      1  0.4681400000000  0.6667400000000  0.6154340000000 1.0
C      1  0.4390450000000  0.5390300000000  0.4245890000000 1.0
C      1  0.4420930000000  0.5149630000000  0.3843300000000 1.0
C      1  0.4861510000000  0.4011050000000  0.5443460000000 1.0
C      1  0.4110720000000  0.4775570000000  0.5112910000000 1.0
C      1  0.5274190000000  0.5950010000000  0.5667020000000 1.0
C      1  0.4948910000000  0.4587220000000  0.3842590000000 1.0
C      1  0.5621560000000  0.4506980000000  0.5020690000000 1.0
C      1  0.5339650000000  0.5001870000000  0.4062680000000 1.0
C      1  0.5412600000000  0.5053110000000  0.6212230000000 1.0
C      1  0.6008090000000  0.4630860000000  0.5450080000000 1.0
C      1  0.5416530000000  0.4468020000000  0.3942540000000 1.0
C      1  0.4567880000000  0.5300260000000  0.6260330000000 1.0
C      1  0.4942560000000  0.4555900000000  0.4509820000000 1.0
C      1  0.4606470000000  0.5803140000000  0.5022380000000 1.0
C      1  0.4304840000000  0.5483570000000  0.5154580000000 1.0
C      1  0.4910030000000  0.6190930000000  0.6118010000000 1.0
C      1  0.4092310000000  0.4339800000000  0.5344940000000 1.0
C      1  0.4549690000000  0.4378970000000  0.5650550000000 1.0
C      1  0.4394820000000  0.5038400000000  0.5421320000000 1.0
C      1  0.4782270000000  0.3627700000000  0.4540290000000 1.0
C      1  0.5787570000000  0.5442660000000  0.5445410000000 1.0
C      1  0.4746320000000  0.5574170000000  0.3983580000000 1.0
C      1  0.5880780000000  0.4624080000000  0.4969660000000 1.0
C      1  0.5586710000000  0.5158290000000  0.3638970000000 1.0
C      1  0.4352780000000  0.3835360000000  0.4361440000000 1.0
C      1  0.4394350000000  0.4827690000000  0.5804860000000 1.0
C      1  0.5481900000000  0.5828000000000  0.5518050000000 1.0
C      1  0.4439720000000  0.4563550000000  0.4383890000000 1.0
C      1  0.4951890000000  0.5587320000000  0.3785030000000 1.0
C      1  0.5476520000000  0.5549190000000  0.4753390000000 1.0
C      1  0.5029710000000  0.4534580000000  0.5518950000000 1.0
C      1  0.5506340000000  0.4295200000000  0.4857050000000 1.0
C      1  0.4689050000000  0.4111370000000  0.5644180000000 1.0
C      1  0.4527860000000  0.3651780000000  0.4450390000000 1.0
C      1  0.5167680000000  0.5095260000000  0.4948730000000 1.0
C      1  0.5471070000000  0.4939410000000  0.5262030000000 1.0
C      1  0.5951220000000  0.4910870000000  0.4267940000000 1.0
C      1  0.3984200000000  0.5645910000000  0.4645280000000 1.0
C      1  0.4368910000000  0.4969140000000  0.4736290000000 1.0
C      1  0.4730000000000  0.4805770000000  0.6260570000000 1.0
C      1  0.4759150000000  0.4259890000000  0.4816220000000 1.0
C      1  0.5462290000000  0.5686000000000  0.3916480000000 1.0
C      1  0.5295560000000  0.4842630000000  0.4271870000000 1.0
C      1  0.4067910000000  0.4475720000000  0.5099060000000 1.0
C      1  0.5611630000000  0.5228970000000  0.6124650000000 1.0
C      1  0.5739520000000  0.5375390000000  0.3685940000000 1.0
C      1  0.5549380000000  0.3865920000000  0.5310120000000 1.0
C      1  0.4890170000000  0.5721410000000  0.6233840000000 1.0
C      1  0.5073060000000  0.5031640000000  0.5660280000000 1.0
C      1  0.5610650000000  0.4006250000000  0.5540500000000 1.0
C      1  0.5992550000000  0.4761950000000  0.5198240000000 1.0
C      1  0.4270420000000  0.4087750000000  0.4324300000000 1.0
C      1  0.5661150000000  0.5103030000000  0.5094760000000 1.0
C      1  0.5404310000000  0.4404500000000  0.5773570000000 1.0
C      1  0.5110160000000  0.6147170000000  0.5540120000000 1.0
C      1  0.4651190000000  0.5016190000000  0.3699370000000 1.0
C      1  0.4919690000000  0.5416570000000  0.3562720000000 1.0
C      1  0.5227180000000  0.4587720000000  0.3749660000000 1.0
C      1  0.4582810000000  0.5323500000000  0.5122740000000 1.0
C      1  0.4768960000000  0.5098840000000  0.4314580000000 1.0
C      1  0.5812550000000  0.5122860000000  0.5961850000000 1.0
C      1  0.5918150000000  0.5037960000000  0.5222670000000 1.0
C      1  0.4089090000000  0.5427910000000  0.6091750000000 1.0
C      1  0.4756110000000  0.5502680000000  0.6301860000000 1.0
C      1  0.4509690000000  0.4777480000000  0.4559870000000 1.0
C      1  0.4605910000000  0.5028620000000  0.5861890000000 1.0
C      1  0.5159600000000  0.3914310000000  0.4761940000000 1.0
C      1  0.4615150000000  0.4660750000000  0.5236300000000 1.0
C      1  0.5571090000000  0.5504920000000  0.6139580000000 1.0
C      1  0.5269860000000  0.3881050000000  0.5249510000000 1.0
C      1  0.5376770000000  0.4141980000000  0.5652230000000 1.0
C      1  0.5667170000000  0.5970960000000  0.5352200000000 1.0
C      1  0.4606200000000  0.4572610000000  0.6145190000000 1.0
C      1  0.5898940000000  0.5177870000000  0.5482260000000 1.0
C      1  0.3983370000000  0.5463770000000  0.5850230000000 1.0
C      1  0.4278460000000  0.4314130000000  0.5533420000000 1.0
C      1  0.5664150000000  0.5639060000000  0.4566460000000 1.0
C      1  0.3991030000000  0.5469210000000  0.5584440000000 1.0
C      1  0.4104150000000  0.5451650000000  0.5344420000000 1.0
C      1  0.5860710000000  0.5637800000000  0.4368800000000 1.0
C      1  0.4823170000000  0.4300320000000  0.4546360000000 1.0
C      1  0.5362400000000  0.4117370000000  0.4675450000000 1.0
C      1  0.5245800000000  0.5878860000000  0.5942100000000 1.0
C      1  0.4321860000000  0.4117200000000  0.4910460000000 1.0
C      1  0.4211060000000  0.4909680000000  0.5600590000000 1.0
C      1  0.4295340000000  0.5368400000000  0.6249470000000 1.0
C      1  0.4537930000000  0.5044820000000  0.4971020000000 1.0
C      1  0.4965840000000  0.4354350000000  0.4027580000000 1.0
C      1  0.5833730000000  0.5843010000000  0.5175840000000 1.0
C      1  0.5011750000000  0.5932200000000  0.6094790000000 1.0
C      1  0.6282720000000  0.5972800000000  0.4390540000000 1.0
C      1  0.5077900000000  0.4602140000000  0.5070850000000 1.0
C      1  0.4803260000000  0.5176930000000  0.3525420000000 1.0
C      1  0.4644540000000  0.5055170000000  0.6143260000000 1.0
C      1  0.4739990000000  0.4540020000000  0.5460960000000 1.0
C      1  0.4800250000000  0.3949380000000  0.5152330000000 1.0
END
