TITL C-599892-9790-1114 -0.00973182692113012 125000 -516.398794340103 0 0 86 (C1) n - 1
REM
REM in /home/nfs/bkarasulu/CARBON/AIRSS/Generating-Clusters/TERSOFF/Only-C1/FIRE-HFTN
REM
REM
REM
REM
REM
REM ./C.cell (11c1c37f851c82e70ff6c80c92926a4b)
REM AIRSS Version 0.9.1 bugfix July 2018 build 013d7b7c2542+ Fri, 06 Jul 2018 19:26:36 +0100
REM compiler GCC version 9.2.1 20190827 (Red Hat 9.2.1-1)
REM options -cpp -mtune=generic -march=x86-64 -g -O0 -fpre-include=/usr/include/finclude/math-vector-fortran.h
REM seed 679451948 -1428726104 -285202861 -1444552867 1424250001 -486556640 -517862351 -780817516 298219890 512958687 995368437 724815408 -1843056853 841730116 503441876 -1269092803 500351758 906212124 -334719059 -1019296242 1879462951 1933069217 1853963624 -1332455665 -1966275203 1441948746 -1889372624 -67404279 345433947 1313869287 1411891894 -1097226594 -848364807
REM
CELL 1.54180   50.00000   50.00000   50.00000   90.00000   90.00000   90.00000
LATT -1
SFAC C  
C      1  0.4873040000000  0.4405960000000  0.4572910000000 1.0
C      1  0.3340620000000  0.5751070000000  0.4722570000000 1.0
C      1  0.4824480000000  0.5952930000000  0.5219480000000 1.0
C      1  0.5416070000000  0.5385100000000  0.4481910000000 1.0
C      1  0.4673120000000  0.4494610000000  0.4771420000000 1.0
C      1  0.4565870000000  0.5193760000000  0.5866300000000 1.0
C      1  0.4844250000000  0.4980160000000  0.5557270000000 1.0
C      1  0.6314390000000  0.4931650000000  0.5594720000000 1.0
C      1  0.5552490000000  0.4477360000000  0.4226280000000 1.0
C      1  0.5233890000000  0.4826770000000  0.5849650000000 1.0
C      1  0.5537580000000  0.4317900000000  0.5093540000000 1.0
C      1  0.5912270000000  0.4640020000000  0.5618090000000 1.0
C      1  0.5583310000000  0.5120520000000  0.4859210000000 1.0
C      1  0.4488940000000  0.5381610000000  0.5451000000000 1.0
C      1  0.4098510000000  0.5487350000000  0.4685100000000 1.0
C      1  0.5785850000000  0.4366390000000  0.5225250000000 1.0
C      1  0.4752410000000  0.5348490000000  0.5026140000000 1.0
C      1  0.4246970000000  0.5469350000000  0.4447940000000 1.0
C      1  0.5085230000000  0.4252710000000  0.4720510000000 1.0
C      1  0.4156360000000  0.5019340000000  0.5258390000000 1.0
C      1  0.5548050000000  0.5376420000000  0.4732210000000 1.0
C      1  0.5007780000000  0.3907290000000  0.5078820000000 1.0
C      1  0.5295620000000  0.4408380000000  0.5206550000000 1.0
C      1  0.5561540000000  0.4394920000000  0.4807640000000 1.0
C      1  0.6489870000000  0.5084480000000  0.5712050000000 1.0
C      1  0.4570590000000  0.4758480000000  0.4819650000000 1.0
C      1  0.4517160000000  0.5491090000000  0.4937840000000 1.0
C      1  0.5158270000000  0.5448910000000  0.4390670000000 1.0
C      1  0.5439330000000  0.5092580000000  0.5517320000000 1.0
C      1  0.5370000000000  0.5038530000000  0.5031610000000 1.0
C      1  0.4970390000000  0.5818390000000  0.5678210000000 1.0
C      1  0.5156790000000  0.4614940000000  0.5102680000000 1.0
C      1  0.4978510000000  0.5037800000000  0.5314910000000 1.0
C      1  0.5201510000000  0.5439710000000  0.5250350000000 1.0
C      1  0.4978950000000  0.4854900000000  0.5768940000000 1.0
C      1  0.4937580000000  0.4137410000000  0.4941660000000 1.0
C      1  0.4983890000000  0.5646210000000  0.4515120000000 1.0
C      1  0.5318000000000  0.5805720000000  0.4841900000000 1.0
C      1  0.5721860000000  0.4784980000000  0.5763760000000 1.0
C      1  0.4167220000000  0.4244890000000  0.5581620000000 1.0
C      1  0.5135560000000  0.4241610000000  0.4211970000000 1.0
C      1  0.5770140000000  0.4616320000000  0.4821220000000 1.0
C      1  0.3586770000000  0.5666500000000  0.4707640000000 1.0
C      1  0.4693880000000  0.5434150000000  0.5923850000000 1.0
C      1  0.6120090000000  0.4715670000000  0.5193910000000 1.0
C      1  0.4558300000000  0.5098970000000  0.5567530000000 1.0
C      1  0.4334740000000  0.4237850000000  0.5382010000000 1.0
C      1  0.5182550000000  0.4834910000000  0.4646200000000 1.0
C      1  0.5360120000000  0.4287200000000  0.4633110000000 1.0
C      1  0.5831540000000  0.4393150000000  0.5501270000000 1.0
C      1  0.4812370000000  0.5084370000000  0.4216070000000 1.0
C      1  0.4113650000000  0.5230920000000  0.5097300000000 1.0
C      1  0.4975370000000  0.5501020000000  0.5115360000000 1.0
C      1  0.5265800000000  0.5152630000000  0.5287760000000 1.0
C      1  0.4799700000000  0.4844160000000  0.4075380000000 1.0
C      1  0.5385690000000  0.4282490000000  0.4344830000000 1.0
C      1  0.6124020000000  0.4770210000000  0.5473450000000 1.0
C      1  0.4560140000000  0.5644600000000  0.5519810000000 1.0
C      1  0.4791510000000  0.5078070000000  0.5098210000000 1.0
C      1  0.4414370000000  0.4923750000000  0.5323990000000 1.0
C      1  0.4579240000000  0.5761610000000  0.4865590000000 1.0
C      1  0.5211560000000  0.4826130000000  0.4924900000000 1.0
C      1  0.5047550000000  0.5812030000000  0.4752090000000 1.0
C      1  0.5029730000000  0.5263910000000  0.4217120000000 1.0
C      1  0.5521070000000  0.5626530000000  0.4865440000000 1.0
C      1  0.4746810000000  0.5650760000000  0.5742780000000 1.0
C      1  0.5312860000000  0.4851930000000  0.4412990000000 1.0
C      1  0.4828710000000  0.5890690000000  0.4933460000000 1.0
C      1  0.4798780000000  0.4580940000000  0.4117010000000 1.0
C      1  0.5013990000000  0.5949330000000  0.5438120000000 1.0
C      1  0.4241620000000  0.5406920000000  0.4919260000000 1.0
C      1  0.5935700000000  0.4553450000000  0.5055450000000 1.0
C      1  0.4572800000000  0.5866830000000  0.5344680000000 1.0
C      1  0.4517410000000  0.5409600000000  0.4409030000000 1.0
C      1  0.4506510000000  0.4247190000000  0.5180550000000 1.0
C      1  0.4903930000000  0.4389830000000  0.4290070000000 1.0
C      1  0.5738500000000  0.4896220000000  0.4768540000000 1.0
C      1  0.5492900000000  0.4740200000000  0.4247940000000 1.0
C      1  0.5081180000000  0.3695990000000  0.5212500000000 1.0
C      1  0.4714090000000  0.5613320000000  0.4429200000000 1.0
C      1  0.3836830000000  0.5580170000000  0.4693210000000 1.0
C      1  0.5474550000000  0.4911070000000  0.5729970000000 1.0
C      1  0.4692600000000  0.4288690000000  0.4979650000000 1.0
C      1  0.4536470000000  0.4938430000000  0.4598510000000 1.0
C      1  0.4605810000000  0.5137110000000  0.4406960000000 1.0
C      1  0.4583910000000  0.4883550000000  0.5082890000000 1.0
END
