TITL C-599897-7526-1181 22.4301305384048 125000 -422.411966112318 0 0 71 (C1) n - 1
REM
REM in /home/nfs/bkarasulu/CARBON/AIRSS/Generating-Clusters/TERSOFF/Only-C1/FIRE-HFTN
REM
REM
REM
REM
REM
REM ./C.cell (11c1c37f851c82e70ff6c80c92926a4b)
REM AIRSS Version 0.9.1 bugfix July 2018 build 013d7b7c2542+ Fri, 06 Jul 2018 19:26:36 +0100
REM compiler GCC version 9.2.1 20190827 (Red Hat 9.2.1-1)
REM options -cpp -mtune=generic -march=x86-64 -g -O0 -fpre-include=/usr/include/finclude/math-vector-fortran.h
REM seed 365815058 1503477930 945630777 -2013613214 291313274 2039113013 -353669139 1431061472 -1524454270 -1066552358 507670368 -589466611 61164089 -328985310 2032368907 666361163 -1634380285 -1836330280 -1144687945 -397783035 1691363053 -497847887 -363748500 1134978241 -1534490133 -134717529 1352243114 -523919392 1757703922 -856540224 -1673836084 -187442449 106838304
REM
CELL 1.54180   50.00000   50.00000   50.00000   90.00000   90.00000   90.00000
LATT -1
SFAC C  
C      1  0.4700600000000  0.4290190000000  0.5954620000000 1.0
C      1  0.4769710000000  0.5116270000000  0.4428900000000 1.0
C      1  0.5389280000000  0.4457640000000  0.4651200000000 1.0
C      1  0.5663020000000  0.4966580000000  0.4320680000000 1.0
C      1  0.5670520000000  0.6149740000000  0.5857920000000 1.0
C      1  0.6102620000000  0.5696790000000  0.5425150000000 1.0
C      1  0.3501310000000  0.5164850000000  0.3925810000000 1.0
C      1  0.5692890000000  0.4686530000000  0.4323420000000 1.0
C      1  0.5204420000000  0.5198920000000  0.4206120000000 1.0
C      1  0.4564990000000  0.4859360000000  0.5077960000000 1.0
C      1  0.4040890000000  0.4865120000000  0.5002740000000 1.0
C      1  0.5210990000000  0.6118480000000  0.4905760000000 1.0
C      1  0.4741340000000  0.4668620000000  0.5205130000000 1.0
C      1  0.5446130000000  0.5087470000000  0.4190200000000 1.0
C      1  0.4485880000000  0.4270010000000  0.4896360000000 1.0
C      1  0.5366810000000  0.4304730000000  0.4892490000000 1.0
C      1  0.4987950000000  0.5294730000000  0.4358560000000 1.0
C      1  0.4833810000000  0.5287800000000  0.5013260000000 1.0
C      1  0.5168450000000  0.4330950000000  0.5082780000000 1.0
C      1  0.4553490000000  0.4730930000000  0.4227230000000 1.0
C      1  0.5214480000000  0.4946750000000  0.5039530000000 1.0
C      1  0.5115340000000  0.5017500000000  0.5867780000000 1.0
C      1  0.5022210000000  0.5545700000000  0.4484400000000 1.0
C      1  0.4289600000000  0.4649930000000  0.4275520000000 1.0
C      1  0.3865610000000  0.4918290000000  0.4810050000000 1.0
C      1  0.4587530000000  0.5172770000000  0.4644800000000 1.0
C      1  0.5015680000000  0.4704380000000  0.4404520000000 1.0
C      1  0.5092150000000  0.5198580000000  0.5070370000000 1.0
C      1  0.6009210000000  0.5917500000000  0.5538380000000 1.0
C      1  0.4876220000000  0.4195060000000  0.4633440000000 1.0
C      1  0.5340900000000  0.4826550000000  0.5483830000000 1.0
C      1  0.5964870000000  0.5277250000000  0.5228890000000 1.0
C      1  0.5459170000000  0.6107200000000  0.6012850000000 1.0
C      1  0.5423210000000  0.4881310000000  0.5221640000000 1.0
C      1  0.4069670000000  0.4804130000000  0.4197830000000 1.0
C      1  0.5068690000000  0.5477120000000  0.6118230000000 1.0
C      1  0.4286370000000  0.4832740000000  0.5099600000000 1.0
C      1  0.4964260000000  0.5674740000000  0.4728930000000 1.0
C      1  0.5837320000000  0.5158390000000  0.4777960000000 1.0
C      1  0.5696840000000  0.4874670000000  0.5148090000000 1.0
C      1  0.4537940000000  0.5455390000000  0.4702670000000 1.0
C      1  0.3791900000000  0.4954410000000  0.4557150000000 1.0
C      1  0.5071320000000  0.5232060000000  0.6016900000000 1.0
C      1  0.4303910000000  0.4327720000000  0.4691680000000 1.0
C      1  0.5132470000000  0.5731830000000  0.6156290000000 1.0
C      1  0.4784050000000  0.4847770000000  0.4333160000000 1.0
C      1  0.5087170000000  0.4742970000000  0.4881380000000 1.0
C      1  0.3838940000000  0.4940280000000  0.4281020000000 1.0
C      1  0.4486730000000  0.4476770000000  0.5580680000000 1.0
C      1  0.5797000000000  0.5111120000000  0.4519920000000 1.0
C      1  0.4657410000000  0.5072510000000  0.4916590000000 1.0
C      1  0.3664520000000  0.5056300000000  0.4097580000000 1.0
C      1  0.5268160000000  0.5957030000000  0.6119870000000 1.0
C      1  0.4723650000000  0.4600610000000  0.5479080000000 1.0
C      1  0.4927670000000  0.4517670000000  0.5021900000000 1.0
C      1  0.6160980000000  0.5432770000000  0.5353780000000 1.0
C      1  0.5137110000000  0.4816600000000  0.5674660000000 1.0
C      1  0.4943350000000  0.4611070000000  0.5668220000000 1.0
C      1  0.5838310000000  0.4640770000000  0.5169100000000 1.0
C      1  0.4248300000000  0.4442490000000  0.4459030000000 1.0
C      1  0.4409050000000  0.4135780000000  0.5121220000000 1.0
C      1  0.4759600000000  0.4330480000000  0.4842780000000 1.0
C      1  0.5828580000000  0.5108700000000  0.5053040000000 1.0
C      1  0.6408010000000  0.5327270000000  0.5405690000000 1.0
C      1  0.4475970000000  0.4321140000000  0.5803750000000 1.0
C      1  0.4763330000000  0.5537320000000  0.4874430000000 1.0
C      1  0.4926830000000  0.4423900000000  0.5883550000000 1.0
C      1  0.5089440000000  0.5905730000000  0.4816990000000 1.0
C      1  0.5180150000000  0.4654500000000  0.4625720000000 1.0
C      1  0.5600780000000  0.4481280000000  0.4470080000000 1.0
C      1  0.5862940000000  0.6079520000000  0.5689150000000 1.0
END
