TITL C-599891-72-30 -4.65311701363464e-06 125000 -879.185995619647 0 0 143 (C1) n - 1
REM
REM in /home/nfs/bkarasulu/CARBON/AIRSS/Generating-Clusters/TERSOFF/Only-C1/FIRE-HFTN
REM
REM
REM
REM
REM
REM ./C.cell (11c1c37f851c82e70ff6c80c92926a4b)
REM AIRSS Version 0.9.1 bugfix July 2018 build 013d7b7c2542+ Fri, 06 Jul 2018 19:26:36 +0100
REM compiler GCC version 9.2.1 20190827 (Red Hat 9.2.1-1)
REM options -cpp -mtune=generic -march=x86-64 -g -O0 -fpre-include=/usr/include/finclude/math-vector-fortran.h
REM seed -827872569 2038566921 1676890421 -340650569 -1922524762 585125244 1328390362 313641989 375407966 -618558724 -1412832675 126251026 -1905669912 392833736 -1756470994 457662873 -1626894007 2080194906 1549450445 -425545468 -153695608 -1397911452 1139894685 230949412 717421681 611841746 223437443 2000131147 799772511 444928226 421452163 -1000369414 788382727
REM
CELL 1.54180   50.00000   50.00000   50.00000   90.00000   90.00000   90.00000
LATT -1
SFAC C  
C      1  0.5605470000000  0.4456440000000  0.5529930000000 1.0
C      1  0.4698600000000  0.5083560000000  0.5610860000000 1.0
C      1  0.5244920000000  0.4405360000000  0.4871350000000 1.0
C      1  0.4452530000000  0.4913090000000  0.5059790000000 1.0
C      1  0.5175410000000  0.5660030000000  0.4599850000000 1.0
C      1  0.4117650000000  0.5393550000000  0.5245260000000 1.0
C      1  0.4952660000000  0.4874670000000  0.4835270000000 1.0
C      1  0.5409700000000  0.4052740000000  0.4595350000000 1.0
C      1  0.4169100000000  0.5782590000000  0.4503320000000 1.0
C      1  0.5726240000000  0.4395450000000  0.5007740000000 1.0
C      1  0.4632570000000  0.5237800000000  0.3989680000000 1.0
C      1  0.5419390000000  0.4961850000000  0.4597460000000 1.0
C      1  0.5490770000000  0.4793630000000  0.5035690000000 1.0
C      1  0.5283840000000  0.5297760000000  0.5194190000000 1.0
C      1  0.5784640000000  0.4543690000000  0.4511670000000 1.0
C      1  0.4541550000000  0.6017980000000  0.4740740000000 1.0
C      1  0.4677050000000  0.4569230000000  0.5370650000000 1.0
C      1  0.4806030000000  0.5650910000000  0.5521080000000 1.0
C      1  0.5803710000000  0.4334820000000  0.4730690000000 1.0
C      1  0.5075550000000  0.4222030000000  0.5512400000000 1.0
C      1  0.5103300000000  0.4138110000000  0.5215400000000 1.0
C      1  0.5176990000000  0.4937430000000  0.4075220000000 1.0
C      1  0.5095850000000  0.5099210000000  0.4292060000000 1.0
C      1  0.4063790000000  0.4773100000000  0.5750800000000 1.0
C      1  0.4652490000000  0.4134390000000  0.4547000000000 1.0
C      1  0.5838430000000  0.5069180000000  0.4008030000000 1.0
C      1  0.5460520000000  0.5765320000000  0.4517430000000 1.0
C      1  0.5544810000000  0.5980100000000  0.4715360000000 1.0
C      1  0.5824000000000  0.5358860000000  0.4743480000000 1.0
C      1  0.5189420000000  0.4218660000000  0.4659090000000 1.0
C      1  0.4588900000000  0.5544530000000  0.4728190000000 1.0
C      1  0.5028940000000  0.6027360000000  0.5492850000000 1.0
C      1  0.4951500000000  0.5179240000000  0.5514810000000 1.0
C      1  0.5703480000000  0.5739280000000  0.3803650000000 1.0
C      1  0.4603960000000  0.5265320000000  0.4296680000000 1.0
C      1  0.5151080000000  0.4413910000000  0.4070060000000 1.0
C      1  0.5318710000000  0.4085010000000  0.5638570000000 1.0
C      1  0.4604820000000  0.5584890000000  0.5010270000000 1.0
C      1  0.4862700000000  0.5559400000000  0.5943100000000 1.0
C      1  0.4897440000000  0.4544180000000  0.4015620000000 1.0
C      1  0.5050480000000  0.4385830000000  0.5071300000000 1.0
C      1  0.4127760000000  0.5685390000000  0.5194840000000 1.0
C      1  0.5385960000000  0.3868890000000  0.5461260000000 1.0
C      1  0.5210660000000  0.5292830000000  0.6101850000000 1.0
C      1  0.5145120000000  0.5671710000000  0.5841040000000 1.0
C      1  0.4318070000000  0.4870600000000  0.4250620000000 1.0
C      1  0.4919980000000  0.4252360000000  0.4573470000000 1.0
C      1  0.4188000000000  0.4933650000000  0.5153790000000 1.0
C      1  0.5121810000000  0.5527880000000  0.5205510000000 1.0
C      1  0.4940110000000  0.5632980000000  0.4406660000000 1.0
C      1  0.4044120000000  0.4546100000000  0.4787790000000 1.0
C      1  0.4147270000000  0.5258570000000  0.4530870000000 1.0
C      1  0.4335960000000  0.5783900000000  0.5374710000000 1.0
C      1  0.4677630000000  0.5068840000000  0.5131550000000 1.0
C      1  0.4015740000000  0.4819000000000  0.4694710000000 1.0
C      1  0.4634730000000  0.4453360000000  0.4117430000000 1.0
C      1  0.4113890000000  0.5846820000000  0.4963820000000 1.0
C      1  0.4744300000000  0.4798510000000  0.6007670000000 1.0
C      1  0.5477780000000  0.4528960000000  0.4963890000000 1.0
C      1  0.4072850000000  0.5178580000000  0.5050000000000 1.0
C      1  0.4584550000000  0.4208990000000  0.4269160000000 1.0
C      1  0.4378700000000  0.5606660000000  0.5616030000000 1.0
C      1  0.5246170000000  0.5377210000000  0.4691680000000 1.0
C      1  0.5625860000000  0.5540060000000  0.5494490000000 1.0
C      1  0.4460820000000  0.4172930000000  0.4774800000000 1.0
C      1  0.5676070000000  0.5538110000000  0.4562610000000 1.0
C      1  0.4341190000000  0.5131550000000  0.4361660000000 1.0
C      1  0.4813310000000  0.5986020000000  0.4777050000000 1.0
C      1  0.4943150000000  0.4824860000000  0.3939850000000 1.0
C      1  0.5274150000000  0.5175570000000  0.4484460000000 1.0
C      1  0.5431630000000  0.4806900000000  0.4104220000000 1.0
C      1  0.4624240000000  0.4040410000000  0.5304640000000 1.0
C      1  0.4645390000000  0.5610990000000  0.5749760000000 1.0
C      1  0.5222180000000  0.5120000000000  0.5418430000000 1.0
C      1  0.5881170000000  0.5084170000000  0.4632350000000 1.0
C      1  0.4025520000000  0.4717490000000  0.5250450000000 1.0
C      1  0.5431470000000  0.5876670000000  0.5177130000000 1.0
C      1  0.5547990000000  0.5375390000000  0.5731180000000 1.0
C      1  0.4960060000000  0.4627400000000  0.5257890000000 1.0
C      1  0.5410030000000  0.4945430000000  0.5538700000000 1.0
C      1  0.5859930000000  0.5490170000000  0.5014300000000 1.0
C      1  0.5234490000000  0.3877720000000  0.5215370000000 1.0
C      1  0.5812920000000  0.5413130000000  0.5291770000000 1.0
C      1  0.4430950000000  0.4651340000000  0.4144860000000 1.0
C      1  0.5559730000000  0.5864160000000  0.3989570000000 1.0
C      1  0.5762510000000  0.4379980000000  0.5296300000000 1.0
C      1  0.4539810000000  0.4477540000000  0.5130640000000 1.0
C      1  0.5691810000000  0.4915240000000  0.4191140000000 1.0
C      1  0.4693340000000  0.5350340000000  0.5153090000000 1.0
C      1  0.5468020000000  0.5787500000000  0.5453630000000 1.0
C      1  0.4750520000000  0.4708940000000  0.4728200000000 1.0
C      1  0.5832700000000  0.5512800000000  0.3749700000000 1.0
C      1  0.5357420000000  0.5253370000000  0.4933240000000 1.0
C      1  0.4045820000000  0.5108090000000  0.4754870000000 1.0
C      1  0.5615810000000  0.5070520000000  0.5726630000000 1.0
C      1  0.5500050000000  0.4672550000000  0.6059240000000 1.0
C      1  0.3962880000000  0.4684410000000  0.5519850000000 1.0
C      1  0.4922260000000  0.4899540000000  0.5116910000000 1.0
C      1  0.4797050000000  0.5898320000000  0.5379290000000 1.0
C      1  0.3951820000000  0.4527040000000  0.5056350000000 1.0
C      1  0.4686130000000  0.4442220000000  0.5632550000000 1.0
C      1  0.5232300000000  0.5858420000000  0.5626920000000 1.0
C      1  0.4267380000000  0.5918040000000  0.4732180000000 1.0
C      1  0.5489460000000  0.4287850000000  0.5747710000000 1.0
C      1  0.5345000000000  0.5463060000000  0.5913810000000 1.0
C      1  0.5071370000000  0.4448750000000  0.5969480000000 1.0
C      1  0.4682070000000  0.5513460000000  0.4458420000000 1.0
C      1  0.5138870000000  0.4545530000000  0.5488710000000 1.0
C      1  0.4258690000000  0.4951330000000  0.5790920000000 1.0
C      1  0.5868030000000  0.5776990000000  0.4997570000000 1.0
C      1  0.4574410000000  0.5830050000000  0.5200560000000 1.0
C      1  0.5814950000000  0.4844000000000  0.4458780000000 1.0
C      1  0.5592550000000  0.4913500000000  0.5981040000000 1.0
C      1  0.5887400000000  0.5045940000000  0.5605940000000 1.0
C      1  0.4535010000000  0.4199020000000  0.5067570000000 1.0
C      1  0.4219640000000  0.4330890000000  0.4708430000000 1.0
C      1  0.5057440000000  0.5833990000000  0.4825320000000 1.0
C      1  0.5408710000000  0.4521050000000  0.4138100000000 1.0
C      1  0.5677040000000  0.4087760000000  0.4643270000000 1.0
C      1  0.4751360000000  0.5023790000000  0.3863860000000 1.0
C      1  0.4088520000000  0.5527460000000  0.4473720000000 1.0
C      1  0.5964370000000  0.5197300000000  0.5396190000000 1.0
C      1  0.5625280000000  0.4425370000000  0.4292080000000 1.0
C      1  0.4829840000000  0.5086530000000  0.4375320000000 1.0
C      1  0.4920980000000  0.5300720000000  0.6083530000000 1.0
C      1  0.5466690000000  0.5004400000000  0.4869780000000 1.0
C      1  0.4276990000000  0.5346620000000  0.5510080000000 1.0
C      1  0.5884530000000  0.5267070000000  0.3837290000000 1.0
C      1  0.5466530000000  0.5863560000000  0.4238260000000 1.0
C      1  0.5360470000000  0.4445870000000  0.5961340000000 1.0
C      1  0.5631790000000  0.5931620000000  0.4981540000000 1.0
C      1  0.4833050000000  0.3600590000000  0.5163510000000 1.0
C      1  0.4816070000000  0.4554220000000  0.5877660000000 1.0
C      1  0.4413740000000  0.5121810000000  0.5631110000000 1.0
C      1  0.4853160000000  0.4529830000000  0.4546030000000 1.0
C      1  0.4642280000000  0.3760080000000  0.5266780000000 1.0
C      1  0.4534850000000  0.4675400000000  0.4920560000000 1.0
C      1  0.4784980000000  0.5052690000000  0.6091450000000 1.0
C      1  0.5183550000000  0.5771040000000  0.5075590000000 1.0
C      1  0.4769010000000  0.4170980000000  0.5545370000000 1.0
C      1  0.5093420000000  0.3655470000000  0.5119350000000 1.0
C      1  0.5397770000000  0.4663340000000  0.5507450000000 1.0
C      1  0.4890110000000  0.5433440000000  0.5359990000000 1.0
END
