TITL C-599890-3321-575 1.29312066158967 125000 -235.511591644478 0 0 41 (C1) n - 1
REM
REM in /home/nfs/bkarasulu/CARBON/AIRSS/Generating-Clusters/TERSOFF/Only-C1/FIRE-HFTN
REM
REM
REM
REM
REM
REM ./C.cell (11c1c37f851c82e70ff6c80c92926a4b)
REM AIRSS Version 0.9.1 bugfix July 2018 build 013d7b7c2542+ Fri, 06 Jul 2018 19:26:36 +0100
REM compiler GCC version 9.2.1 20190827 (Red Hat 9.2.1-1)
REM options -cpp -mtune=generic -march=x86-64 -g -O0 -fpre-include=/usr/include/finclude/math-vector-fortran.h
REM seed -1714513566 503278993 487008046 1727216105 -564884749 -223734166 256337685 1385652054 2117673221 -936993908 1389828152 -772487742 -621752656 -1590846408 1877214249 2013202985 544609828 1069745872 -574594912 2125807139 -1635225162 451615679 -1194309540 889412936 -979543652 1615061245 1381528264 1005516398 310654182 -173178910 -1074314944 -1596142329 -1577887717
REM
CELL 1.54180   50.00000   50.00000   50.00000   90.00000   90.00000   90.00000
LATT -1
SFAC C  
C      1  0.4887130000000  0.4732870000000  0.4809760000000 1.0
C      1  0.3774220000000  0.5431860000000  0.5151330000000 1.0
C      1  0.4156680000000  0.4043660000000  0.4077480000000 1.0
C      1  0.4892590000000  0.5161900000000  0.5404430000000 1.0
C      1  0.5499940000000  0.5090180000000  0.4512890000000 1.0
C      1  0.5363280000000  0.4873730000000  0.4398420000000 1.0
C      1  0.5117250000000  0.5198860000000  0.5566790000000 1.0
C      1  0.5131310000000  0.5367650000000  0.4768620000000 1.0
C      1  0.5775920000000  0.5085540000000  0.4552100000000 1.0
C      1  0.5223200000000  0.4709690000000  0.5151650000000 1.0
C      1  0.5342560000000  0.5292820000000  0.4625930000000 1.0
C      1  0.5470950000000  0.4615330000000  0.5161980000000 1.0
C      1  0.4343640000000  0.4191960000000  0.4192870000000 1.0
C      1  0.5146770000000  0.4719010000000  0.4408100000000 1.0
C      1  0.4015850000000  0.5488440000000  0.5230400000000 1.0
C      1  0.4291570000000  0.5547010000000  0.5327090000000 1.0
C      1  0.4207100000000  0.5255110000000  0.5726990000000 1.0
C      1  0.4031980000000  0.5189610000000  0.5914670000000 1.0
C      1  0.5630380000000  0.5270480000000  0.5538740000000 1.0
C      1  0.4934530000000  0.5103260000000  0.5128610000000 1.0
C      1  0.4478740000000  0.5560940000000  0.5095030000000 1.0
C      1  0.4634530000000  0.5216190000000  0.5496520000000 1.0
C      1  0.6016880000000  0.5055930000000  0.4691850000000 1.0
C      1  0.4694660000000  0.5486400000000  0.4959420000000 1.0
C      1  0.4913690000000  0.4644030000000  0.4544980000000 1.0
C      1  0.5841450000000  0.5242100000000  0.5380030000000 1.0
C      1  0.4717360000000  0.4488420000000  0.4423540000000 1.0
C      1  0.5978580000000  0.4684560000000  0.5013530000000 1.0
C      1  0.6256830000000  0.5114020000000  0.4574770000000 1.0
C      1  0.4292570000000  0.5815880000000  0.5471290000000 1.0
C      1  0.4380710000000  0.5332590000000  0.5521370000000 1.0
C      1  0.5729260000000  0.4595090000000  0.5104660000000 1.0
C      1  0.5974640000000  0.5142500000000  0.5172950000000 1.0
C      1  0.3857500000000  0.5126460000000  0.6097790000000 1.0
C      1  0.4530540000000  0.4340220000000  0.4308220000000 1.0
C      1  0.6188700000000  0.4513590000000  0.4979130000000 1.0
C      1  0.6004140000000  0.4963190000000  0.4960180000000 1.0
C      1  0.5375230000000  0.5246240000000  0.5608300000000 1.0
C      1  0.4919780000000  0.5321430000000  0.4944600000000 1.0
C      1  0.5004540000000  0.4843430000000  0.5039010000000 1.0
C      1  0.3972810000000  0.3897800000000  0.3964000000000 1.0
END
