TITL C-599890-3321-1422 -0.00249812725500537 125000 -142.132283677772 0 0 27 (C1) n - 1
REM
REM in /home/nfs/bkarasulu/CARBON/AIRSS/Generating-Clusters/TERSOFF/Only-C1/FIRE-HFTN
REM
REM
REM
REM
REM
REM ./C.cell (11c1c37f851c82e70ff6c80c92926a4b)
REM AIRSS Version 0.9.1 bugfix July 2018 build 013d7b7c2542+ Fri, 06 Jul 2018 19:26:36 +0100
REM compiler GCC version 9.2.1 20190827 (Red Hat 9.2.1-1)
REM options -cpp -mtune=generic -march=x86-64 -g -O0 -fpre-include=/usr/include/finclude/math-vector-fortran.h
REM seed -65369054 718460337 866483584 -1207771256 -206122103 -990826335 808751288 39654059 772196326 -663685729 1337003726 -2089523080 -2075188991 83603101 1907665785 1277256354 -1539746957 486254358 5215090 -395585232 -1795823173 -687474552 586619000 -308844575 -584187864 778690448 767553055 -890968031 918459059 1874672647 -2109697374 436816193 -416800805
REM
CELL 1.54180   50.00000   50.00000   50.00000   90.00000   90.00000   90.00000
LATT -1
SFAC C  
C      1  0.5444400000000  0.4802480000000  0.4811700000000 1.0
C      1  0.5238480000000  0.5273090000000  0.5156530000000 1.0
C      1  0.5324110000000  0.4400420000000  0.5012040000000 1.0
C      1  0.5163200000000  0.5008810000000  0.5099330000000 1.0
C      1  0.5205410000000  0.4820220000000  0.4630720000000 1.0
C      1  0.4753740000000  0.4639450000000  0.4591610000000 1.0
C      1  0.5485110000000  0.5367530000000  0.5084870000000 1.0
C      1  0.5171530000000  0.4767150000000  0.5491330000000 1.0
C      1  0.5011620000000  0.4765410000000  0.5053950000000 1.0
C      1  0.5079820000000  0.5477750000000  0.5563550000000 1.0
C      1  0.4670110000000  0.4883770000000  0.5310540000000 1.0
C      1  0.4556670000000  0.5587060000000  0.4480770000000 1.0
C      1  0.5474760000000  0.4645210000000  0.5072810000000 1.0
C      1  0.5405140000000  0.4729530000000  0.5345120000000 1.0
C      1  0.4734550000000  0.4856700000000  0.5028720000000 1.0
C      1  0.5071360000000  0.4500400000000  0.4927900000000 1.0
C      1  0.4856880000000  0.5568840000000  0.5152410000000 1.0
C      1  0.4987840000000  0.5032260000000  0.4631720000000 1.0
C      1  0.5008280000000  0.5294880000000  0.4531170000000 1.0
C      1  0.4189730000000  0.5040240000000  0.5495620000000 1.0
C      1  0.5032490000000  0.4564760000000  0.4644760000000 1.0
C      1  0.5251500000000  0.5398410000000  0.4460530000000 1.0
C      1  0.4729390000000  0.4899360000000  0.4735410000000 1.0
C      1  0.4900410000000  0.4823480000000  0.5485080000000 1.0
C      1  0.4421670000000  0.4961200000000  0.5406930000000 1.0
C      1  0.5055270000000  0.5442850000000  0.5292950000000 1.0
C      1  0.4776540000000  0.5448750000000  0.4501940000000 1.0
END
