TITL C-599891-72-120 527.503257550875 125000 -799.608344255038 0 0 133 (C1) n - 1
REM
REM in /home/nfs/bkarasulu/CARBON/AIRSS/Generating-Clusters/TERSOFF/Only-C1/FIRE-HFTN
REM
REM
REM
REM
REM
REM ./C.cell (11c1c37f851c82e70ff6c80c92926a4b)
REM AIRSS Version 0.9.1 bugfix July 2018 build 013d7b7c2542+ Fri, 06 Jul 2018 19:26:36 +0100
REM compiler GCC version 9.2.1 20190827 (Red Hat 9.2.1-1)
REM options -cpp -mtune=generic -march=x86-64 -g -O0 -fpre-include=/usr/include/finclude/math-vector-fortran.h
REM seed 1597654381 -885565893 842006088 1867426157 1502459209 468960278 -1404940608 464995339 934486341 1481530078 -276959323 1489736296 -1496871048 1031280172 -702421445 -1159312734 1460672799 -1034040387 1791198364 206944029 1633072032 1529235108 -167952613 520410533 2137655040 1269051156 1181456119 -240643236 -463554657 -427107171 839055004 1141070892 2058623166
REM
CELL 1.54180   50.00000   50.00000   50.00000   90.00000   90.00000   90.00000
LATT -1
SFAC C  
C      1  0.5888980000000  0.4244240000000  0.4792960000000 1.0
C      1  0.4611170000000  0.5317500000000  0.5816910000000 1.0
C      1  0.5237800000000  0.3676520000000  0.5135310000000 1.0
C      1  0.4827640000000  0.5223870000000  0.3860620000000 1.0
C      1  0.5347030000000  0.4818620000000  0.5733850000000 1.0
C      1  0.5924060000000  0.4481050000000  0.4912810000000 1.0
C      1  0.4385260000000  0.5247640000000  0.4042000000000 1.0
C      1  0.4600480000000  0.3472950000000  0.5421570000000 1.0
C      1  0.4673630000000  0.3664850000000  0.5606510000000 1.0
C      1  0.4787140000000  0.5059850000000  0.4709240000000 1.0
C      1  0.5104330000000  0.4801160000000  0.4509190000000 1.0
C      1  0.5361630000000  0.4322610000000  0.5782000000000 1.0
C      1  0.4366560000000  0.4618420000000  0.5184460000000 1.0
C      1  0.4591610000000  0.5577360000000  0.4425390000000 1.0
C      1  0.3982650000000  0.4320200000000  0.5273050000000 1.0
C      1  0.3965220000000  0.5054380000000  0.4802840000000 1.0
C      1  0.5611610000000  0.5750310000000  0.5353130000000 1.0
C      1  0.4635800000000  0.4543080000000  0.4680760000000 1.0
C      1  0.5024880000000  0.4030870000000  0.4668950000000 1.0
C      1  0.4832190000000  0.4477440000000  0.4242390000000 1.0
C      1  0.5629540000000  0.4251980000000  0.5733090000000 1.0
C      1  0.4651360000000  0.4815840000000  0.4743300000000 1.0
C      1  0.5089840000000  0.6631810000000  0.5129130000000 1.0
C      1  0.4481360000000  0.5437630000000  0.4625980000000 1.0
C      1  0.5086100000000  0.4722500000000  0.5231060000000 1.0
C      1  0.4435810000000  0.5209500000000  0.5609520000000 1.0
C      1  0.4713120000000  0.4367330000000  0.4889940000000 1.0
C      1  0.4238310000000  0.5781700000000  0.4912900000000 1.0
C      1  0.5408370000000  0.3727710000000  0.4935650000000 1.0
C      1  0.5126220000000  0.5730450000000  0.4580040000000 1.0
C      1  0.4742660000000  0.5156770000000  0.6005520000000 1.0
C      1  0.4440740000000  0.5098570000000  0.5028430000000 1.0
C      1  0.4548010000000  0.4410760000000  0.5115130000000 1.0
C      1  0.4947490000000  0.5051770000000  0.4477740000000 1.0
C      1  0.4836110000000  0.5276890000000  0.4882940000000 1.0
C      1  0.5329320000000  0.5281820000000  0.4517790000000 1.0
C      1  0.5868860000000  0.4703040000000  0.5051380000000 1.0
C      1  0.5723450000000  0.5100990000000  0.5779000000000 1.0
C      1  0.4283160000000  0.4908890000000  0.4373010000000 1.0
C      1  0.5359880000000  0.4994650000000  0.4072340000000 1.0
C      1  0.5089450000000  0.4623170000000  0.4263570000000 1.0
C      1  0.5591340000000  0.5319000000000  0.5908580000000 1.0
C      1  0.5309490000000  0.4428350000000  0.4251300000000 1.0
C      1  0.5171920000000  0.4112540000000  0.5804140000000 1.0
C      1  0.6014050000000  0.5563700000000  0.5596950000000 1.0
C      1  0.4555560000000  0.4748740000000  0.5679220000000 1.0
C      1  0.5374780000000  0.5876460000000  0.5488450000000 1.0
C      1  0.4714140000000  0.3449430000000  0.4925260000000 1.0
C      1  0.5200130000000  0.4937310000000  0.5941920000000 1.0
C      1  0.5556620000000  0.5026880000000  0.5316790000000 1.0
C      1  0.5206060000000  0.4386150000000  0.4942950000000 1.0
C      1  0.5292300000000  0.4015570000000  0.4563430000000 1.0
C      1  0.3898940000000  0.4078020000000  0.5320600000000 1.0
C      1  0.4732030000000  0.5552700000000  0.4183480000000 1.0
C      1  0.5767860000000  0.4963830000000  0.5098620000000 1.0
C      1  0.3950540000000  0.5062450000000  0.5095410000000 1.0
C      1  0.4804810000000  0.5909030000000  0.5311140000000 1.0
C      1  0.5068380000000  0.4544420000000  0.5451850000000 1.0
C      1  0.5009840000000  0.5466450000000  0.4183670000000 1.0
C      1  0.5359720000000  0.5814680000000  0.4461840000000 1.0
C      1  0.4086520000000  0.4573170000000  0.5222470000000 1.0
C      1  0.5083220000000  0.5285900000000  0.4388000000000 1.0
C      1  0.4733360000000  0.3598390000000  0.4704240000000 1.0
C      1  0.4717210000000  0.5590610000000  0.5778940000000 1.0
C      1  0.4966030000000  0.6521870000000  0.4673700000000 1.0
C      1  0.5279500000000  0.6409970000000  0.5525090000000 1.0
C      1  0.4191880000000  0.5053110000000  0.4617620000000 1.0
C      1  0.4278800000000  0.5651800000000  0.5552110000000 1.0
C      1  0.5341280000000  0.5205950000000  0.5221680000000 1.0
C      1  0.5543150000000  0.5874620000000  0.4896650000000 1.0
C      1  0.5252030000000  0.4847560000000  0.4754100000000 1.0
C      1  0.5165640000000  0.6190830000000  0.4965130000000 1.0
C      1  0.5079890000000  0.5360770000000  0.3919840000000 1.0
C      1  0.5350900000000  0.5124190000000  0.4752510000000 1.0
C      1  0.5662070000000  0.5682520000000  0.5073070000000 1.0
C      1  0.5579070000000  0.5877670000000  0.4613670000000 1.0
C      1  0.4974430000000  0.5031500000000  0.6046520000000 1.0
C      1  0.5417280000000  0.5286610000000  0.4966360000000 1.0
C      1  0.4144030000000  0.4675800000000  0.4314290000000 1.0
C      1  0.4491550000000  0.4952110000000  0.5506440000000 1.0
C      1  0.6067010000000  0.5027260000000  0.4442210000000 1.0
C      1  0.5724120000000  0.4185960000000  0.5490110000000 1.0
C      1  0.4463410000000  0.5719190000000  0.5042320000000 1.0
C      1  0.4777540000000  0.3480700000000  0.5194220000000 1.0
C      1  0.5825350000000  0.5167110000000  0.4876070000000 1.0
C      1  0.4941400000000  0.5511340000000  0.5043370000000 1.0
C      1  0.4060380000000  0.5768300000000  0.4714030000000 1.0
C      1  0.4842070000000  0.3826110000000  0.4618460000000 1.0
C      1  0.5360210000000  0.4185310000000  0.4350840000000 1.0
C      1  0.4633350000000  0.4449970000000  0.4418450000000 1.0
C      1  0.4139610000000  0.5370950000000  0.4094800000000 1.0
C      1  0.4981210000000  0.4065130000000  0.5599960000000 1.0
C      1  0.5020600000000  0.5365310000000  0.5532820000000 1.0
C      1  0.5264750000000  0.4563060000000  0.5658930000000 1.0
C      1  0.5495280000000  0.3897710000000  0.4727630000000 1.0
C      1  0.4996400000000  0.3663220000000  0.5275450000000 1.0
C      1  0.5412880000000  0.4257120000000  0.5081110000000 1.0
C      1  0.4452440000000  0.4892470000000  0.5229800000000 1.0
C      1  0.5007200000000  0.5587530000000  0.5712510000000 1.0
C      1  0.4382850000000  0.5212370000000  0.4765360000000 1.0
C      1  0.5095960000000  0.5713740000000  0.4865620000000 1.0
C      1  0.4918460000000  0.4303290000000  0.5458220000000 1.0
C      1  0.3922490000000  0.4802570000000  0.5207990000000 1.0
C      1  0.5743720000000  0.5633500000000  0.5579890000000 1.0
C      1  0.4235600000000  0.5377260000000  0.5479310000000 1.0
C      1  0.5344190000000  0.6152400000000  0.5520680000000 1.0
C      1  0.3999420000000  0.5532230000000  0.4255490000000 1.0
C      1  0.5557360000000  0.4956430000000  0.5598720000000 1.0
C      1  0.4972180000000  0.4246830000000  0.4850020000000 1.0
C      1  0.5279940000000  0.5700040000000  0.5710230000000 1.0
C      1  0.5091110000000  0.4843800000000  0.4059230000000 1.0
C      1  0.4499420000000  0.5751700000000  0.5683740000000 1.0
C      1  0.4907270000000  0.3810140000000  0.5515550000000 1.0
C      1  0.5070680000000  0.6450510000000  0.4915150000000 1.0
C      1  0.5328980000000  0.5228900000000  0.3905580000000 1.0
C      1  0.4475950000000  0.5000250000000  0.4163420000000 1.0
C      1  0.6003620000000  0.5113620000000  0.5753910000000 1.0
C      1  0.5178160000000  0.6610570000000  0.5380990000000 1.0
C      1  0.5816410000000  0.5063650000000  0.4536950000000 1.0
C      1  0.5747890000000  0.4024450000000  0.4732230000000 1.0
C      1  0.5192920000000  0.4671460000000  0.4972430000000 1.0
C      1  0.3973560000000  0.5677450000000  0.4478260000000 1.0
C      1  0.4052370000000  0.5267970000000  0.5279770000000 1.0
C      1  0.4808580000000  0.4965360000000  0.4005280000000 1.0
C      1  0.6135310000000  0.5333640000000  0.5668170000000 1.0
C      1  0.5536390000000  0.5562450000000  0.5779480000000 1.0
C      1  0.5101140000000  0.5350050000000  0.5272540000000 1.0
C      1  0.5265410000000  0.5929990000000  0.4962840000000 1.0
C      1  0.5606070000000  0.4187420000000  0.5250480000000 1.0
C      1  0.4610720000000  0.5398880000000  0.3962360000000 1.0
C      1  0.5675510000000  0.5409770000000  0.4956850000000 1.0
C      1  0.5577460000000  0.4995710000000  0.4289280000000 1.0
C      1  0.4722520000000  0.5700470000000  0.5151430000000 1.0
END
