TITL C-599897-7526-1018 12.4820294436884 125000 -776.007611626906 0 0 131 (C1) n - 1
REM
REM in /home/nfs/bkarasulu/CARBON/AIRSS/Generating-Clusters/TERSOFF/Only-C1/FIRE-HFTN
REM
REM
REM
REM
REM
REM ./C.cell (11c1c37f851c82e70ff6c80c92926a4b)
REM AIRSS Version 0.9.1 bugfix July 2018 build 013d7b7c2542+ Fri, 06 Jul 2018 19:26:36 +0100
REM compiler GCC version 9.2.1 20190827 (Red Hat 9.2.1-1)
REM options -cpp -mtune=generic -march=x86-64 -g -O0 -fpre-include=/usr/include/finclude/math-vector-fortran.h
REM seed 982903560 1152730268 389282317 -763818831 -508771964 1412988030 1483196521 -159336347 -570682914 251102269 616504573 -473576057 -1017605963 -35793245 -174914505 1557355971 -1191081449 650701879 721790961 2031367589 -92694168 -672283367 723392659 228009062 289089551 1083011528 -679568810 -1455126410 -2129550612 1753806830 1658840736 943921756 -284625457
REM
CELL 1.54180   50.00000   50.00000   50.00000   90.00000   90.00000   90.00000
LATT -1
SFAC C  
C      1  0.5313250000000  0.5110480000000  0.5491700000000 1.0
C      1  0.5894840000000  0.4851270000000  0.4453230000000 1.0
C      1  0.5479160000000  0.5531250000000  0.4732730000000 1.0
C      1  0.4879730000000  0.5286420000000  0.4083690000000 1.0
C      1  0.4405440000000  0.4034430000000  0.4980570000000 1.0
C      1  0.4724000000000  0.4890410000000  0.5435700000000 1.0
C      1  0.4844550000000  0.4226930000000  0.4514110000000 1.0
C      1  0.5055190000000  0.5414960000000  0.5792010000000 1.0
C      1  0.5337280000000  0.5961020000000  0.4712520000000 1.0
C      1  0.4677040000000  0.5022050000000  0.4495970000000 1.0
C      1  0.4300020000000  0.4562590000000  0.4630320000000 1.0
C      1  0.5542640000000  0.4995460000000  0.5360810000000 1.0
C      1  0.4396020000000  0.5669240000000  0.5686990000000 1.0
C      1  0.5548590000000  0.5501660000000  0.5616910000000 1.0
C      1  0.5967040000000  0.5793360000000  0.4261070000000 1.0
C      1  0.4949620000000  0.5711350000000  0.5025140000000 1.0
C      1  0.5154160000000  0.4620910000000  0.3991660000000 1.0
C      1  0.5174180000000  0.4182820000000  0.4902720000000 1.0
C      1  0.5425380000000  0.5074920000000  0.4379700000000 1.0
C      1  0.6150310000000  0.5308860000000  0.4813040000000 1.0
C      1  0.4918310000000  0.5673070000000  0.5786290000000 1.0
C      1  0.4811750000000  0.6103880000000  0.5236700000000 1.0
C      1  0.4815060000000  0.5000690000000  0.4748230000000 1.0
C      1  0.4845350000000  0.6065000000000  0.4727300000000 1.0
C      1  0.5785690000000  0.4218090000000  0.5175690000000 1.0
C      1  0.4277300000000  0.5282050000000  0.4563410000000 1.0
C      1  0.4948400000000  0.4862030000000  0.5286890000000 1.0
C      1  0.6088110000000  0.4856150000000  0.4673880000000 1.0
C      1  0.5799130000000  0.5326490000000  0.5623050000000 1.0
C      1  0.4643670000000  0.4904320000000  0.4949480000000 1.0
C      1  0.5516630000000  0.5733900000000  0.5430260000000 1.0
C      1  0.5930670000000  0.4763090000000  0.5473700000000 1.0
C      1  0.4316210000000  0.5131610000000  0.5821210000000 1.0
C      1  0.5502850000000  0.4576670000000  0.4358110000000 1.0
C      1  0.4631980000000  0.4758320000000  0.4424000000000 1.0
C      1  0.4638500000000  0.5420260000000  0.4880050000000 1.0
C      1  0.4562310000000  0.5831580000000  0.4065150000000 1.0
C      1  0.5835440000000  0.5031810000000  0.5698390000000 1.0
C      1  0.4072140000000  0.5074540000000  0.5426650000000 1.0
C      1  0.4050950000000  0.4647030000000  0.5018720000000 1.0
C      1  0.4508020000000  0.4599550000000  0.4209230000000 1.0
C      1  0.5736200000000  0.5155150000000  0.5208870000000 1.0
C      1  0.5861060000000  0.5648700000000  0.4450140000000 1.0
C      1  0.4724840000000  0.5427650000000  0.5344410000000 1.0
C      1  0.5520510000000  0.4877150000000  0.4922390000000 1.0
C      1  0.4894520000000  0.5196770000000  0.5887100000000 1.0
C      1  0.4531000000000  0.6050730000000  0.5215110000000 1.0
C      1  0.4557030000000  0.4327250000000  0.5359890000000 1.0
C      1  0.5431450000000  0.5901770000000  0.5225040000000 1.0
C      1  0.4700360000000  0.4270300000000  0.6186210000000 1.0
C      1  0.4067530000000  0.5187390000000  0.4970140000000 1.0
C      1  0.5367050000000  0.5411510000000  0.4959330000000 1.0
C      1  0.5763720000000  0.4579350000000  0.4488690000000 1.0
C      1  0.4991830000000  0.4407460000000  0.4935620000000 1.0
C      1  0.5685880000000  0.4935250000000  0.5916640000000 1.0
C      1  0.4757260000000  0.3901020000000  0.5320280000000 1.0
C      1  0.5116160000000  0.5087700000000  0.5285850000000 1.0
C      1  0.4806520000000  0.4499600000000  0.6122400000000 1.0
C      1  0.4932580000000  0.5067520000000  0.3903770000000 1.0
C      1  0.5284550000000  0.6019540000000  0.4995430000000 1.0
C      1  0.5079220000000  0.3925210000000  0.4894780000000 1.0
C      1  0.5305660000000  0.5345640000000  0.5658160000000 1.0
C      1  0.4194530000000  0.5623450000000  0.5227950000000 1.0
C      1  0.4477200000000  0.5049030000000  0.5128970000000 1.0
C      1  0.4324740000000  0.5878680000000  0.5189570000000 1.0
C      1  0.4718640000000  0.3889590000000  0.4172710000000 1.0
C      1  0.4396170000000  0.4668720000000  0.5682560000000 1.0
C      1  0.4586160000000  0.5309100000000  0.5135070000000 1.0
C      1  0.4633820000000  0.5672280000000  0.5811710000000 1.0
C      1  0.5202880000000  0.4769560000000  0.6046640000000 1.0
C      1  0.4696280000000  0.5760080000000  0.4292870000000 1.0
C      1  0.5015240000000  0.5918530000000  0.5682200000000 1.0
C      1  0.5840850000000  0.4485270000000  0.4764790000000 1.0
C      1  0.5879060000000  0.5283020000000  0.4778330000000 1.0
C      1  0.5479100000000  0.4129870000000  0.5535730000000 1.0
C      1  0.4779410000000  0.3719440000000  0.3984910000000 1.0
C      1  0.5444000000000  0.4221760000000  0.4844860000000 1.0
C      1  0.4141020000000  0.4556010000000  0.5257820000000 1.0
C      1  0.5003560000000  0.3905050000000  0.5433740000000 1.0
C      1  0.4663510000000  0.4644860000000  0.3976940000000 1.0
C      1  0.5302950000000  0.4842240000000  0.4747370000000 1.0
C      1  0.5717110000000  0.5059300000000  0.4345260000000 1.0
C      1  0.4872920000000  0.5551950000000  0.4803820000000 1.0
C      1  0.5190480000000  0.5225150000000  0.4512580000000 1.0
C      1  0.4803090000000  0.4421610000000  0.4722960000000 1.0
C      1  0.4348960000000  0.4505550000000  0.5446760000000 1.0
C      1  0.4389610000000  0.4142860000000  0.4449270000000 1.0
C      1  0.4755080000000  0.5953420000000  0.4497220000000 1.0
C      1  0.5706900000000  0.4273170000000  0.5442860000000 1.0
C      1  0.5370450000000  0.4796680000000  0.4475880000000 1.0
C      1  0.4169790000000  0.5257580000000  0.5613300000000 1.0
C      1  0.5090070000000  0.5032710000000  0.4719690000000 1.0
C      1  0.4312880000000  0.4416710000000  0.4367930000000 1.0
C      1  0.5823200000000  0.4508500000000  0.5555760000000 1.0
C      1  0.4330790000000  0.4053910000000  0.4719560000000 1.0
C      1  0.4545350000000  0.5267270000000  0.4444560000000 1.0
C      1  0.5244680000000  0.3998360000000  0.5511390000000 1.0
C      1  0.5292370000000  0.5701730000000  0.4594230000000 1.0
C      1  0.5741740000000  0.5492220000000  0.4647160000000 1.0
C      1  0.4197450000000  0.5052370000000  0.5180690000000 1.0
C      1  0.5037170000000  0.5500970000000  0.4537250000000 1.0
C      1  0.5705520000000  0.4288050000000  0.4915000000000 1.0
C      1  0.4587800000000  0.4599190000000  0.4667820000000 1.0
C      1  0.5721560000000  0.5098310000000  0.4929770000000 1.0
C      1  0.5006830000000  0.5139400000000  0.3647250000000 1.0
C      1  0.6019370000000  0.4684600000000  0.4902790000000 1.0
C      1  0.4487500000000  0.4902860000000  0.5830910000000 1.0
C      1  0.4787460000000  0.5466410000000  0.4326580000000 1.0
C      1  0.5014680000000  0.4567170000000  0.5202940000000 1.0
C      1  0.5458820000000  0.4840340000000  0.6020820000000 1.0
C      1  0.4134590000000  0.5050160000000  0.4714350000000 1.0
C      1  0.4145320000000  0.5771610000000  0.4572250000000 1.0
C      1  0.5307570000000  0.4566770000000  0.5257420000000 1.0
C      1  0.4940340000000  0.6094090000000  0.5490520000000 1.0
C      1  0.4917980000000  0.4779690000000  0.3953850000000 1.0
C      1  0.5899370000000  0.5331070000000  0.5352070000000 1.0
C      1  0.4132630000000  0.4750500000000  0.4760560000000 1.0
C      1  0.6029900000000  0.4751790000000  0.5190900000000 1.0
C      1  0.4225130000000  0.5522670000000  0.5510990000000 1.0
C      1  0.4914480000000  0.5607850000000  0.5284120000000 1.0
C      1  0.5483690000000  0.4770270000000  0.5189370000000 1.0
C      1  0.4110820000000  0.5477660000000  0.4977820000000 1.0
C      1  0.4823370000000  0.4420920000000  0.5382010000000 1.0
C      1  0.5366830000000  0.4507720000000  0.4119130000000 1.0
C      1  0.4656300000000  0.4075430000000  0.4368150000000 1.0
C      1  0.4975750000000  0.6009330000000  0.5000560000000 1.0
C      1  0.4761500000000  0.4946660000000  0.5923240000000 1.0
C      1  0.5180770000000  0.5267020000000  0.5082850000000 1.0
C      1  0.4923030000000  0.4736530000000  0.6031860000000 1.0
C      1  0.4183680000000  0.5532600000000  0.4697260000000 1.0
C      1  0.4546330000000  0.4071670000000  0.5226720000000 1.0
END
