TITL C-599895-9959-143 0.00565302349541399 125000 -657.775362871593 0 0 108 (C1) n - 1
REM
REM in /home/nfs/bkarasulu/CARBON/AIRSS/Generating-Clusters/TERSOFF/Only-C1/FIRE-HFTN
REM
REM
REM
REM
REM
REM ./C.cell (11c1c37f851c82e70ff6c80c92926a4b)
REM AIRSS Version 0.9.1 bugfix July 2018 build 013d7b7c2542+ Fri, 06 Jul 2018 19:26:36 +0100
REM compiler GCC version 9.2.1 20190827 (Red Hat 9.2.1-1)
REM options -cpp -mtune=generic -march=x86-64 -g -O0 -fpre-include=/usr/include/finclude/math-vector-fortran.h
REM seed 854382723 1923533862 -203689335 -1007596201 -77561042 2025749519 -680496725 -443670679 2032887813 1286747143 522740278 1203246502 933742704 -362029542 1481292075 -2074260183 52492097 177432829 -820282489 1587935987 1125704015 172808540 1622864083 -1535767488 1837622541 1342297000 -1380073135 2063704191 -1404542577 59621592 -338317593 759073653 1021795358
REM
CELL 1.54180   50.00000   50.00000   50.00000   90.00000   90.00000   90.00000
LATT -1
SFAC C  
C      1  0.5396740000000  0.5532680000000  0.5453550000000 1.0
C      1  0.4471820000000  0.5837510000000  0.5347940000000 1.0
C      1  0.5804190000000  0.4528540000000  0.5018550000000 1.0
C      1  0.5415370000000  0.5883770000000  0.5034900000000 1.0
C      1  0.5319290000000  0.5043410000000  0.4084580000000 1.0
C      1  0.4952340000000  0.5598140000000  0.5687640000000 1.0
C      1  0.5978710000000  0.4937580000000  0.4620670000000 1.0
C      1  0.5885310000000  0.5167400000000  0.4766740000000 1.0
C      1  0.5407100000000  0.5700980000000  0.4472440000000 1.0
C      1  0.4662420000000  0.5800980000000  0.5119430000000 1.0
C      1  0.5537090000000  0.4753540000000  0.4643250000000 1.0
C      1  0.4681170000000  0.5562510000000  0.5775070000000 1.0
C      1  0.5354340000000  0.5842830000000  0.5313130000000 1.0
C      1  0.4944060000000  0.5648330000000  0.5413930000000 1.0
C      1  0.4473290000000  0.6062810000000  0.4491630000000 1.0
C      1  0.5181760000000  0.5851960000000  0.4594300000000 1.0
C      1  0.5332330000000  0.4946600000000  0.5522460000000 1.0
C      1  0.5275680000000  0.5066490000000  0.5264430000000 1.0
C      1  0.5162170000000  0.4379050000000  0.4761130000000 1.0
C      1  0.4751070000000  0.5903090000000  0.3994160000000 1.0
C      1  0.5848770000000  0.5084080000000  0.5057000000000 1.0
C      1  0.5677560000000  0.4265190000000  0.5048430000000 1.0
C      1  0.4912450000000  0.5760620000000  0.4483810000000 1.0
C      1  0.5170290000000  0.5949730000000  0.4872550000000 1.0
C      1  0.5304160000000  0.5272380000000  0.5867110000000 1.0
C      1  0.4524350000000  0.4528380000000  0.4444030000000 1.0
C      1  0.4558080000000  0.4801220000000  0.4385960000000 1.0
C      1  0.4914280000000  0.3742390000000  0.4986750000000 1.0
C      1  0.4122280000000  0.4687840000000  0.4969120000000 1.0
C      1  0.4903660000000  0.5787120000000  0.4183100000000 1.0
C      1  0.4068910000000  0.5300250000000  0.5398570000000 1.0
C      1  0.5193020000000  0.4788830000000  0.4098910000000 1.0
C      1  0.5411160000000  0.5495780000000  0.4261900000000 1.0
C      1  0.4635390000000  0.5110380000000  0.5390910000000 1.0
C      1  0.5077070000000  0.4166380000000  0.5985490000000 1.0
C      1  0.4931770000000  0.5954810000000  0.5067850000000 1.0
C      1  0.4487850000000  0.5187530000000  0.5622490000000 1.0
C      1  0.4283030000000  0.4441720000000  0.4569020000000 1.0
C      1  0.4011870000000  0.4552030000000  0.5605570000000 1.0
C      1  0.4287040000000  0.5394390000000  0.5552250000000 1.0
C      1  0.4082000000000  0.4339270000000  0.4412560000000 1.0
C      1  0.5284320000000  0.5451490000000  0.4959600000000 1.0
C      1  0.4087410000000  0.5187950000000  0.4937370000000 1.0
C      1  0.5764060000000  0.5546020000000  0.5111940000000 1.0
C      1  0.4984380000000  0.4596960000000  0.5465730000000 1.0
C      1  0.4638470000000  0.5054000000000  0.4368950000000 1.0
C      1  0.5257940000000  0.5347040000000  0.5222520000000 1.0
C      1  0.5779710000000  0.4780310000000  0.4496210000000 1.0
C      1  0.4400960000000  0.6127350000000  0.4239510000000 1.0
C      1  0.5539200000000  0.5631250000000  0.4936840000000 1.0
C      1  0.4527970000000  0.6054340000000  0.4012020000000 1.0
C      1  0.5225130000000  0.4690610000000  0.5590510000000 1.0
C      1  0.5132630000000  0.4535900000000  0.4178090000000 1.0
C      1  0.5230310000000  0.5322060000000  0.4110030000000 1.0
C      1  0.4730470000000  0.4350600000000  0.4368580000000 1.0
C      1  0.4051530000000  0.4934900000000  0.5082460000000 1.0
C      1  0.5391270000000  0.4954200000000  0.4778410000000 1.0
C      1  0.4908750000000  0.5471150000000  0.4574250000000 1.0
C      1  0.5401400000000  0.4518740000000  0.4678530000000 1.0
C      1  0.5786320000000  0.5296160000000  0.5251420000000 1.0
C      1  0.4574040000000  0.5213360000000  0.4919010000000 1.0
C      1  0.5102450000000  0.5154710000000  0.6024510000000 1.0
C      1  0.5089510000000  0.4430840000000  0.5030760000000 1.0
C      1  0.5011050000000  0.4322460000000  0.4331160000000 1.0
C      1  0.4893110000000  0.4030850000000  0.5845440000000 1.0
C      1  0.5747780000000  0.4833620000000  0.4222300000000 1.0
C      1  0.4793710000000  0.4026010000000  0.5596740000000 1.0
C      1  0.5635560000000  0.5323000000000  0.5509150000000 1.0
C      1  0.4832880000000  0.5152240000000  0.6007380000000 1.0
C      1  0.5265350000000  0.4352120000000  0.5941070000000 1.0
C      1  0.4448630000000  0.5650610000000  0.5581460000000 1.0
C      1  0.4690680000000  0.5276680000000  0.5165330000000 1.0
C      1  0.5376350000000  0.4481240000000  0.5716640000000 1.0
C      1  0.5618190000000  0.5613350000000  0.4657350000000 1.0
C      1  0.4331760000000  0.5212450000000  0.4803150000000 1.0
C      1  0.5074610000000  0.5888550000000  0.5328030000000 1.0
C      1  0.5123940000000  0.5366070000000  0.4734770000000 1.0
C      1  0.5560240000000  0.4336920000000  0.5559330000000 1.0
C      1  0.5483350000000  0.5129580000000  0.5684920000000 1.0
C      1  0.5646310000000  0.5308530000000  0.4313860000000 1.0
C      1  0.4477310000000  0.4027020000000  0.4926950000000 1.0
C      1  0.4930060000000  0.4394430000000  0.5266030000000 1.0
C      1  0.5175350000000  0.3735410000000  0.5042070000000 1.0
C      1  0.4242080000000  0.4459080000000  0.4851830000000 1.0
C      1  0.5279710000000  0.4631150000000  0.5104700000000 1.0
C      1  0.4021830000000  0.5008260000000  0.5366160000000 1.0
C      1  0.4090600000000  0.4325220000000  0.5489760000000 1.0
C      1  0.5322120000000  0.4897650000000  0.5047330000000 1.0
C      1  0.4778520000000  0.5541010000000  0.5207980000000 1.0
C      1  0.4191400000000  0.4213600000000  0.5270240000000 1.0
C      1  0.4678420000000  0.5916790000000  0.4586860000000 1.0
C      1  0.5542830000000  0.4057920000000  0.4872920000000 1.0
C      1  0.4677890000000  0.3851460000000  0.4928640000000 1.0
C      1  0.5154650000000  0.4185270000000  0.4546730000000 1.0
C      1  0.5227260000000  0.5513020000000  0.5724930000000 1.0
C      1  0.5848000000000  0.4791920000000  0.5090540000000 1.0
C      1  0.4303220000000  0.4229850000000  0.5013280000000 1.0
C      1  0.4812060000000  0.4161940000000  0.5366680000000 1.0
C      1  0.5219900000000  0.5120610000000  0.4640540000000 1.0
C      1  0.5601190000000  0.5063890000000  0.4162610000000 1.0
C      1  0.3984140000000  0.4813600000000  0.5561400000000 1.0
C      1  0.5758170000000  0.5366240000000  0.4583330000000 1.0
C      1  0.4638620000000  0.5279360000000  0.5850410000000 1.0
C      1  0.4740290000000  0.5289880000000  0.4438540000000 1.0
C      1  0.5635090000000  0.4222200000000  0.5329740000000 1.0
C      1  0.5412410000000  0.4051890000000  0.4601480000000 1.0
C      1  0.4023540000000  0.5396090000000  0.5128580000000 1.0
C      1  0.5420390000000  0.3842500000000  0.5021100000000 1.0
END
