TITL C-599897-7526-602 -1.46921226666642e-05 125000 -540.531698460093 0 0 88 (C1) n - 1
REM
REM in /home/nfs/bkarasulu/CARBON/AIRSS/Generating-Clusters/TERSOFF/Only-C1/FIRE-HFTN
REM
REM
REM
REM
REM
REM ./C.cell (11c1c37f851c82e70ff6c80c92926a4b)
REM AIRSS Version 0.9.1 bugfix July 2018 build 013d7b7c2542+ Fri, 06 Jul 2018 19:26:36 +0100
REM compiler GCC version 9.2.1 20190827 (Red Hat 9.2.1-1)
REM options -cpp -mtune=generic -march=x86-64 -g -O0 -fpre-include=/usr/include/finclude/math-vector-fortran.h
REM seed -1072856638 1860987589 336249864 1495532025 2092309751 -1258401032 479764301 1313253852 -1954416071 1904750426 684058076 1050834498 -627168259 -1446565211 782002762 -1882647512 -1294941110 -1875716950 856605014 -1157900422 1894887217 -866328424 -117820003 1446327155 20337837 96178884 -2131315012 -566739059 378298166 -1219730294 346223989 761509508 1130195489
REM
CELL 1.54180   50.00000   50.00000   50.00000   90.00000   90.00000   90.00000
LATT -1
SFAC C  
C      1  0.5836550000000  0.4837660000000  0.5018380000000 1.0
C      1  0.4717090000000  0.5685940000000  0.5126460000000 1.0
C      1  0.4722250000000  0.5233110000000  0.4471770000000 1.0
C      1  0.4705620000000  0.4580930000000  0.4194160000000 1.0
C      1  0.5360570000000  0.5428260000000  0.5476080000000 1.0
C      1  0.4996620000000  0.4647870000000  0.5973470000000 1.0
C      1  0.4273850000000  0.5103710000000  0.4638600000000 1.0
C      1  0.5769420000000  0.4891130000000  0.4741560000000 1.0
C      1  0.5385540000000  0.4559170000000  0.5465720000000 1.0
C      1  0.4281010000000  0.4447920000000  0.4484450000000 1.0
C      1  0.5355010000000  0.5388430000000  0.4919560000000 1.0
C      1  0.5417920000000  0.5283330000000  0.4169120000000 1.0
C      1  0.4659880000000  0.5437790000000  0.4287680000000 1.0
C      1  0.5314630000000  0.4839500000000  0.4512310000000 1.0
C      1  0.5458170000000  0.4223470000000  0.4575940000000 1.0
C      1  0.4951850000000  0.4607350000000  0.4969790000000 1.0
C      1  0.4536480000000  0.5048110000000  0.4567260000000 1.0
C      1  0.4170680000000  0.4642670000000  0.5165900000000 1.0
C      1  0.4046060000000  0.4940970000000  0.5552580000000 1.0
C      1  0.4456500000000  0.4512580000000  0.4282030000000 1.0
C      1  0.4747830000000  0.5337900000000  0.5773240000000 1.0
C      1  0.4258730000000  0.4906240000000  0.5070890000000 1.0
C      1  0.5611200000000  0.5437540000000  0.5024590000000 1.0
C      1  0.5519430000000  0.5511690000000  0.4266590000000 1.0
C      1  0.5180610000000  0.5028450000000  0.4680620000000 1.0
C      1  0.5205610000000  0.5579780000000  0.4787840000000 1.0
C      1  0.5614480000000  0.5403630000000  0.5307350000000 1.0
C      1  0.4736410000000  0.5754990000000  0.4854560000000 1.0
C      1  0.4398710000000  0.4205420000000  0.5205410000000 1.0
C      1  0.4653490000000  0.5399750000000  0.5513590000000 1.0
C      1  0.4596090000000  0.4827200000000  0.5412710000000 1.0
C      1  0.4780060000000  0.4586870000000  0.4755770000000 1.0
C      1  0.5050870000000  0.5014560000000  0.5333600000000 1.0
C      1  0.5566930000000  0.5907660000000  0.4614740000000 1.0
C      1  0.5196940000000  0.5088170000000  0.5841670000000 1.0
C      1  0.5567520000000  0.5732430000000  0.4411180000000 1.0
C      1  0.5399480000000  0.5226460000000  0.5689640000000 1.0
C      1  0.4533630000000  0.5661950000000  0.4403540000000 1.0
C      1  0.5657250000000  0.4655270000000  0.5122880000000 1.0
C      1  0.5660420000000  0.5090360000000  0.5651600000000 1.0
C      1  0.4653950000000  0.4810770000000  0.4652710000000 1.0
C      1  0.4261920000000  0.4397210000000  0.5036300000000 1.0
C      1  0.4414780000000  0.5258410000000  0.5415960000000 1.0
C      1  0.5208240000000  0.4796860000000  0.5866500000000 1.0
C      1  0.5136730000000  0.5602180000000  0.5391580000000 1.0
C      1  0.5395370000000  0.4312250000000  0.5286400000000 1.0
C      1  0.4164670000000  0.5192130000000  0.5551260000000 1.0
C      1  0.4751090000000  0.4546480000000  0.5947490000000 1.0
C      1  0.5667220000000  0.4823790000000  0.5748380000000 1.0
C      1  0.4961410000000  0.4673820000000  0.4192150000000 1.0
C      1  0.4539310000000  0.5765450000000  0.4653520000000 1.0
C      1  0.4656180000000  0.5531250000000  0.3808970000000 1.0
C      1  0.4839740000000  0.5556520000000  0.5350960000000 1.0
C      1  0.5834480000000  0.5158980000000  0.4672730000000 1.0
C      1  0.5208090000000  0.5100630000000  0.4110690000000 1.0
C      1  0.5549630000000  0.4714360000000  0.4634020000000 1.0
C      1  0.4158840000000  0.4687020000000  0.5462950000000 1.0
C      1  0.5545690000000  0.4400400000000  0.5033720000000 1.0
C      1  0.5518360000000  0.4437630000000  0.4744510000000 1.0
C      1  0.5189190000000  0.4841690000000  0.4247520000000 1.0
C      1  0.4908290000000  0.4214760000000  0.5292120000000 1.0
C      1  0.4859460000000  0.4885140000000  0.5459660000000 1.0
C      1  0.4457870000000  0.5020720000000  0.5247430000000 1.0
C      1  0.3863530000000  0.5126960000000  0.4893610000000 1.0
C      1  0.5275610000000  0.5116530000000  0.4928130000000 1.0
C      1  0.5501880000000  0.6000000000000  0.4858720000000 1.0
C      1  0.4633180000000  0.4347160000000  0.4742660000000 1.0
C      1  0.5378280000000  0.5982420000000  0.5096920000000 1.0
C      1  0.4761340000000  0.5400000000000  0.4023980000000 1.0
C      1  0.4976690000000  0.5217560000000  0.3995160000000 1.0
C      1  0.5439810000000  0.4769920000000  0.5266620000000 1.0
C      1  0.4123250000000  0.5048090000000  0.4867690000000 1.0
C      1  0.5270100000000  0.4971600000000  0.5171000000000 1.0
C      1  0.5234080000000  0.5850870000000  0.5282070000000 1.0
C      1  0.5814790000000  0.5378040000000  0.4834800000000 1.0
C      1  0.5923300000000  0.5028120000000  0.5215040000000 1.0
C      1  0.4641930000000  0.4118940000000  0.5291980000000 1.0
C      1  0.5178920000000  0.4125690000000  0.5317130000000 1.0
C      1  0.4925210000000  0.4481190000000  0.5201540000000 1.0
C      1  0.4957160000000  0.5225280000000  0.5896500000000 1.0
C      1  0.4345650000000  0.4375580000000  0.4756740000000 1.0
C      1  0.4529830000000  0.4538180000000  0.5797410000000 1.0
C      1  0.5784640000000  0.5186900000000  0.5408570000000 1.0
C      1  0.4426930000000  0.4654540000000  0.5566620000000 1.0
C      1  0.5377180000000  0.4034070000000  0.4416330000000 1.0
C      1  0.4980520000000  0.5188000000000  0.4565030000000 1.0
C      1  0.4998590000000  0.5741650000000  0.4755890000000 1.0
C      1  0.5425720000000  0.4668010000000  0.5727490000000 1.0
END
