TITL C-599894-471-1010 2524.48768578917 125000 -912.44326163832 0 0 149 (C1) n - 1
REM
REM in /home/nfs/bkarasulu/CARBON/AIRSS/Generating-Clusters/TERSOFF/Only-C1/FIRE-HFTN
REM
REM
REM
REM
REM
REM ./C.cell (11c1c37f851c82e70ff6c80c92926a4b)
REM AIRSS Version 0.9.1 bugfix July 2018 build 013d7b7c2542+ Fri, 06 Jul 2018 19:26:36 +0100
REM compiler GCC version 9.2.1 20190827 (Red Hat 9.2.1-1)
REM options -cpp -mtune=generic -march=x86-64 -g -O0 -fpre-include=/usr/include/finclude/math-vector-fortran.h
REM seed -1836256954 1037467604 -769073910 -1076604011 -1735008555 -77230020 1132771865 1023243249 -1280953164 2061174029 904940729 903781003 -121167171 3856480 -857089131 -1573166303 -1200643320 -536411155 1640428210 757186035 -558047944 -308549194 779423634 -7490849 174787884 637776012 -573031821 2024346884 -1289368984 1117299229 -413864919 -159262581 -2116658009
REM
CELL 1.54180   50.00000   50.00000   50.00000   90.00000   90.00000   90.00000
LATT -1
SFAC C  
C      1  0.4240920000000  0.4867380000000  0.4741320000000 1.0
C      1  0.5661920000000  0.4903110000000  0.5976630000000 1.0
C      1  0.5245010000000  0.4380250000000  0.6171470000000 1.0
C      1  0.4975720000000  0.4239390000000  0.4238950000000 1.0
C      1  0.4694840000000  0.5118550000000  0.4528520000000 1.0
C      1  0.5747770000000  0.4348800000000  0.5620110000000 1.0
C      1  0.5924530000000  0.5000820000000  0.4950020000000 1.0
C      1  0.4966340000000  0.5135580000000  0.5650830000000 1.0
C      1  0.4541050000000  0.5278850000000  0.4720780000000 1.0
C      1  0.5883590000000  0.5549540000000  0.5257190000000 1.0
C      1  0.5326330000000  0.4827300000000  0.5430820000000 1.0
C      1  0.5000900000000  0.4675910000000  0.4798310000000 1.0
C      1  0.5326410000000  0.5355910000000  0.5049000000000 1.0
C      1  0.5820530000000  0.5654870000000  0.4468930000000 1.0
C      1  0.3974350000000  0.4747230000000  0.5744280000000 1.0
C      1  0.5474570000000  0.4737770000000  0.4727580000000 1.0
C      1  0.4321560000000  0.5349450000000  0.5574760000000 1.0
C      1  0.5283320000000  0.5259540000000  0.5554510000000 1.0
C      1  0.4889180000000  0.6088240000000  0.4988850000000 1.0
C      1  0.4510410000000  0.4586410000000  0.5308790000000 1.0
C      1  0.5566510000000  0.4199290000000  0.4993800000000 1.0
C      1  0.4935830000000  0.5110660000000  0.4925960000000 1.0
C      1  0.4313790000000  0.4150770000000  0.4776870000000 1.0
C      1  0.5038290000000  0.5954070000000  0.4521250000000 1.0
C      1  0.4621310000000  0.6040050000000  0.4890510000000 1.0
C      1  0.5080270000000  0.6057440000000  0.4784360000000 1.0
C      1  0.4717490000000  0.3964170000000  0.4534980000000 1.0
C      1  0.4367350000000  0.4758500000000  0.4524610000000 1.0
C      1  0.3870130000000  0.4596620000000  0.5550550000000 1.0
C      1  0.4678700000000  0.6128960000000  0.4024250000000 1.0
C      1  0.4083110000000  0.4369240000000  0.5136890000000 1.0
C      1  0.4293910000000  0.4991430000000  0.4067220000000 1.0
C      1  0.4686990000000  0.5897490000000  0.4170560000000 1.0
C      1  0.5905130000000  0.4837490000000  0.5519300000000 1.0
C      1  0.6405820000000  0.5020980000000  0.5065520000000 1.0
C      1  0.4621540000000  0.5657400000000  0.4056460000000 1.0
C      1  0.4349410000000  0.5710820000000  0.4710560000000 1.0
C      1  0.4957200000000  0.5139550000000  0.4635040000000 1.0
C      1  0.5644010000000  0.4364100000000  0.4343200000000 1.0
C      1  0.4492650000000  0.4191330000000  0.5010890000000 1.0
C      1  0.5412810000000  0.5521230000000  0.4854750000000 1.0
C      1  0.5298590000000  0.5576490000000  0.6019350000000 1.0
C      1  0.4676410000000  0.5626430000000  0.6146530000000 1.0
C      1  0.5386400000000  0.5697850000000  0.4187120000000 1.0
C      1  0.3915230000000  0.4912800000000  0.4388960000000 1.0
C      1  0.5665760000000  0.4434970000000  0.5129600000000 1.0
C      1  0.3506620000000  0.4705220000000  0.4534380000000 1.0
C      1  0.5228270000000  0.5052580000000  0.6143990000000 1.0
C      1  0.4762300000000  0.5908290000000  0.4443910000000 1.0
C      1  0.5566690000000  0.4621120000000  0.4252150000000 1.0
C      1  0.5649150000000  0.4287320000000  0.5860830000000 1.0
C      1  0.4992710000000  0.4147650000000  0.4934200000000 1.0
C      1  0.4600510000000  0.6008250000000  0.5343290000000 1.0
C      1  0.4152570000000  0.5359420000000  0.4397070000000 1.0
C      1  0.5440820000000  0.4135020000000  0.4736880000000 1.0
C      1  0.5304250000000  0.5773680000000  0.5835110000000 1.0
C      1  0.4753510000000  0.5497560000000  0.5933410000000 1.0
C      1  0.4930270000000  0.4320350000000  0.5826930000000 1.0
C      1  0.4976760000000  0.4077580000000  0.4472760000000 1.0
C      1  0.5297330000000  0.5871820000000  0.5567840000000 1.0
C      1  0.4241810000000  0.4558260000000  0.4375880000000 1.0
C      1  0.5284580000000  0.4685960000000  0.4315060000000 1.0
C      1  0.5446270000000  0.5161900000000  0.4456000000000 1.0
C      1  0.4069120000000  0.5315110000000  0.5156640000000 1.0
C      1  0.4332990000000  0.4894470000000  0.4997750000000 1.0
C      1  0.5866270000000  0.5038720000000  0.4681230000000 1.0
C      1  0.4068330000000  0.4313770000000  0.4846930000000 1.0
C      1  0.4401670000000  0.4841400000000  0.5969160000000 1.0
C      1  0.4112080000000  0.5094650000000  0.4275780000000 1.0
C      1  0.3782460000000  0.4699510000000  0.4534090000000 1.0
C      1  0.5153880000000  0.4104410000000  0.4704090000000 1.0
C      1  0.4579230000000  0.4541530000000  0.4067180000000 1.0
C      1  0.5241030000000  0.5557460000000  0.3987400000000 1.0
C      1  0.4353960000000  0.4122570000000  0.4275980000000 1.0
C      1  0.4583860000000  0.5383910000000  0.5486360000000 1.0
C      1  0.4168840000000  0.4927260000000  0.5835030000000 1.0
C      1  0.4585420000000  0.4897700000000  0.4397370000000 1.0
C      1  0.5181530000000  0.5218880000000  0.4500780000000 1.0
C      1  0.5397630000000  0.3626260000000  0.5381820000000 1.0
C      1  0.6141880000000  0.5036980000000  0.5123880000000 1.0
C      1  0.5248000000000  0.5880500000000  0.4349740000000 1.0
C      1  0.5696740000000  0.4895520000000  0.5083710000000 1.0
C      1  0.5626560000000  0.5567220000000  0.4274010000000 1.0
C      1  0.4538350000000  0.4832990000000  0.4114890000000 1.0
C      1  0.5609700000000  0.5283040000000  0.4254650000000 1.0
C      1  0.4690290000000  0.5273510000000  0.4985660000000 1.0
C      1  0.5109510000000  0.5056500000000  0.3972680000000 1.0
C      1  0.5758480000000  0.4829070000000  0.4177310000000 1.0
C      1  0.5594750000000  0.5731060000000  0.4912710000000 1.0
C      1  0.5609480000000  0.4133050000000  0.4503110000000 1.0
C      1  0.4547830000000  0.4718410000000  0.5051160000000 1.0
C      1  0.6090620000000  0.5558290000000  0.5059950000000 1.0
C      1  0.5839480000000  0.5105690000000  0.4227630000000 1.0
C      1  0.5607390000000  0.4657920000000  0.4961640000000 1.0
C      1  0.5148730000000  0.4081930000000  0.5463230000000 1.0
C      1  0.4746490000000  0.4566680000000  0.4881720000000 1.0
C      1  0.5757010000000  0.4980490000000  0.5727250000000 1.0
C      1  0.4719870000000  0.4670160000000  0.5482330000000 1.0
C      1  0.5264210000000  0.5333910000000  0.6132510000000 1.0
C      1  0.4336980000000  0.5443100000000  0.4609430000000 1.0
C      1  0.5122350000000  0.4727830000000  0.5266930000000 1.0
C      1  0.4778800000000  0.5353910000000  0.5696670000000 1.0
C      1  0.6028300000000  0.5071730000000  0.5382100000000 1.0
C      1  0.5220550000000  0.4666580000000  0.4606600000000 1.0
C      1  0.5525520000000  0.4961080000000  0.5288530000000 1.0
C      1  0.4750410000000  0.4286560000000  0.4946710000000 1.0
C      1  0.5993890000000  0.5186210000000  0.4471210000000 1.0
C      1  0.5143280000000  0.5316840000000  0.3920270000000 1.0
C      1  0.4867980000000  0.4711460000000  0.6123610000000 1.0
C      1  0.3990080000000  0.5559520000000  0.4294770000000 1.0
C      1  0.4993340000000  0.4456860000000  0.6066880000000 1.0
C      1  0.4787340000000  0.4881650000000  0.5674640000000 1.0
C      1  0.4566020000000  0.5895420000000  0.4648260000000 1.0
C      1  0.5738080000000  0.3900840000000  0.4434310000000 1.0
C      1  0.4261200000000  0.5763680000000  0.4987780000000 1.0
C      1  0.5048670000000  0.4864150000000  0.5023340000000 1.0
C      1  0.4961440000000  0.4539280000000  0.5403880000000 1.0
C      1  0.4437750000000  0.5956980000000  0.5110220000000 1.0
C      1  0.4360650000000  0.4345150000000  0.5227320000000 1.0
C      1  0.4442510000000  0.4045780000000  0.4536170000000 1.0
C      1  0.4829850000000  0.4407480000000  0.4084390000000 1.0
C      1  0.5628500000000  0.5228810000000  0.5611420000000 1.0
C      1  0.5382880000000  0.4888000000000  0.5971200000000 1.0
C      1  0.6031840000000  0.5465520000000  0.4545070000000 1.0
C      1  0.5247760000000  0.5459090000000  0.5317400000000 1.0
C      1  0.5734880000000  0.5822050000000  0.4685300000000 1.0
C      1  0.5855730000000  0.5319300000000  0.5428200000000 1.0
C      1  0.4881910000000  0.6071300000000  0.5282100000000 1.0
C      1  0.5270010000000  0.3849490000000  0.5424710000000 1.0
C      1  0.5788350000000  0.4522060000000  0.5400670000000 1.0
C      1  0.4708630000000  0.5418040000000  0.5231760000000 1.0
C      1  0.4963440000000  0.5538200000000  0.5267990000000 1.0
C      1  0.5654990000000  0.5718050000000  0.5198960000000 1.0
C      1  0.5482250000000  0.4306060000000  0.6069120000000 1.0
C      1  0.5588150000000  0.4978870000000  0.4620840000000 1.0
C      1  0.5145490000000  0.4836850000000  0.4121510000000 1.0
C      1  0.5014420000000  0.4911750000000  0.6262610000000 1.0
C      1  0.4188270000000  0.5075370000000  0.5153810000000 1.0
C      1  0.3895770000000  0.4465480000000  0.5319430000000 1.0
C      1  0.4093180000000  0.5577470000000  0.5110540000000 1.0
C      1  0.6151610000000  0.5522440000000  0.4798720000000 1.0
C      1  0.5016530000000  0.4307380000000  0.5557110000000 1.0
C      1  0.4679310000000  0.4816870000000  0.5937010000000 1.0
C      1  0.5422580000000  0.5703870000000  0.5371940000000 1.0
C      1  0.3906590000000  0.4481280000000  0.4679540000000 1.0
C      1  0.4362000000000  0.4389280000000  0.4187740000000 1.0
C      1  0.5094900000000  0.6042120000000  0.5463550000000 1.0
C      1  0.4173620000000  0.5186940000000  0.5726880000000 1.0
C      1  0.5299400000000  0.4798430000000  0.5713140000000 1.0
END
