TITL C-599891-72-808 40234.8727325921 125000 -1092.86408579817 0 0 178 (C1) n - 1
REM
REM in /home/nfs/bkarasulu/CARBON/AIRSS/Generating-Clusters/TERSOFF/Only-C1/FIRE-HFTN
REM
REM
REM
REM
REM
REM ./C.cell (11c1c37f851c82e70ff6c80c92926a4b)
REM AIRSS Version 0.9.1 bugfix July 2018 build 013d7b7c2542+ Fri, 06 Jul 2018 19:26:36 +0100
REM compiler GCC version 9.2.1 20190827 (Red Hat 9.2.1-1)
REM options -cpp -mtune=generic -march=x86-64 -g -O0 -fpre-include=/usr/include/finclude/math-vector-fortran.h
REM seed -1250751979 165883966 1184794163 856553790 -1500778356 1395706741 -1886420509 1985973160 574074654 246559594 2083995829 1089684632 -879820452 1320100168 -713979164 -901535422 -623309431 -165350869 1229047876 433508717 55699426 833370757 -1331600966 2049740961 1755490430 148686883 1899023118 465152064 390609110 2125647970 -301204907 512253222 896707117
REM
CELL 1.54180   50.00000   50.00000   50.00000   90.00000   90.00000   90.00000
LATT -1
SFAC C  
C      1  0.5907060000000  0.5025450000000  0.4039420000000 1.0
C      1  0.5456070000000  0.4689060000000  0.4035540000000 1.0
C      1  0.4651930000000  0.4135820000000  0.4489350000000 1.0
C      1  0.4409050000000  0.5338740000000  0.4673040000000 1.0
C      1  0.5706080000000  0.5620260000000  0.4076980000000 1.0
C      1  0.5707390000000  0.4552440000000  0.4054230000000 1.0
C      1  0.5693360000000  0.5919490000000  0.4741910000000 1.0
C      1  0.6072450000000  0.5394270000000  0.5055660000000 1.0
C      1  0.3948940000000  0.5345630000000  0.5531050000000 1.0
C      1  0.5321250000000  0.5714320000000  0.5338600000000 1.0
C      1  0.5633610000000  0.4286940000000  0.4472610000000 1.0
C      1  0.4860840000000  0.4820320000000  0.5578120000000 1.0
C      1  0.4685690000000  0.4093280000000  0.5402600000000 1.0
C      1  0.4860300000000  0.6084750000000  0.4943650000000 1.0
C      1  0.5577540000000  0.5668500000000  0.4685550000000 1.0
C      1  0.3942670000000  0.5508930000000  0.4912150000000 1.0
C      1  0.5357330000000  0.4233650000000  0.4590280000000 1.0
C      1  0.5172410000000  0.4247040000000  0.5837010000000 1.0
C      1  0.6139610000000  0.4630620000000  0.4252820000000 1.0
C      1  0.5071250000000  0.5378510000000  0.5928240000000 1.0
C      1  0.4654680000000  0.4074910000000  0.4190840000000 1.0
C      1  0.4019240000000  0.5019530000000  0.5105590000000 1.0
C      1  0.4026700000000  0.5527890000000  0.4358100000000 1.0
C      1  0.5468330000000  0.4916030000000  0.4471600000000 1.0
C      1  0.4570630000000  0.5671130000000  0.4323520000000 1.0
C      1  0.5033440000000  0.5658110000000  0.5971990000000 1.0
C      1  0.5284080000000  0.3867100000000  0.4985960000000 1.0
C      1  0.4224390000000  0.4564610000000  0.5379000000000 1.0
C      1  0.5085510000000  0.4516490000000  0.5069850000000 1.0
C      1  0.5182830000000  0.4323720000000  0.4154590000000 1.0
C      1  0.4943410000000  0.4908690000000  0.3787600000000 1.0
C      1  0.4162970000000  0.5927640000000  0.5102450000000 1.0
C      1  0.3904040000000  0.5223890000000  0.4943850000000 1.0
C      1  0.5686870000000  0.4804130000000  0.4880750000000 1.0
C      1  0.3949610000000  0.5582730000000  0.4621270000000 1.0
C      1  0.4208640000000  0.5970510000000  0.4818920000000 1.0
C      1  0.4273970000000  0.3825300000000  0.4585320000000 1.0
C      1  0.4182290000000  0.4626140000000  0.6083200000000 1.0
C      1  0.5887280000000  0.4266680000000  0.5347480000000 1.0
C      1  0.4750890000000  0.5839560000000  0.4220410000000 1.0
C      1  0.4607580000000  0.4700640000000  0.4158910000000 1.0
C      1  0.6151730000000  0.5391680000000  0.5326400000000 1.0
C      1  0.4855560000000  0.5840730000000  0.5393350000000 1.0
C      1  0.4275900000000  0.5146800000000  0.6134530000000 1.0
C      1  0.4464280000000  0.5610550000000  0.4576230000000 1.0
C      1  0.4669510000000  0.4445650000000  0.5829470000000 1.0
C      1  0.4981290000000  0.5946760000000  0.4303760000000 1.0
C      1  0.4432620000000  0.4305860000000  0.5774340000000 1.0
C      1  0.3993130000000  0.4649760000000  0.5514460000000 1.0
C      1  0.4113400000000  0.4717370000000  0.4293420000000 1.0
C      1  0.5798820000000  0.5307670000000  0.5008840000000 1.0
C      1  0.4670770000000  0.4244880000000  0.3981430000000 1.0
C      1  0.4716110000000  0.4219320000000  0.5135870000000 1.0
C      1  0.4982710000000  0.4891510000000  0.4415250000000 1.0
C      1  0.6111120000000  0.5178620000000  0.4167540000000 1.0
C      1  0.5168950000000  0.4135620000000  0.5571620000000 1.0
C      1  0.4445560000000  0.4734650000000  0.5309000000000 1.0
C      1  0.4360290000000  0.5566010000000  0.5513700000000 1.0
C      1  0.4112920000000  0.4461300000000  0.4364480000000 1.0
C      1  0.5267790000000  0.4307610000000  0.5113680000000 1.0
C      1  0.5445050000000  0.4752190000000  0.5291640000000 1.0
C      1  0.4777720000000  0.5732970000000  0.6381710000000 1.0
C      1  0.5828210000000  0.5733680000000  0.5387320000000 1.0
C      1  0.5331400000000  0.5452160000000  0.4341620000000 1.0
C      1  0.5336750000000  0.4288610000000  0.5397030000000 1.0
C      1  0.5657630000000  0.5054690000000  0.5668030000000 1.0
C      1  0.5153310000000  0.5820380000000  0.5776420000000 1.0
C      1  0.4630150000000  0.5893550000000  0.4994470000000 1.0
C      1  0.5127460000000  0.4307460000000  0.4432610000000 1.0
C      1  0.4722570000000  0.4677150000000  0.5336420000000 1.0
C      1  0.4105570000000  0.4228900000000  0.5072150000000 1.0
C      1  0.4746730000000  0.4673070000000  0.4442380000000 1.0
C      1  0.5346130000000  0.6264630000000  0.5126810000000 1.0
C      1  0.4396700000000  0.5014270000000  0.5301540000000 1.0
C      1  0.4886880000000  0.4618820000000  0.5795350000000 1.0
C      1  0.4825330000000  0.4006030000000  0.4975110000000 1.0
C      1  0.6139500000000  0.4646830000000  0.5331860000000 1.0
C      1  0.4621830000000  0.5076210000000  0.5669650000000 1.0
C      1  0.5685600000000  0.4803910000000  0.5813520000000 1.0
C      1  0.4544420000000  0.4976670000000  0.4050410000000 1.0
C      1  0.5033840000000  0.5281550000000  0.5657140000000 1.0
C      1  0.3918500000000  0.4871740000000  0.5645020000000 1.0
C      1  0.5564960000000  0.5404730000000  0.4172730000000 1.0
C      1  0.5393160000000  0.4133700000000  0.4888060000000 1.0
C      1  0.5104680000000  0.6180580000000  0.5002430000000 1.0
C      1  0.4199400000000  0.4978070000000  0.4339140000000 1.0
C      1  0.4730320000000  0.4519200000000  0.3962170000000 1.0
C      1  0.5151100000000  0.5057050000000  0.5547780000000 1.0
C      1  0.5458230000000  0.5032650000000  0.5430630000000 1.0
C      1  0.5275180000000  0.5572880000000  0.5099560000000 1.0
C      1  0.3823240000000  0.4562110000000  0.4790800000000 1.0
C      1  0.5611650000000  0.5201630000000  0.5204290000000 1.0
C      1  0.5471520000000  0.4929230000000  0.4187280000000 1.0
C      1  0.5835220000000  0.4299830000000  0.4686160000000 1.0
C      1  0.5123440000000  0.4519440000000  0.5918700000000 1.0
C      1  0.5939660000000  0.4726750000000  0.4065750000000 1.0
C      1  0.5780000000000  0.4067980000000  0.4060430000000 1.0
C      1  0.4221860000000  0.4883580000000  0.6151190000000 1.0
C      1  0.3908790000000  0.5083520000000  0.4690220000000 1.0
C      1  0.4662510000000  0.5967760000000  0.5971140000000 1.0
C      1  0.5131000000000  0.4929060000000  0.6190910000000 1.0
C      1  0.4314930000000  0.5133300000000  0.4128790000000 1.0
C      1  0.4781200000000  0.3966800000000  0.4702950000000 1.0
C      1  0.5370920000000  0.6527440000000  0.5201430000000 1.0
C      1  0.6118750000000  0.5159100000000  0.4439070000000 1.0
C      1  0.4326220000000  0.5384090000000  0.6016860000000 1.0
C      1  0.4174150000000  0.5392350000000  0.4161250000000 1.0
C      1  0.4169090000000  0.4822960000000  0.4983220000000 1.0
C      1  0.4353450000000  0.4088000000000  0.4558550000000 1.0
C      1  0.5469540000000  0.4525340000000  0.5496310000000 1.0
C      1  0.6152780000000  0.4571380000000  0.5034240000000 1.0
C      1  0.4851920000000  0.5475340000000  0.4927010000000 1.0
C      1  0.4615310000000  0.6003190000000  0.5458150000000 1.0
C      1  0.5093160000000  0.5340620000000  0.4254570000000 1.0
C      1  0.4976820000000  0.4632910000000  0.3853770000000 1.0
C      1  0.5639810000000  0.5135360000000  0.4089860000000 1.0
C      1  0.5738920000000  0.4366220000000  0.5132060000000 1.0
C      1  0.5710320000000  0.4915460000000  0.4628770000000 1.0
C      1  0.3789900000000  0.4818190000000  0.4696970000000 1.0
C      1  0.6130260000000  0.5061210000000  0.5638930000000 1.0
C      1  0.5659630000000  0.4647290000000  0.5103910000000 1.0
C      1  0.4430500000000  0.6001080000000  0.5223620000000 1.0
C      1  0.4365620000000  0.5542120000000  0.5801080000000 1.0
C      1  0.4597760000000  0.5455650000000  0.5349290000000 1.0
C      1  0.5293300000000  0.5632070000000  0.4595160000000 1.0
C      1  0.5036930000000  0.3878920000000  0.5139170000000 1.0
C      1  0.4956250000000  0.5105540000000  0.4222050000000 1.0
C      1  0.5690880000000  0.4200800000000  0.4916500000000 1.0
C      1  0.4808470000000  0.5067260000000  0.3983420000000 1.0
C      1  0.5707300000000  0.4301380000000  0.4195680000000 1.0
C      1  0.5562380000000  0.6087370000000  0.5176860000000 1.0
C      1  0.5889900000000  0.5225740000000  0.5650940000000 1.0
C      1  0.5091540000000  0.5187170000000  0.6132140000000 1.0
C      1  0.4848470000000  0.4383730000000  0.4492140000000 1.0
C      1  0.5210010000000  0.4906760000000  0.4590340000000 1.0
C      1  0.5110510000000  0.5806170000000  0.5500850000000 1.0
C      1  0.4508670000000  0.5233410000000  0.5162000000000 1.0
C      1  0.4821660000000  0.5783420000000  0.6117170000000 1.0
C      1  0.4173940000000  0.5128530000000  0.4575610000000 1.0
C      1  0.4036650000000  0.5669420000000  0.5145980000000 1.0
C      1  0.4762160000000  0.5307610000000  0.5572060000000 1.0
C      1  0.5987110000000  0.4942500000000  0.4563990000000 1.0
C      1  0.5194510000000  0.4930150000000  0.4869040000000 1.0
C      1  0.4580980000000  0.6059030000000  0.5731560000000 1.0
C      1  0.5961370000000  0.4487030000000  0.5508170000000 1.0
C      1  0.4966830000000  0.3975420000000  0.5429120000000 1.0
C      1  0.5937650000000  0.5480060000000  0.5506290000000 1.0
C      1  0.5562390000000  0.5857590000000  0.5362570000000 1.0
C      1  0.4453710000000  0.5833060000000  0.4753690000000 1.0
C      1  0.4356760000000  0.4719580000000  0.4816590000000 1.0
C      1  0.6119830000000  0.5668270000000  0.4981760000000 1.0
C      1  0.4623900000000  0.5259720000000  0.4882730000000 1.0
C      1  0.6112920000000  0.4682900000000  0.4532620000000 1.0
C      1  0.6059760000000  0.4493330000000  0.4748470000000 1.0
C      1  0.5964790000000  0.5850110000000  0.5136990000000 1.0
C      1  0.5218070000000  0.4543140000000  0.3980270000000 1.0
C      1  0.5211070000000  0.4766920000000  0.5094450000000 1.0
C      1  0.5171250000000  0.5880530000000  0.4479810000000 1.0
C      1  0.4599760000000  0.4776030000000  0.4686490000000 1.0
C      1  0.5837310000000  0.3845890000000  0.3936750000000 1.0
C      1  0.4068300000000  0.5108960000000  0.5635330000000 1.0
C      1  0.4010410000000  0.4342460000000  0.4823020000000 1.0
C      1  0.5130330000000  0.5533550000000  0.4852910000000 1.0
C      1  0.4157970000000  0.4288560000000  0.4580820000000 1.0
C      1  0.4430890000000  0.4169060000000  0.5515750000000 1.0
C      1  0.5266070000000  0.4705840000000  0.6082660000000 1.0
C      1  0.4752570000000  0.5657630000000  0.5165160000000 1.0
C      1  0.5691620000000  0.5430150000000  0.4780110000000 1.0
C      1  0.5721210000000  0.4580410000000  0.5641890000000 1.0
C      1  0.4822490000000  0.4482660000000  0.5154560000000 1.0
C      1  0.4096150000000  0.5546540000000  0.5397030000000 1.0
C      1  0.6230340000000  0.4880850000000  0.5462750000000 1.0
C      1  0.4350890000000  0.5069340000000  0.5584630000000 1.0
C      1  0.4222200000000  0.4399390000000  0.5940350000000 1.0
C      1  0.4240920000000  0.4285790000000  0.5318990000000 1.0
C      1  0.5542540000000  0.4746290000000  0.6047010000000 1.0
C      1  0.4728230000000  0.5000500000000  0.4798190000000 1.0
C      1  0.5775070000000  0.6019000000000  0.4993820000000 1.0
END
