TITL C-599890-3321-801 0.470037759589247 125000 -407.747030006363 0 0 66 (C1) n - 1
REM
REM in /home/nfs/bkarasulu/CARBON/AIRSS/Generating-Clusters/TERSOFF/Only-C1/FIRE-HFTN
REM
REM
REM
REM
REM
REM ./C.cell (11c1c37f851c82e70ff6c80c92926a4b)
REM AIRSS Version 0.9.1 bugfix July 2018 build 013d7b7c2542+ Fri, 06 Jul 2018 19:26:36 +0100
REM compiler GCC version 9.2.1 20190827 (Red Hat 9.2.1-1)
REM options -cpp -mtune=generic -march=x86-64 -g -O0 -fpre-include=/usr/include/finclude/math-vector-fortran.h
REM seed 2060552051 -58892093 826426618 1128189637 -2055214923 -2096689060 1256334181 -1043262553 891987850 -908284838 1324791482 -884550087 -2082090466 1224197328 594264837 -1108618126 706880360 618529571 2053263005 1979377452 1193089701 594749184 433959299 830804283 -1209650236 1985607270 -1427383671 -1758464285 -1045055461 967505531 1228981415 1288262363 -76161869
REM
CELL 1.54180   50.00000   50.00000   50.00000   90.00000   90.00000   90.00000
LATT -1
SFAC C  
C      1  0.4668330000000  0.5267430000000  0.4949920000000 1.0
C      1  0.4330750000000  0.4321660000000  0.5125920000000 1.0
C      1  0.3924740000000  0.4609380000000  0.5046260000000 1.0
C      1  0.6422790000000  0.3978390000000  0.3904630000000 1.0
C      1  0.4744420000000  0.5043100000000  0.5111950000000 1.0
C      1  0.5497760000000  0.4747410000000  0.5587280000000 1.0
C      1  0.4367580000000  0.5378810000000  0.4537570000000 1.0
C      1  0.4470450000000  0.5682020000000  0.3862720000000 1.0
C      1  0.5763110000000  0.4873120000000  0.4915060000000 1.0
C      1  0.5631080000000  0.5373280000000  0.5429400000000 1.0
C      1  0.5626170000000  0.4717790000000  0.5118660000000 1.0
C      1  0.5297590000000  0.4344440000000  0.5135000000000 1.0
C      1  0.5620510000000  0.4054360000000  0.4839330000000 1.0
C      1  0.4475090000000  0.5809450000000  0.4712610000000 1.0
C      1  0.5172660000000  0.4805140000000  0.5011630000000 1.0
C      1  0.5804010000000  0.4102060000000  0.4652970000000 1.0
C      1  0.4433570000000  0.5411390000000  0.4265370000000 1.0
C      1  0.5439130000000  0.4134700000000  0.5016580000000 1.0
C      1  0.3923490000000  0.5018620000000  0.5285930000000 1.0
C      1  0.6273960000000  0.4073300000000  0.4096470000000 1.0
C      1  0.4288330000000  0.4502290000000  0.5671290000000 1.0
C      1  0.5030310000000  0.5009100000000  0.5135480000000 1.0
C      1  0.4168730000000  0.4642300000000  0.5459300000000 1.0
C      1  0.5075690000000  0.4307300000000  0.5310330000000 1.0
C      1  0.4700300000000  0.5817240000000  0.4271730000000 1.0
C      1  0.6122700000000  0.4169770000000  0.4291430000000 1.0
C      1  0.5054510000000  0.4453620000000  0.5557160000000 1.0
C      1  0.4772520000000  0.4809450000000  0.5551830000000 1.0
C      1  0.4514930000000  0.5221310000000  0.4717450000000 1.0
C      1  0.4672240000000  0.5781940000000  0.4930700000000 1.0
C      1  0.5369350000000  0.4610340000000  0.5063570000000 1.0
C      1  0.4386360000000  0.5080420000000  0.5459000000000 1.0
C      1  0.4726350000000  0.5423050000000  0.5578110000000 1.0
C      1  0.4277700000000  0.5619830000000  0.4657420000000 1.0
C      1  0.4835550000000  0.4203010000000  0.5202420000000 1.0
C      1  0.4131690000000  0.4501410000000  0.5208060000000 1.0
C      1  0.3823730000000  0.4858950000000  0.5088670000000 1.0
C      1  0.5963620000000  0.4271220000000  0.4496470000000 1.0
C      1  0.5319590000000  0.5653110000000  0.4633770000000 1.0
C      1  0.5958030000000  0.4545750000000  0.4552920000000 1.0
C      1  0.4532920000000  0.5637270000000  0.4124690000000 1.0
C      1  0.4144640000000  0.4933290000000  0.5443430000000 1.0
C      1  0.5192720000000  0.5717110000000  0.4409420000000 1.0
C      1  0.5224560000000  0.4690950000000  0.5616370000000 1.0
C      1  0.5744820000000  0.5144850000000  0.5011990000000 1.0
C      1  0.5008060000000  0.5539620000000  0.5191280000000 1.0
C      1  0.4578410000000  0.4221310000000  0.5131630000000 1.0
C      1  0.5466050000000  0.5571050000000  0.5347460000000 1.0
C      1  0.5646680000000  0.4858120000000  0.5376560000000 1.0
C      1  0.4827340000000  0.6027640000000  0.4902390000000 1.0
C      1  0.5405230000000  0.5537280000000  0.4872230000000 1.0
C      1  0.4540550000000  0.4424310000000  0.5723300000000 1.0
C      1  0.4472340000000  0.5323230000000  0.5578500000000 1.0
C      1  0.5886220000000  0.4757810000000  0.4696140000000 1.0
C      1  0.5085740000000  0.5123120000000  0.5402380000000 1.0
C      1  0.4968230000000  0.5384880000000  0.5431530000000 1.0
C      1  0.4779070000000  0.5533350000000  0.5015640000000 1.0
C      1  0.5283720000000  0.5587510000000  0.5128000000000 1.0
C      1  0.4611540000000  0.4941330000000  0.5351010000000 1.0
C      1  0.4978900000000  0.5777380000000  0.4262520000000 1.0
C      1  0.5622810000000  0.5355090000000  0.4871460000000 1.0
C      1  0.5709300000000  0.5133780000000  0.5305180000000 1.0
C      1  0.4784720000000  0.6138500000000  0.4650970000000 1.0
C      1  0.4606380000000  0.5966320000000  0.4496910000000 1.0
C      1  0.5040970000000  0.4916540000000  0.5589150000000 1.0
C      1  0.4778660000000  0.4531100000000  0.5627470000000 1.0
END
