TITL C-599895-9959-575 0.00111126256501827 125000 -585.041567594108 0 0 97 (C1) n - 1
REM
REM in /home/nfs/bkarasulu/CARBON/AIRSS/Generating-Clusters/TERSOFF/Only-C1/FIRE-HFTN
REM
REM
REM
REM
REM
REM ./C.cell (11c1c37f851c82e70ff6c80c92926a4b)
REM AIRSS Version 0.9.1 bugfix July 2018 build 013d7b7c2542+ Fri, 06 Jul 2018 19:26:36 +0100
REM compiler GCC version 9.2.1 20190827 (Red Hat 9.2.1-1)
REM options -cpp -mtune=generic -march=x86-64 -g -O0 -fpre-include=/usr/include/finclude/math-vector-fortran.h
REM seed 211821868 -336176297 228120175 1329908860 -2095654382 889940399 1264084772 1715894517 -1048141902 -674977205 -571906374 1627105548 -308304100 -1650474208 1296151422 787152599 84509718 738112352 940408583 1192847158 -1671329103 -2103433267 1947965672 -442025831 -1579873572 404198930 -2107709801 -50193604 -1732214516 -663032409 1956154530 95519280 -1684752112
REM
CELL 1.54180   50.00000   50.00000   50.00000   90.00000   90.00000   90.00000
LATT -1
SFAC C  
C      1  0.4774650000000  0.4770220000000  0.3938750000000 1.0
C      1  0.4137060000000  0.5172130000000  0.5131150000000 1.0
C      1  0.5239400000000  0.5234350000000  0.4964180000000 1.0
C      1  0.4392910000000  0.5182840000000  0.5272780000000 1.0
C      1  0.4784550000000  0.4554270000000  0.5610050000000 1.0
C      1  0.5175330000000  0.4598930000000  0.6185360000000 1.0
C      1  0.5811630000000  0.4507180000000  0.4360400000000 1.0
C      1  0.6174230000000  0.5798410000000  0.4459240000000 1.0
C      1  0.5056860000000  0.4581240000000  0.5711470000000 1.0
C      1  0.5444860000000  0.5380330000000  0.5111220000000 1.0
C      1  0.4466610000000  0.4298530000000  0.5147730000000 1.0
C      1  0.4571240000000  0.5032270000000  0.4689120000000 1.0
C      1  0.5759880000000  0.4690420000000  0.5454840000000 1.0
C      1  0.5613470000000  0.5088830000000  0.4657320000000 1.0
C      1  0.5306540000000  0.4450800000000  0.5588290000000 1.0
C      1  0.4214730000000  0.4740810000000  0.4852020000000 1.0
C      1  0.4830840000000  0.5565220000000  0.5743860000000 1.0
C      1  0.5292360000000  0.4805580000000  0.5245410000000 1.0
C      1  0.4671500000000  0.5751520000000  0.4429280000000 1.0
C      1  0.5436060000000  0.5537600000000  0.5355080000000 1.0
C      1  0.4939030000000  0.4736610000000  0.4723730000000 1.0
C      1  0.4230940000000  0.5589450000000  0.4541190000000 1.0
C      1  0.4912540000000  0.4189830000000  0.4634410000000 1.0
C      1  0.5191960000000  0.4814270000000  0.4631450000000 1.0
C      1  0.5063020000000  0.5122660000000  0.5497830000000 1.0
C      1  0.5828120000000  0.4971740000000  0.5528100000000 1.0
C      1  0.4585340000000  0.5433640000000  0.5658800000000 1.0
C      1  0.5059950000000  0.4719680000000  0.5967400000000 1.0
C      1  0.5717210000000  0.5257990000000  0.5091330000000 1.0
C      1  0.5797520000000  0.5211290000000  0.5374470000000 1.0
C      1  0.4487950000000  0.4783930000000  0.4793610000000 1.0
C      1  0.5049910000000  0.4671650000000  0.5216730000000 1.0
C      1  0.4913750000000  0.4963950000000  0.6004420000000 1.0
C      1  0.4228430000000  0.4563230000000  0.4388950000000 1.0
C      1  0.5821160000000  0.4568650000000  0.5211510000000 1.0
C      1  0.4691260000000  0.4574320000000  0.4784200000000 1.0
C      1  0.6394850000000  0.5921130000000  0.4394520000000 1.0
C      1  0.5563900000000  0.4576310000000  0.5652560000000 1.0
C      1  0.4102170000000  0.4826110000000  0.4418660000000 1.0
C      1  0.5773080000000  0.4965650000000  0.5816030000000 1.0
C      1  0.4490340000000  0.5439630000000  0.5383740000000 1.0
C      1  0.5663220000000  0.5438770000000  0.5506990000000 1.0
C      1  0.4594740000000  0.4743870000000  0.5480370000000 1.0
C      1  0.4673230000000  0.4306190000000  0.5673960000000 1.0
C      1  0.4625040000000  0.5596710000000  0.5189840000000 1.0
C      1  0.5944060000000  0.5440760000000  0.4694140000000 1.0
C      1  0.5371390000000  0.4370080000000  0.4663110000000 1.0
C      1  0.5623330000000  0.4741740000000  0.5885680000000 1.0
C      1  0.4967600000000  0.4621190000000  0.4045680000000 1.0
C      1  0.5795560000000  0.5239490000000  0.4818670000000 1.0
C      1  0.5458100000000  0.4797930000000  0.5017490000000 1.0
C      1  0.4555860000000  0.4920860000000  0.3919150000000 1.0
C      1  0.4695650000000  0.4412500000000  0.5032970000000 1.0
C      1  0.4254950000000  0.4457530000000  0.5248540000000 1.0
C      1  0.5652160000000  0.4588730000000  0.4989970000000 1.0
C      1  0.4439890000000  0.4391900000000  0.4415830000000 1.0
C      1  0.3914000000000  0.5156790000000  0.5295970000000 1.0
C      1  0.4510500000000  0.5210910000000  0.5822450000000 1.0
C      1  0.4219400000000  0.5864370000000  0.4454950000000 1.0
C      1  0.5293020000000  0.4988360000000  0.5458330000000 1.0
C      1  0.4065770000000  0.4926400000000  0.4692760000000 1.0
C      1  0.4510700000000  0.5512410000000  0.4490470000000 1.0
C      1  0.4320590000000  0.5013900000000  0.4004140000000 1.0
C      1  0.4925900000000  0.5773390000000  0.4547740000000 1.0
C      1  0.4618680000000  0.4995880000000  0.5328610000000 1.0
C      1  0.5300220000000  0.4253850000000  0.5358080000000 1.0
C      1  0.4841040000000  0.5532470000000  0.5018080000000 1.0
C      1  0.4967670000000  0.5277730000000  0.5057970000000 1.0
C      1  0.5153480000000  0.4235780000000  0.5098380000000 1.0
C      1  0.4074450000000  0.5179290000000  0.4840850000000 1.0
C      1  0.4638380000000  0.5003410000000  0.5942050000000 1.0
C      1  0.4944160000000  0.4425570000000  0.5150150000000 1.0
C      1  0.5364870000000  0.4995660000000  0.4801600000000 1.0
C      1  0.4471680000000  0.5956690000000  0.4386080000000 1.0
C      1  0.4873430000000  0.5126940000000  0.5287630000000 1.0
C      1  0.4965090000000  0.5455770000000  0.5970400000000 1.0
C      1  0.5658800000000  0.4968050000000  0.4407710000000 1.0
C      1  0.5040680000000  0.5211900000000  0.6059060000000 1.0
C      1  0.4931870000000  0.5706290000000  0.4820550000000 1.0
C      1  0.4332650000000  0.4626810000000  0.5460990000000 1.0
C      1  0.5690460000000  0.5759700000000  0.4433290000000 1.0
C      1  0.4132170000000  0.4992210000000  0.4193650000000 1.0
C      1  0.4073590000000  0.5421900000000  0.4697890000000 1.0
C      1  0.5937990000000  0.5667220000000  0.4528420000000 1.0
C      1  0.4995320000000  0.5716970000000  0.5573790000000 1.0
C      1  0.5843090000000  0.4366990000000  0.4592210000000 1.0
C      1  0.5432490000000  0.5807400000000  0.4389700000000 1.0
C      1  0.5327070000000  0.4600530000000  0.4452190000000 1.0
C      1  0.5634690000000  0.4396240000000  0.4782920000000 1.0
C      1  0.4676140000000  0.4355190000000  0.4572840000000 1.0
C      1  0.5149190000000  0.4538860000000  0.4222490000000 1.0
C      1  0.4598750000000  0.5256360000000  0.4550280000000 1.0
C      1  0.4102520000000  0.4575490000000  0.5045440000000 1.0
C      1  0.5161030000000  0.4220350000000  0.4795400000000 1.0
C      1  0.5229280000000  0.5698850000000  0.5445520000000 1.0
C      1  0.5599450000000  0.4697690000000  0.4349410000000 1.0
C      1  0.5167820000000  0.5818020000000  0.4415920000000 1.0
END
