TITL C-599896-8500-996 19.7110402135376 125000 -299.075018029886 0 0 50 (C1) n - 1
REM
REM in /home/nfs/bkarasulu/CARBON/AIRSS/Generating-Clusters/TERSOFF/Only-C1/FIRE-HFTN
REM
REM
REM
REM
REM
REM ./C.cell (11c1c37f851c82e70ff6c80c92926a4b)
REM AIRSS Version 0.9.1 bugfix July 2018 build 013d7b7c2542+ Fri, 06 Jul 2018 19:26:36 +0100
REM compiler GCC version 9.2.1 20190827 (Red Hat 9.2.1-1)
REM options -cpp -mtune=generic -march=x86-64 -g -O0 -fpre-include=/usr/include/finclude/math-vector-fortran.h
REM seed -1617921776 1039348351 168557880 1191551909 -1044507946 -1219498736 -336600867 852529118 33002331 1868398967 58198148 -1558073857 -1418380190 1511658129 668924245 1268288158 -337952847 1570131966 -1319345435 -340579928 948577419 2045454483 -1474375281 1786501656 -1668837977 1704177352 -896616985 2134442106 113982774 710234606 -1654967546 1641744451 -211265944
REM
CELL 1.54180   50.00000   50.00000   50.00000   90.00000   90.00000   90.00000
LATT -1
SFAC C  
C      1  0.4892340000000  0.4991380000000  0.4022260000000 1.0
C      1  0.4694510000000  0.5123270000000  0.3904410000000 1.0
C      1  0.4814640000000  0.4799290000000  0.4876920000000 1.0
C      1  0.5937300000000  0.5309820000000  0.5536380000000 1.0
C      1  0.5536720000000  0.4548070000000  0.5249420000000 1.0
C      1  0.4455870000000  0.4933510000000  0.5212280000000 1.0
C      1  0.5632160000000  0.5024270000000  0.5240920000000 1.0
C      1  0.5367160000000  0.5310480000000  0.4918550000000 1.0
C      1  0.4471730000000  0.5266910000000  0.3890910000000 1.0
C      1  0.4261600000000  0.5397550000000  0.3987000000000 1.0
C      1  0.5602210000000  0.5216280000000  0.5051390000000 1.0
C      1  0.5354590000000  0.4509960000000  0.4795420000000 1.0
C      1  0.5843700000000  0.4656630000000  0.4895440000000 1.0
C      1  0.5434570000000  0.5427590000000  0.5636000000000 1.0
C      1  0.5587850000000  0.4556970000000  0.4962850000000 1.0
C      1  0.5701990000000  0.5400330000000  0.5629720000000 1.0
C      1  0.4948290000000  0.5006710000000  0.5300280000000 1.0
C      1  0.4726260000000  0.4916600000000  0.5135080000000 1.0
C      1  0.6043660000000  0.4807550000000  0.4995350000000 1.0
C      1  0.5155810000000  0.4270310000000  0.5168230000000 1.0
C      1  0.6094350000000  0.5163390000000  0.5374250000000 1.0
C      1  0.5047480000000  0.5132570000000  0.5540080000000 1.0
C      1  0.4009330000000  0.5538770000000  0.4419840000000 1.0
C      1  0.5136440000000  0.5552840000000  0.5281820000000 1.0
C      1  0.5362730000000  0.4339770000000  0.5329370000000 1.0
C      1  0.5243710000000  0.5539380000000  0.5033030000000 1.0
C      1  0.4318730000000  0.5175880000000  0.5192280000000 1.0
C      1  0.5117760000000  0.4828320000000  0.4478130000000 1.0
C      1  0.5188950000000  0.5093780000000  0.4873390000000 1.0
C      1  0.6133850000000  0.4985040000000  0.5176560000000 1.0
C      1  0.4213240000000  0.4486440000000  0.5392820000000 1.0
C      1  0.4437780000000  0.4195590000000  0.4724450000000 1.0
C      1  0.4046280000000  0.5485920000000  0.4940130000000 1.0
C      1  0.5037360000000  0.4890490000000  0.4220050000000 1.0
C      1  0.5421180000000  0.4825180000000  0.5637160000000 1.0
C      1  0.5560270000000  0.4793570000000  0.5392510000000 1.0
C      1  0.4039660000000  0.5667050000000  0.5639610000000 1.0
C      1  0.4152520000000  0.5400280000000  0.5183990000000 1.0
C      1  0.3994780000000  0.5534180000000  0.4684650000000 1.0
C      1  0.5111150000000  0.4407310000000  0.4923840000000 1.0
C      1  0.4851000000000  0.4513240000000  0.4861670000000 1.0
C      1  0.5170120000000  0.4962700000000  0.5128360000000 1.0
C      1  0.5004190000000  0.4952490000000  0.4709260000000 1.0
C      1  0.4325330000000  0.4706640000000  0.5309980000000 1.0
C      1  0.4641120000000  0.4346350000000  0.4786320000000 1.0
C      1  0.4092950000000  0.5538840000000  0.5419060000000 1.0
C      1  0.4099910000000  0.5492620000000  0.4174760000000 1.0
C      1  0.5179450000000  0.5392670000000  0.5512340000000 1.0
C      1  0.5191810000000  0.4951330000000  0.5707270000000 1.0
C      1  0.5313590000000  0.4633910000000  0.4544180000000 1.0
END
