TITL C-599892-9790-801 -0.00589242413432476 125000 -531.520232698749 0 0 87 (C1) n - 1
REM
REM in /home/nfs/bkarasulu/CARBON/AIRSS/Generating-Clusters/TERSOFF/Only-C1/FIRE-HFTN
REM
REM
REM
REM
REM
REM ./C.cell (11c1c37f851c82e70ff6c80c92926a4b)
REM AIRSS Version 0.9.1 bugfix July 2018 build 013d7b7c2542+ Fri, 06 Jul 2018 19:26:36 +0100
REM compiler GCC version 9.2.1 20190827 (Red Hat 9.2.1-1)
REM options -cpp -mtune=generic -march=x86-64 -g -O0 -fpre-include=/usr/include/finclude/math-vector-fortran.h
REM seed -1865461563 1150640440 -1922145450 -767351195 1589675655 -1477912225 -713320148 -1464543967 -2096455047 -640522330 -652138040 964439757 1636048993 -1678431946 -397999193 267439843 767243124 940407371 2003569468 1806884084 -1327064276 1692148819 531440471 1966093851 794811391 -838462050 -821820226 -2021015729 -92404636 383179504 1564694745 -1537105309 408940548
REM
CELL 1.54180   50.00000   50.00000   50.00000   90.00000   90.00000   90.00000
LATT -1
SFAC C  
C      1  0.4082480000000  0.4448050000000  0.4566420000000 1.0
C      1  0.5164040000000  0.4836220000000  0.5075970000000 1.0
C      1  0.6017970000000  0.4990460000000  0.4753920000000 1.0
C      1  0.4623460000000  0.4745030000000  0.5913880000000 1.0
C      1  0.4203650000000  0.4437570000000  0.4328590000000 1.0
C      1  0.4768440000000  0.4016980000000  0.4736230000000 1.0
C      1  0.5850820000000  0.5039040000000  0.5403600000000 1.0
C      1  0.5088640000000  0.5297890000000  0.4483110000000 1.0
C      1  0.5808370000000  0.5420640000000  0.4675430000000 1.0
C      1  0.4312050000000  0.4926980000000  0.4946420000000 1.0
C      1  0.5437540000000  0.5775710000000  0.5216290000000 1.0
C      1  0.4967600000000  0.5280460000000  0.5323400000000 1.0
C      1  0.5507350000000  0.5105410000000  0.5825810000000 1.0
C      1  0.4612800000000  0.4750140000000  0.4620850000000 1.0
C      1  0.5735710000000  0.5245700000000  0.5236040000000 1.0
C      1  0.5227250000000  0.5121040000000  0.5716820000000 1.0
C      1  0.4523410000000  0.5303890000000  0.5770170000000 1.0
C      1  0.4869930000000  0.4705170000000  0.4086700000000 1.0
C      1  0.5273370000000  0.4669940000000  0.4369100000000 1.0
C      1  0.5532980000000  0.5018550000000  0.4655290000000 1.0
C      1  0.4412020000000  0.5082610000000  0.5631860000000 1.0
C      1  0.5000410000000  0.4035580000000  0.4596220000000 1.0
C      1  0.4589460000000  0.4099370000000  0.4922970000000 1.0
C      1  0.5501870000000  0.5038140000000  0.6100610000000 1.0
C      1  0.4988360000000  0.4696610000000  0.5504210000000 1.0
C      1  0.4719100000000  0.6021230000000  0.4358880000000 1.0
C      1  0.5802400000000  0.5132520000000  0.4640340000000 1.0
C      1  0.4277820000000  0.5323990000000  0.4323810000000 1.0
C      1  0.5121340000000  0.5327300000000  0.5554590000000 1.0
C      1  0.5198890000000  0.4700180000000  0.4836260000000 1.0
C      1  0.5056510000000  0.5101520000000  0.4303390000000 1.0
C      1  0.5251550000000  0.4162770000000  0.4541270000000 1.0
C      1  0.5231120000000  0.5394090000000  0.4706560000000 1.0
C      1  0.4075670000000  0.4526710000000  0.4822270000000 1.0
C      1  0.5107920000000  0.5868460000000  0.4672300000000 1.0
C      1  0.4778690000000  0.4552500000000  0.4684440000000 1.0
C      1  0.5078450000000  0.4829050000000  0.4228790000000 1.0
C      1  0.5297930000000  0.4923510000000  0.6236500000000 1.0
C      1  0.4816220000000  0.4766630000000  0.6098460000000 1.0
C      1  0.5496880000000  0.5170040000000  0.5100980000000 1.0
C      1  0.4423960000000  0.5588270000000  0.4921620000000 1.0
C      1  0.4371900000000  0.4507250000000  0.5213160000000 1.0
C      1  0.5270710000000  0.4384690000000  0.4361780000000 1.0
C      1  0.4272020000000  0.5132660000000  0.5392700000000 1.0
C      1  0.4298710000000  0.5813620000000  0.4098390000000 1.0
C      1  0.5404630000000  0.5210710000000  0.4835450000000 1.0
C      1  0.4341840000000  0.5146550000000  0.5121720000000 1.0
C      1  0.4507710000000  0.5962640000000  0.4209930000000 1.0
C      1  0.4136310000000  0.5921080000000  0.3906760000000 1.0
C      1  0.4936150000000  0.4795890000000  0.5240870000000 1.0
C      1  0.5467110000000  0.4135300000000  0.4724870000000 1.0
C      1  0.4398740000000  0.4488580000000  0.4153620000000 1.0
C      1  0.5959630000000  0.5838660000000  0.4865790000000 1.0
C      1  0.4923610000000  0.5988890000000  0.4524620000000 1.0
C      1  0.4260590000000  0.5551420000000  0.4188750000000 1.0
C      1  0.5299930000000  0.5756790000000  0.5448390000000 1.0
C      1  0.5755640000000  0.5658560000000  0.4828310000000 1.0
C      1  0.5442940000000  0.4827520000000  0.5467380000000 1.0
C      1  0.5128360000000  0.5606050000000  0.5617170000000 1.0
C      1  0.5010650000000  0.4487860000000  0.4826770000000 1.0
C      1  0.4517410000000  0.5360440000000  0.5051360000000 1.0
C      1  0.6097670000000  0.4912270000000  0.4998620000000 1.0
C      1  0.4893630000000  0.5674870000000  0.5761510000000 1.0
C      1  0.5882760000000  0.4562550000000  0.5237970000000 1.0
C      1  0.4982290000000  0.4414390000000  0.5517770000000 1.0
C      1  0.4671210000000  0.5525940000000  0.5807820000000 1.0
C      1  0.5047520000000  0.4828420000000  0.6218500000000 1.0
C      1  0.5019870000000  0.4254040000000  0.5303440000000 1.0
C      1  0.4632380000000  0.4584890000000  0.4067660000000 1.0
C      1  0.5632600000000  0.4220380000000  0.4918020000000 1.0
C      1  0.4418580000000  0.4614080000000  0.5474130000000 1.0
C      1  0.5977890000000  0.4829950000000  0.5242920000000 1.0
C      1  0.4421460000000  0.4944260000000  0.4682540000000 1.0
C      1  0.5763080000000  0.4363890000000  0.5102860000000 1.0
C      1  0.5032420000000  0.4300770000000  0.5039050000000 1.0
C      1  0.4226170000000  0.4663410000000  0.5019450000000 1.0
C      1  0.4332000000000  0.5128710000000  0.4494500000000 1.0
C      1  0.5495470000000  0.5717060000000  0.4943300000000 1.0
C      1  0.5367240000000  0.4784700000000  0.4616520000000 1.0
C      1  0.5269960000000  0.5666460000000  0.4773370000000 1.0
C      1  0.4477220000000  0.4805880000000  0.5680200000000 1.0
C      1  0.4310320000000  0.5808210000000  0.4840230000000 1.0
C      1  0.4479330000000  0.4262800000000  0.5109110000000 1.0
C      1  0.5391960000000  0.4927920000000  0.5205830000000 1.0
C      1  0.4780560000000  0.5340000000000  0.5144240000000 1.0
C      1  0.5662130000000  0.4967350000000  0.5610900000000 1.0
C      1  0.5195270000000  0.4845690000000  0.5621400000000 1.0
END
