TITL C-599897-7526-690 0.152787322749694 125000 -150.793217372261 0 0 26 (C1) n - 1
REM
REM in /home/nfs/bkarasulu/CARBON/AIRSS/Generating-Clusters/TERSOFF/Only-C1/FIRE-HFTN
REM
REM
REM
REM
REM
REM ./C.cell (11c1c37f851c82e70ff6c80c92926a4b)
REM AIRSS Version 0.9.1 bugfix July 2018 build 013d7b7c2542+ Fri, 06 Jul 2018 19:26:36 +0100
REM compiler GCC version 9.2.1 20190827 (Red Hat 9.2.1-1)
REM options -cpp -mtune=generic -march=x86-64 -g -O0 -fpre-include=/usr/include/finclude/math-vector-fortran.h
REM seed -1466895558 -2037055227 -1326084570 -2081081153 -588782117 -103808606 -488957871 1041145057 395095317 -1882852531 253910636 1064774128 -206368452 -846629775 -601667178 -481871722 -2052222325 -1681738718 -1043004915 -871455015 -1579751745 20334097 -366465746 245116212 1172933074 -2064635053 -1897216733 999912833 49680249 -635849012 -34921260 295226796 680316091
REM
CELL 1.54180   50.00000   50.00000   50.00000   90.00000   90.00000   90.00000
LATT -1
SFAC C  
C      1  0.5056870000000  0.4453100000000  0.5497120000000 1.0
C      1  0.4564870000000  0.4482340000000  0.4741850000000 1.0
C      1  0.4408110000000  0.5830330000000  0.4800380000000 1.0
C      1  0.4824960000000  0.4893000000000  0.4554310000000 1.0
C      1  0.5309140000000  0.5113400000000  0.5561220000000 1.0
C      1  0.5249780000000  0.5312560000000  0.4951500000000 1.0
C      1  0.4664380000000  0.4688000000000  0.4606810000000 1.0
C      1  0.5588220000000  0.4847960000000  0.5284410000000 1.0
C      1  0.5012360000000  0.5296830000000  0.4785480000000 1.0
C      1  0.5600660000000  0.4964360000000  0.5043250000000 1.0
C      1  0.4861410000000  0.4339970000000  0.5357390000000 1.0
C      1  0.5267250000000  0.5343970000000  0.5432390000000 1.0
C      1  0.4802130000000  0.5476430000000  0.4783080000000 1.0
C      1  0.4604630000000  0.5652720000000  0.4790800000000 1.0
C      1  0.5036480000000  0.5060120000000  0.4620640000000 1.0
C      1  0.5310790000000  0.4968300000000  0.4636970000000 1.0
C      1  0.5428130000000  0.5096690000000  0.4868540000000 1.0
C      1  0.5435120000000  0.4798640000000  0.4465510000000 1.0
C      1  0.5274910000000  0.5472840000000  0.5182540000000 1.0
C      1  0.4214910000000  0.6005110000000  0.4809910000000 1.0
C      1  0.4683250000000  0.4288170000000  0.5167680000000 1.0
C      1  0.5247930000000  0.4628630000000  0.5554680000000 1.0
C      1  0.4521830000000  0.4287720000000  0.4938680000000 1.0
C      1  0.5308350000000  0.5743320000000  0.5164250000000 1.0
C      1  0.4325290000000  0.4100170000000  0.4907800000000 1.0
C      1  0.5398260000000  0.4855300000000  0.5492800000000 1.0
END
