TITL C-599895-9959-360 0.0032151911814677 125000 -871.15898067817 0 0 140 (C1) n - 1
REM
REM in /home/nfs/bkarasulu/CARBON/AIRSS/Generating-Clusters/TERSOFF/Only-C1/FIRE-HFTN
REM
REM
REM
REM
REM
REM ./C.cell (11c1c37f851c82e70ff6c80c92926a4b)
REM AIRSS Version 0.9.1 bugfix July 2018 build 013d7b7c2542+ Fri, 06 Jul 2018 19:26:36 +0100
REM compiler GCC version 9.2.1 20190827 (Red Hat 9.2.1-1)
REM options -cpp -mtune=generic -march=x86-64 -g -O0 -fpre-include=/usr/include/finclude/math-vector-fortran.h
REM seed 336497784 -1363248949 113181536 -1090697603 -153065978 1435292919 336485592 612550224 -424596372 1040887388 -6419570 1519257618 -1799166963 -656885481 1392739510 769804948 470965118 -1279774030 2027141270 1431493466 24739069 -961083392 244795902 1104982640 -338731558 -1455277250 -1804497750 -1426309193 -428509561 -185727345 1671018923 606393763 829836722
REM
CELL 1.54180   50.00000   50.00000   50.00000   90.00000   90.00000   90.00000
LATT -1
SFAC C  
C      1  0.4294870000000  0.4350490000000  0.4688370000000 1.0
C      1  0.3969620000000  0.5424380000000  0.5206750000000 1.0
C      1  0.5034270000000  0.4929420000000  0.4450450000000 1.0
C      1  0.5398730000000  0.5557600000000  0.5858540000000 1.0
C      1  0.5545860000000  0.5665150000000  0.4765180000000 1.0
C      1  0.4064520000000  0.5781860000000  0.5574280000000 1.0
C      1  0.5531560000000  0.5354720000000  0.4174290000000 1.0
C      1  0.4986040000000  0.5793450000000  0.5780060000000 1.0
C      1  0.5243700000000  0.4894940000000  0.6139080000000 1.0
C      1  0.4271680000000  0.5938160000000  0.5634310000000 1.0
C      1  0.5428700000000  0.5230150000000  0.4768070000000 1.0
C      1  0.5359700000000  0.4438850000000  0.5944460000000 1.0
C      1  0.4385660000000  0.5208700000000  0.5547670000000 1.0
C      1  0.5565710000000  0.4580320000000  0.4305800000000 1.0
C      1  0.5978000000000  0.4932820000000  0.5133540000000 1.0
C      1  0.5775890000000  0.5255250000000  0.5632420000000 1.0
C      1  0.5481780000000  0.4392440000000  0.5308510000000 1.0
C      1  0.4959500000000  0.3739260000000  0.5365940000000 1.0
C      1  0.5733930000000  0.5571000000000  0.4569790000000 1.0
C      1  0.4179500000000  0.5363970000000  0.4547520000000 1.0
C      1  0.5006340000000  0.4662850000000  0.4595170000000 1.0
C      1  0.4572420000000  0.4841160000000  0.4682520000000 1.0
C      1  0.5395960000000  0.6037930000000  0.4522020000000 1.0
C      1  0.4395050000000  0.3870180000000  0.4820620000000 1.0
C      1  0.4518410000000  0.5224560000000  0.5801000000000 1.0
C      1  0.5660820000000  0.4641900000000  0.5646170000000 1.0
C      1  0.4914290000000  0.5567300000000  0.5945360000000 1.0
C      1  0.4173700000000  0.4773020000000  0.5512690000000 1.0
C      1  0.4881380000000  0.5428280000000  0.4989240000000 1.0
C      1  0.5336810000000  0.3975860000000  0.4597620000000 1.0
C      1  0.4293800000000  0.4924740000000  0.4291710000000 1.0
C      1  0.5536650000000  0.5075470000000  0.4555400000000 1.0
C      1  0.4602430000000  0.4350870000000  0.4637440000000 1.0
C      1  0.4181830000000  0.5074520000000  0.4523150000000 1.0
C      1  0.5594440000000  0.4856950000000  0.5454630000000 1.0
C      1  0.5601680000000  0.5200540000000  0.5025100000000 1.0
C      1  0.5626300000000  0.4475000000000  0.5072870000000 1.0
C      1  0.4526490000000  0.6011590000000  0.5659030000000 1.0
C      1  0.4786710000000  0.5970730000000  0.5700410000000 1.0
C      1  0.5162800000000  0.3823960000000  0.4742030000000 1.0
C      1  0.5090110000000  0.3976740000000  0.5395870000000 1.0
C      1  0.5119890000000  0.5134100000000  0.6057990000000 1.0
C      1  0.4601820000000  0.4360000000000  0.4148760000000 1.0
C      1  0.5760640000000  0.4908240000000  0.4650760000000 1.0
C      1  0.5563460000000  0.5599110000000  0.4322910000000 1.0
C      1  0.6187390000000  0.5337360000000  0.5346990000000 1.0
C      1  0.5520360000000  0.4851870000000  0.6109050000000 1.0
C      1  0.5134780000000  0.4484590000000  0.4067770000000 1.0
C      1  0.4043200000000  0.5560300000000  0.4970310000000 1.0
C      1  0.4584800000000  0.5645480000000  0.4310100000000 1.0
C      1  0.4213520000000  0.4648620000000  0.4314660000000 1.0
C      1  0.4090680000000  0.4865570000000  0.4743110000000 1.0
C      1  0.5325980000000  0.6048000000000  0.5272600000000 1.0
C      1  0.4703480000000  0.5882580000000  0.4678700000000 1.0
C      1  0.4667190000000  0.4987000000000  0.5867660000000 1.0
C      1  0.4665750000000  0.5442270000000  0.4135510000000 1.0
C      1  0.5192330000000  0.4419080000000  0.5344240000000 1.0
C      1  0.4600380000000  0.5054560000000  0.4858320000000 1.0
C      1  0.4761800000000  0.4805160000000  0.4073130000000 1.0
C      1  0.4989970000000  0.4849040000000  0.5428780000000 1.0
C      1  0.5256170000000  0.5757030000000  0.5683980000000 1.0
C      1  0.4910330000000  0.3746880000000  0.4799980000000 1.0
C      1  0.4584860000000  0.4470470000000  0.5112830000000 1.0
C      1  0.4533690000000  0.4993380000000  0.5124640000000 1.0
C      1  0.5673330000000  0.5473320000000  0.5796920000000 1.0
C      1  0.4139950000000  0.5065000000000  0.5496940000000 1.0
C      1  0.4382140000000  0.5575700000000  0.4508610000000 1.0
C      1  0.5112080000000  0.4586600000000  0.5995540000000 1.0
C      1  0.4336110000000  0.4461170000000  0.4141480000000 1.0
C      1  0.4372030000000  0.4654770000000  0.5687610000000 1.0
C      1  0.4455850000000  0.4714220000000  0.5160800000000 1.0
C      1  0.4659320000000  0.4198250000000  0.4379340000000 1.0
C      1  0.5823590000000  0.5615340000000  0.5222590000000 1.0
C      1  0.5527120000000  0.4941360000000  0.5176630000000 1.0
C      1  0.4943320000000  0.4904580000000  0.5168020000000 1.0
C      1  0.5317380000000  0.5494270000000  0.4791660000000 1.0
C      1  0.5021590000000  0.4907730000000  0.4157200000000 1.0
C      1  0.5417020000000  0.4231950000000  0.5748490000000 1.0
C      1  0.5599610000000  0.4371600000000  0.5560290000000 1.0
C      1  0.5357950000000  0.4817060000000  0.4986720000000 1.0
C      1  0.4449660000000  0.5753440000000  0.4739670000000 1.0
C      1  0.5378340000000  0.6155440000000  0.4762940000000 1.0
C      1  0.4902510000000  0.4569230000000  0.5788640000000 1.0
C      1  0.4175780000000  0.4706100000000  0.5223080000000 1.0
C      1  0.4813770000000  0.5808130000000  0.4419020000000 1.0
C      1  0.4993270000000  0.4278990000000  0.4945050000000 1.0
C      1  0.4007540000000  0.5140680000000  0.5236050000000 1.0
C      1  0.4552750000000  0.4973170000000  0.4178890000000 1.0
C      1  0.4688470000000  0.5205400000000  0.4279130000000 1.0
C      1  0.4650540000000  0.5456470000000  0.5910760000000 1.0
C      1  0.5106830000000  0.4923400000000  0.4963450000000 1.0
C      1  0.4265280000000  0.5739820000000  0.4953070000000 1.0
C      1  0.3944040000000  0.5589020000000  0.5434370000000 1.0
C      1  0.5295430000000  0.4099930000000  0.4344400000000 1.0
C      1  0.4718850000000  0.4622450000000  0.4596670000000 1.0
C      1  0.5072350000000  0.4198600000000  0.5209850000000 1.0
C      1  0.5589920000000  0.5458580000000  0.5187140000000 1.0
C      1  0.5070260000000  0.5788940000000  0.4267420000000 1.0
C      1  0.6201690000000  0.5427070000000  0.4624150000000 1.0
C      1  0.5518600000000  0.5087180000000  0.4271600000000 1.0
C      1  0.6085000000000  0.5577910000000  0.5276200000000 1.0
C      1  0.5751840000000  0.4651810000000  0.4517360000000 1.0
C      1  0.5326360000000  0.5575110000000  0.5233900000000 1.0
C      1  0.5940050000000  0.5392440000000  0.4674370000000 1.0
C      1  0.5248200000000  0.4032740000000  0.5632740000000 1.0
C      1  0.4823380000000  0.4515170000000  0.4053730000000 1.0
C      1  0.5306500000000  0.5800200000000  0.5407120000000 1.0
C      1  0.5072140000000  0.3971910000000  0.4219920000000 1.0
C      1  0.4154210000000  0.4590740000000  0.4601050000000 1.0
C      1  0.5873690000000  0.4645860000000  0.5108910000000 1.0
C      1  0.5485680000000  0.4824110000000  0.4152570000000 1.0
C      1  0.4842350000000  0.5521530000000  0.3931330000000 1.0
C      1  0.5580400000000  0.4644150000000  0.5927520000000 1.0
C      1  0.4038890000000  0.4905380000000  0.5041020000000 1.0
C      1  0.6014310000000  0.5117100000000  0.5379590000000 1.0
C      1  0.3970970000000  0.5454240000000  0.4719840000000 1.0
C      1  0.5035850000000  0.5699440000000  0.3997700000000 1.0
C      1  0.5156430000000  0.4466100000000  0.4775420000000 1.0
C      1  0.5871870000000  0.5098470000000  0.4882450000000 1.0
C      1  0.4711640000000  0.4306490000000  0.4917180000000 1.0
C      1  0.5551290000000  0.5099140000000  0.5589210000000 1.0
C      1  0.5410080000000  0.4556710000000  0.4889130000000 1.0
C      1  0.5169030000000  0.5419350000000  0.6016570000000 1.0
C      1  0.4873740000000  0.5172800000000  0.4506730000000 1.0
C      1  0.5351460000000  0.6160020000000  0.5029730000000 1.0
C      1  0.5347410000000  0.5812060000000  0.4352820000000 1.0
C      1  0.5353740000000  0.4365080000000  0.4245540000000 1.0
C      1  0.4819590000000  0.3978210000000  0.4315320000000 1.0
C      1  0.4641950000000  0.3760850000000  0.4824260000000 1.0
C      1  0.5023710000000  0.4582330000000  0.5517660000000 1.0
C      1  0.4546080000000  0.5216880000000  0.5309400000000 1.0
C      1  0.4937330000000  0.5060340000000  0.5853620000000 1.0
C      1  0.4712460000000  0.5426440000000  0.5219140000000 1.0
C      1  0.4630560000000  0.4706810000000  0.5806280000000 1.0
C      1  0.5291260000000  0.5191200000000  0.5571210000000 1.0
C      1  0.5233760000000  0.4766550000000  0.4036260000000 1.0
C      1  0.5052420000000  0.5057580000000  0.5600050000000 1.0
C      1  0.5144060000000  0.5528100000000  0.5012320000000 1.0
C      1  0.4233110000000  0.4084770000000  0.4778660000000 1.0
C      1  0.4792790000000  0.5251160000000  0.4774100000000 1.0
END
