TITL C-599892-9790-379 2.03063427250555 125000 -915.155490856089 0 0 149 (C1) n - 1
REM
REM in /home/nfs/bkarasulu/CARBON/AIRSS/Generating-Clusters/TERSOFF/Only-C1/FIRE-HFTN
REM
REM
REM
REM
REM
REM ./C.cell (11c1c37f851c82e70ff6c80c92926a4b)
REM AIRSS Version 0.9.1 bugfix July 2018 build 013d7b7c2542+ Fri, 06 Jul 2018 19:26:36 +0100
REM compiler GCC version 9.2.1 20190827 (Red Hat 9.2.1-1)
REM options -cpp -mtune=generic -march=x86-64 -g -O0 -fpre-include=/usr/include/finclude/math-vector-fortran.h
REM seed -511531248 -118911803 842693704 1600494654 -1925472548 -1046898518 -465459246 835794057 -1836787446 1534104834 574160662 108763791 -21067551 -1918488772 -214097566 -1456999422 1955565574 889406041 -1404825740 -521297770 -991497821 812742810 2147302083 -862843770 473894967 -1095302346 1403883563 -1554098223 1484198112 1343763212 620397370 -582584734 439602519
REM
CELL 1.54180   50.00000   50.00000   50.00000   90.00000   90.00000   90.00000
LATT -1
SFAC C  
C      1  0.5494010000000  0.5962080000000  0.4440670000000 1.0
C      1  0.5926400000000  0.5308880000000  0.5158810000000 1.0
C      1  0.6062370000000  0.4500040000000  0.5036890000000 1.0
C      1  0.4197260000000  0.5362120000000  0.4417200000000 1.0
C      1  0.5169310000000  0.5602110000000  0.4475400000000 1.0
C      1  0.5190420000000  0.5134620000000  0.5713950000000 1.0
C      1  0.6224320000000  0.5610970000000  0.4546470000000 1.0
C      1  0.5155850000000  0.4045090000000  0.5710310000000 1.0
C      1  0.4180360000000  0.4693750000000  0.5618640000000 1.0
C      1  0.4299920000000  0.4643490000000  0.4372190000000 1.0
C      1  0.4226420000000  0.5967220000000  0.4634620000000 1.0
C      1  0.5417270000000  0.4274110000000  0.5326080000000 1.0
C      1  0.4455480000000  0.4638370000000  0.5078610000000 1.0
C      1  0.4392130000000  0.4877550000000  0.5686030000000 1.0
C      1  0.5921600000000  0.5040270000000  0.5793160000000 1.0
C      1  0.5704540000000  0.4295880000000  0.5281240000000 1.0
C      1  0.4806160000000  0.5192610000000  0.5407100000000 1.0
C      1  0.4992450000000  0.5165280000000  0.5907730000000 1.0
C      1  0.5212230000000  0.4672690000000  0.5934890000000 1.0
C      1  0.6472270000000  0.5690930000000  0.4541130000000 1.0
C      1  0.5462480000000  0.5299300000000  0.4947160000000 1.0
C      1  0.4551350000000  0.4295700000000  0.5540710000000 1.0
C      1  0.4648200000000  0.4241870000000  0.4108640000000 1.0
C      1  0.5227740000000  0.5017420000000  0.5250260000000 1.0
C      1  0.4621670000000  0.5850590000000  0.5477400000000 1.0
C      1  0.4592980000000  0.4831540000000  0.5231990000000 1.0
C      1  0.4334890000000  0.5884990000000  0.4874830000000 1.0
C      1  0.5803490000000  0.4354490000000  0.4536160000000 1.0
C      1  0.5155430000000  0.4835360000000  0.6184090000000 1.0
C      1  0.5649700000000  0.5919760000000  0.4688600000000 1.0
C      1  0.4945920000000  0.6116510000000  0.4891500000000 1.0
C      1  0.5447580000000  0.5193250000000  0.5804160000000 1.0
C      1  0.4951580000000  0.4609430000000  0.4065600000000 1.0
C      1  0.4894470000000  0.4017410000000  0.5770420000000 1.0
C      1  0.4052760000000  0.5261120000000  0.5143730000000 1.0
C      1  0.4980640000000  0.5378650000000  0.6302300000000 1.0
C      1  0.5079430000000  0.5122390000000  0.5455580000000 1.0
C      1  0.4084490000000  0.6093580000000  0.4140820000000 1.0
C      1  0.4639730000000  0.4102410000000  0.5728280000000 1.0
C      1  0.5862360000000  0.5293930000000  0.4398860000000 1.0
C      1  0.4577010000000  0.5520850000000  0.4163340000000 1.0
C      1  0.4902410000000  0.5639080000000  0.6214200000000 1.0
C      1  0.4952900000000  0.5471050000000  0.4591160000000 1.0
C      1  0.5892140000000  0.4524590000000  0.4342170000000 1.0
C      1  0.5018520000000  0.5608940000000  0.5776470000000 1.0
C      1  0.5568960000000  0.5378980000000  0.4011710000000 1.0
C      1  0.5580290000000  0.4344620000000  0.5738090000000 1.0
C      1  0.5818880000000  0.4350360000000  0.5028520000000 1.0
C      1  0.5530010000000  0.5465500000000  0.4736560000000 1.0
C      1  0.4246600000000  0.4494080000000  0.5212470000000 1.0
C      1  0.4844090000000  0.5378870000000  0.5808080000000 1.0
C      1  0.4287710000000  0.4742840000000  0.4639140000000 1.0
C      1  0.4022110000000  0.6134040000000  0.3890960000000 1.0
C      1  0.5212240000000  0.4720840000000  0.6428580000000 1.0
C      1  0.5951930000000  0.5332790000000  0.5437820000000 1.0
C      1  0.4185530000000  0.4388170000000  0.4334840000000 1.0
C      1  0.3902060000000  0.4662110000000  0.4923010000000 1.0
C      1  0.5377250000000  0.4178490000000  0.5601730000000 1.0
C      1  0.4140880000000  0.3504340000000  0.4789820000000 1.0
C      1  0.4705380000000  0.6159770000000  0.5007110000000 1.0
C      1  0.6153890000000  0.5229400000000  0.5012220000000 1.0
C      1  0.4879790000000  0.5792030000000  0.5953510000000 1.0
C      1  0.4447870000000  0.6057430000000  0.5077280000000 1.0
C      1  0.5027860000000  0.4620030000000  0.5717810000000 1.0
C      1  0.4469670000000  0.5352470000000  0.4362270000000 1.0
C      1  0.5214700000000  0.4191560000000  0.4596830000000 1.0
C      1  0.4691160000000  0.5275690000000  0.4960810000000 1.0
C      1  0.4647670000000  0.5293080000000  0.5628170000000 1.0
C      1  0.4155500000000  0.5530070000000  0.5161740000000 1.0
C      1  0.5041850000000  0.5111400000000  0.6179870000000 1.0
C      1  0.3963120000000  0.3060070000000  0.5007630000000 1.0
C      1  0.6110490000000  0.4817030000000  0.5409120000000 1.0
C      1  0.4699990000000  0.4941310000000  0.4267870000000 1.0
C      1  0.5456900000000  0.6023750000000  0.4889950000000 1.0
C      1  0.3894740000000  0.4220700000000  0.4666060000000 1.0
C      1  0.4688860000000  0.5907180000000  0.5759420000000 1.0
C      1  0.4382700000000  0.5945720000000  0.5345520000000 1.0
C      1  0.4942600000000  0.4895940000000  0.4108810000000 1.0
C      1  0.4647860000000  0.5145200000000  0.4457680000000 1.0
C      1  0.4602150000000  0.4788660000000  0.5513270000000 1.0
C      1  0.6061630000000  0.5078870000000  0.5548560000000 1.0
C      1  0.5936580000000  0.5014610000000  0.4442050000000 1.0
C      1  0.5023000000000  0.4724930000000  0.4812640000000 1.0
C      1  0.4124390000000  0.4174060000000  0.4508570000000 1.0
C      1  0.5014490000000  0.4525090000000  0.5442830000000 1.0
C      1  0.4062230000000  0.4857570000000  0.4779760000000 1.0
C      1  0.5216660000000  0.5884230000000  0.4508620000000 1.0
C      1  0.3976160000000  0.5089920000000  0.5361550000000 1.0
C      1  0.4775660000000  0.4119850000000  0.4334790000000 1.0
C      1  0.5545100000000  0.4794330000000  0.5604760000000 1.0
C      1  0.4592500000000  0.4003780000000  0.4513310000000 1.0
C      1  0.5469090000000  0.4598660000000  0.5809300000000 1.0
C      1  0.6016830000000  0.4578340000000  0.5551710000000 1.0
C      1  0.5815110000000  0.4375260000000  0.5547240000000 1.0
C      1  0.5961650000000  0.5521470000000  0.4556310000000 1.0
C      1  0.3986510000000  0.4809600000000  0.5421640000000 1.0
C      1  0.5527880000000  0.4817750000000  0.4355090000000 1.0
C      1  0.5057150000000  0.5679870000000  0.5314100000000 1.0
C      1  0.4772420000000  0.5507160000000  0.3981480000000 1.0
C      1  0.5491270000000  0.5611570000000  0.5561860000000 1.0
C      1  0.4159400000000  0.5752350000000  0.5352560000000 1.0
C      1  0.6153100000000  0.4758810000000  0.5124330000000 1.0
C      1  0.5692210000000  0.4830110000000  0.4820210000000 1.0
C      1  0.4629050000000  0.5541090000000  0.5049950000000 1.0
C      1  0.4777390000000  0.4381530000000  0.5381310000000 1.0
C      1  0.4051270000000  0.3280360000000  0.4899630000000 1.0
C      1  0.5746830000000  0.5509660000000  0.5549120000000 1.0
C      1  0.4361880000000  0.5617400000000  0.4971910000000 1.0
C      1  0.5751460000000  0.5650880000000  0.4710590000000 1.0
C      1  0.4771910000000  0.4624950000000  0.4729770000000 1.0
C      1  0.6149000000000  0.4962510000000  0.4919870000000 1.0
C      1  0.5230250000000  0.5137680000000  0.4988660000000 1.0
C      1  0.5366410000000  0.4342370000000  0.4783980000000 1.0
C      1  0.5182270000000  0.6012710000000  0.4777450000000 1.0
C      1  0.4150890000000  0.6043480000000  0.4392470000000 1.0
C      1  0.5202970000000  0.5645770000000  0.5558020000000 1.0
C      1  0.5524990000000  0.6120300000000  0.5135220000000 1.0
C      1  0.5210050000000  0.4536240000000  0.4941910000000 1.0
C      1  0.5807440000000  0.4793600000000  0.4290690000000 1.0
C      1  0.5123860000000  0.4417980000000  0.4181220000000 1.0
C      1  0.5064860000000  0.5075860000000  0.3928430000000 1.0
C      1  0.5648290000000  0.5013490000000  0.5753900000000 1.0
C      1  0.5265670000000  0.4990600000000  0.3763160000000 1.0
C      1  0.4061350000000  0.5119530000000  0.4893080000000 1.0
C      1  0.5484710000000  0.4819430000000  0.4624110000000 1.0
C      1  0.4302410000000  0.4438620000000  0.5496750000000 1.0
C      1  0.4418840000000  0.5155100000000  0.5725850000000 1.0
C      1  0.3796200000000  0.4436480000000  0.4792780000000 1.0
C      1  0.5438020000000  0.4798290000000  0.5305840000000 1.0
C      1  0.4316220000000  0.3969460000000  0.4567970000000 1.0
C      1  0.3939100000000  0.5394860000000  0.4399590000000 1.0
C      1  0.4829620000000  0.5215820000000  0.4696190000000 1.0
C      1  0.5661170000000  0.4328150000000  0.4784520000000 1.0
C      1  0.5408460000000  0.5443860000000  0.4475950000000 1.0
C      1  0.4687260000000  0.5088430000000  0.5171080000000 1.0
C      1  0.5680220000000  0.5188480000000  0.5090820000000 1.0
C      1  0.4519570000000  0.4718480000000  0.4212090000000 1.0
C      1  0.4773580000000  0.5686940000000  0.5273020000000 1.0
C      1  0.5953050000000  0.4921490000000  0.4716380000000 1.0
C      1  0.5262170000000  0.4530890000000  0.5248310000000 1.0
C      1  0.3988090000000  0.4628960000000  0.5190010000000 1.0
C      1  0.4229330000000  0.3728750000000  0.4680400000000 1.0
C      1  0.4502720000000  0.4649360000000  0.4803600000000 1.0
C      1  0.4672090000000  0.4518420000000  0.4066510000000 1.0
C      1  0.5647110000000  0.4894540000000  0.5097570000000 1.0
C      1  0.5600540000000  0.5355490000000  0.4281460000000 1.0
C      1  0.5047820000000  0.4214890000000  0.4371750000000 1.0
C      1  0.5049350000000  0.5017420000000  0.4797930000000 1.0
C      1  0.4959330000000  0.5334400000000  0.3902130000000 1.0
END
