TITL C-599891-72-1303 -21.1260030888901 125000 -1158.90990862244 0 0 189 (C1) n - 1
REM
REM in /home/nfs/bkarasulu/CARBON/AIRSS/Generating-Clusters/TERSOFF/Only-C1/FIRE-HFTN
REM
REM
REM
REM
REM
REM ./C.cell (11c1c37f851c82e70ff6c80c92926a4b)
REM AIRSS Version 0.9.1 bugfix July 2018 build 013d7b7c2542+ Fri, 06 Jul 2018 19:26:36 +0100
REM compiler GCC version 9.2.1 20190827 (Red Hat 9.2.1-1)
REM options -cpp -mtune=generic -march=x86-64 -g -O0 -fpre-include=/usr/include/finclude/math-vector-fortran.h
REM seed 966911942 245856700 24608313 1115433592 1665818131 606548714 -103402458 652140745 -835283832 -1651048785 -422202330 1681122795 17897462 16702123 2067094341 1818297508 -969852979 -599719266 292559042 1556599857 -1681421218 1343772239 9803232 191287573 -1712845675 -1205543837 -1342069017 -1947681555 -2097449902 615230032 -558335322 1388822687 -748089195
REM
CELL 1.54180   50.00000   50.00000   50.00000   90.00000   90.00000   90.00000
LATT -1
SFAC C  
C      1  0.5049800000000  0.5352250000000  0.5800230000000 1.0
C      1  0.4369430000000  0.5215230000000  0.5593530000000 1.0
C      1  0.6051110000000  0.4511670000000  0.4512390000000 1.0
C      1  0.5648630000000  0.4732500000000  0.4318830000000 1.0
C      1  0.6064990000000  0.4328620000000  0.4706020000000 1.0
C      1  0.4449950000000  0.3937830000000  0.4466370000000 1.0
C      1  0.4700900000000  0.5055460000000  0.5894240000000 1.0
C      1  0.6005800000000  0.5021470000000  0.4460740000000 1.0
C      1  0.6048430000000  0.4875870000000  0.5458510000000 1.0
C      1  0.5034430000000  0.5394910000000  0.3801770000000 1.0
C      1  0.4752820000000  0.5486770000000  0.5406490000000 1.0
C      1  0.5492810000000  0.4510870000000  0.5856290000000 1.0
C      1  0.4323500000000  0.5135810000000  0.5158370000000 1.0
C      1  0.6066090000000  0.4491520000000  0.5167950000000 1.0
C      1  0.5921040000000  0.4741090000000  0.4422910000000 1.0
C      1  0.4779550000000  0.3527490000000  0.4930250000000 1.0
C      1  0.5269140000000  0.4971580000000  0.6290820000000 1.0
C      1  0.4503600000000  0.6403490000000  0.4422240000000 1.0
C      1  0.4662200000000  0.5501350000000  0.6040290000000 1.0
C      1  0.5008020000000  0.6088830000000  0.5604420000000 1.0
C      1  0.5493040000000  0.4484960000000  0.4315850000000 1.0
C      1  0.6161060000000  0.5541470000000  0.4972920000000 1.0
C      1  0.5080730000000  0.4779660000000  0.6293020000000 1.0
C      1  0.6027080000000  0.5380790000000  0.5167580000000 1.0
C      1  0.5543010000000  0.5567590000000  0.4061410000000 1.0
C      1  0.5540090000000  0.4928160000000  0.5406450000000 1.0
C      1  0.5359940000000  0.4836980000000  0.4691220000000 1.0
C      1  0.5090820000000  0.5443220000000  0.5075480000000 1.0
C      1  0.4911280000000  0.5029630000000  0.5104590000000 1.0
C      1  0.5467790000000  0.5052590000000  0.4812830000000 1.0
C      1  0.5132060000000  0.5344900000000  0.4364820000000 1.0
C      1  0.4867770000000  0.4671710000000  0.5537870000000 1.0
C      1  0.5448720000000  0.4396450000000  0.4053080000000 1.0
C      1  0.5036570000000  0.3489810000000  0.4874770000000 1.0
C      1  0.5936020000000  0.4624540000000  0.5605940000000 1.0
C      1  0.5193670000000  0.4664110000000  0.5227740000000 1.0
C      1  0.5856610000000  0.5203660000000  0.5035640000000 1.0
C      1  0.5014510000000  0.4100140000000  0.4730690000000 1.0
C      1  0.5281510000000  0.6245180000000  0.4473980000000 1.0
C      1  0.5240320000000  0.5515540000000  0.5282930000000 1.0
C      1  0.5092250000000  0.3946030000000  0.5584870000000 1.0
C      1  0.5141380000000  0.4183460000000  0.5400050000000 1.0
C      1  0.5110910000000  0.4930740000000  0.4157190000000 1.0
C      1  0.4928650000000  0.5102190000000  0.5687630000000 1.0
C      1  0.4517260000000  0.5474510000000  0.5590580000000 1.0
C      1  0.4214510000000  0.4930320000000  0.5005060000000 1.0
C      1  0.4957850000000  0.5249270000000  0.4880010000000 1.0
C      1  0.5784050000000  0.4120760000000  0.5082480000000 1.0
C      1  0.5361650000000  0.6004790000000  0.5240400000000 1.0
C      1  0.5466910000000  0.4718740000000  0.5238880000000 1.0
C      1  0.5330510000000  0.5531960000000  0.4732110000000 1.0
C      1  0.5779640000000  0.4564980000000  0.5839320000000 1.0
C      1  0.5610040000000  0.5470130000000  0.4711350000000 1.0
C      1  0.4904110000000  0.4369740000000  0.5531930000000 1.0
C      1  0.5185580000000  0.5596480000000  0.6154500000000 1.0
C      1  0.4484170000000  0.4335920000000  0.4199140000000 1.0
C      1  0.5505510000000  0.5937740000000  0.4679090000000 1.0
C      1  0.4855910000000  0.6086910000000  0.4650650000000 1.0
C      1  0.4418980000000  0.5388950000000  0.4295920000000 1.0
C      1  0.4609000000000  0.4276350000000  0.5449720000000 1.0
C      1  0.4538060000000  0.4504440000000  0.5233020000000 1.0
C      1  0.4678960000000  0.6250450000000  0.4539560000000 1.0
C      1  0.4593730000000  0.5396380000000  0.4522730000000 1.0
C      1  0.5774700000000  0.5074480000000  0.5793250000000 1.0
C      1  0.5295040000000  0.3550300000000  0.4866760000000 1.0
C      1  0.4476320000000  0.4523040000000  0.4947220000000 1.0
C      1  0.4782130000000  0.4416860000000  0.6028030000000 1.0
C      1  0.3798930000000  0.5199860000000  0.4682380000000 1.0
C      1  0.5168320000000  0.4095330000000  0.5836510000000 1.0
C      1  0.5027060000000  0.5591380000000  0.4272230000000 1.0
C      1  0.4473650000000  0.4213260000000  0.4463960000000 1.0
C      1  0.3976530000000  0.4907030000000  0.5574530000000 1.0
C      1  0.4689160000000  0.5205330000000  0.4714880000000 1.0
C      1  0.5544450000000  0.4928210000000  0.5693110000000 1.0
C      1  0.4781070000000  0.6084580000000  0.5749080000000 1.0
C      1  0.4180410000000  0.4550510000000  0.3859620000000 1.0
C      1  0.4869540000000  0.5195880000000  0.5383650000000 1.0
C      1  0.3860690000000  0.4864200000000  0.5312270000000 1.0
C      1  0.5996470000000  0.4289870000000  0.4973020000000 1.0
C      1  0.5010080000000  0.4725360000000  0.3717650000000 1.0
C      1  0.3797150000000  0.4934300000000  0.4790410000000 1.0
C      1  0.3957220000000  0.5306860000000  0.4489090000000 1.0
C      1  0.5334370000000  0.4753830000000  0.5788560000000 1.0
C      1  0.4612390000000  0.4762260000000  0.5393200000000 1.0
C      1  0.4258650000000  0.4356000000000  0.4028850000000 1.0
C      1  0.4948260000000  0.4289020000000  0.5844260000000 1.0
C      1  0.4983800000000  0.5893900000000  0.4812450000000 1.0
C      1  0.5516000000000  0.3693980000000  0.4898360000000 1.0
C      1  0.4804350000000  0.5791710000000  0.5012460000000 1.0
C      1  0.4875780000000  0.5746860000000  0.5288850000000 1.0
C      1  0.4001470000000  0.4075270000000  0.5293460000000 1.0
C      1  0.5529830000000  0.5196690000000  0.5346400000000 1.0
C      1  0.4855580000000  0.4541410000000  0.3880340000000 1.0
C      1  0.5414650000000  0.5182890000000  0.6207210000000 1.0
C      1  0.5297520000000  0.6308310000000  0.4751230000000 1.0
C      1  0.4907300000000  0.5650400000000  0.3823270000000 1.0
C      1  0.6167800000000  0.5096230000000  0.4694780000000 1.0
C      1  0.4412380000000  0.4790410000000  0.4870290000000 1.0
C      1  0.5044560000000  0.5859310000000  0.4244750000000 1.0
C      1  0.4325150000000  0.5157430000000  0.6191320000000 1.0
C      1  0.4081720000000  0.5174660000000  0.5628260000000 1.0
C      1  0.4544100000000  0.5725650000000  0.4935740000000 1.0
C      1  0.5666040000000  0.5235370000000  0.4843730000000 1.0
C      1  0.4827910000000  0.5191710000000  0.3744600000000 1.0
C      1  0.5804630000000  0.5172250000000  0.4293820000000 1.0
C      1  0.5657520000000  0.5855130000000  0.4453890000000 1.0
C      1  0.4621140000000  0.3977290000000  0.5396730000000 1.0
C      1  0.4559720000000  0.5219170000000  0.3852570000000 1.0
C      1  0.4943570000000  0.5514920000000  0.6022760000000 1.0
C      1  0.4516130000000  0.5441280000000  0.4030910000000 1.0
C      1  0.4417290000000  0.4350940000000  0.5686010000000 1.0
C      1  0.5406260000000  0.5425580000000  0.6055000000000 1.0
C      1  0.4902600000000  0.4594870000000  0.6212530000000 1.0
C      1  0.5751740000000  0.5592220000000  0.4496020000000 1.0
C      1  0.4184550000000  0.5225800000000  0.4339530000000 1.0
C      1  0.6241410000000  0.5373500000000  0.4751130000000 1.0
C      1  0.4235200000000  0.4939020000000  0.4335670000000 1.0
C      1  0.4287940000000  0.5629380000000  0.4968090000000 1.0
C      1  0.5095290000000  0.5934260000000  0.5381190000000 1.0
C      1  0.5433410000000  0.4230990000000  0.5463220000000 1.0
C      1  0.3851360000000  0.5715770000000  0.5137090000000 1.0
C      1  0.5413110000000  0.4253360000000  0.5762620000000 1.0
C      1  0.5604190000000  0.4609160000000  0.5019210000000 1.0
C      1  0.4230110000000  0.4800030000000  0.3775800000000 1.0
C      1  0.5692870000000  0.4231240000000  0.5340250000000 1.0
C      1  0.4019190000000  0.4762270000000  0.4385960000000 1.0
C      1  0.6193630000000  0.4914610000000  0.4927410000000 1.0
C      1  0.3967620000000  0.5488510000000  0.5271850000000 1.0
C      1  0.4216520000000  0.5400030000000  0.5132670000000 1.0
C      1  0.3607790000000  0.5826990000000  0.5175940000000 1.0
C      1  0.5774050000000  0.5657150000000  0.5465970000000 1.0
C      1  0.5565210000000  0.5007900000000  0.4255410000000 1.0
C      1  0.4557390000000  0.4946170000000  0.4685210000000 1.0
C      1  0.4480960000000  0.4341210000000  0.4723700000000 1.0
C      1  0.5863850000000  0.5095170000000  0.6050790000000 1.0
C      1  0.5296240000000  0.5154430000000  0.4190420000000 1.0
C      1  0.4135650000000  0.4971810000000  0.6152330000000 1.0
C      1  0.5438800000000  0.4543120000000  0.3826440000000 1.0
C      1  0.5679650000000  0.3891080000000  0.4967120000000 1.0
C      1  0.4057280000000  0.4690260000000  0.5742100000000 1.0
C      1  0.4183660000000  0.3906110000000  0.5197040000000 1.0
C      1  0.4836220000000  0.3837620000000  0.5528010000000 1.0
C      1  0.5960400000000  0.5141850000000  0.5577400000000 1.0
C      1  0.5297320000000  0.4768930000000  0.3733820000000 1.0
C      1  0.5120010000000  0.4349150000000  0.4700770000000 1.0
C      1  0.4566510000000  0.5233580000000  0.6073960000000 1.0
C      1  0.4506080000000  0.4406060000000  0.5958430000000 1.0
C      1  0.4877840000000  0.4949740000000  0.3613550000000 1.0
C      1  0.4054140000000  0.5795570000000  0.4949220000000 1.0
C      1  0.3935430000000  0.4889610000000  0.5037240000000 1.0
C      1  0.5336370000000  0.6212140000000  0.5014540000000 1.0
C      1  0.4577780000000  0.5919190000000  0.5808010000000 1.0
C      1  0.3986610000000  0.4282820000000  0.5460310000000 1.0
C      1  0.5752160000000  0.5444930000000  0.4249350000000 1.0
C      1  0.5386980000000  0.4401240000000  0.4577510000000 1.0
C      1  0.4455730000000  0.3842910000000  0.5208210000000 1.0
C      1  0.5395290000000  0.5050670000000  0.3736410000000 1.0
C      1  0.5645820000000  0.5871410000000  0.5287680000000 1.0
C      1  0.5331130000000  0.5311560000000  0.3923500000000 1.0
C      1  0.4572690000000  0.3653250000000  0.5039570000000 1.0
C      1  0.5396130000000  0.5401020000000  0.5485260000000 1.0
C      1  0.5331560000000  0.5398180000000  0.5763560000000 1.0
C      1  0.5141880000000  0.5332370000000  0.4644790000000 1.0
C      1  0.5854690000000  0.5932750000000  0.5090720000000 1.0
C      1  0.3923740000000  0.5387020000000  0.5529060000000 1.0
C      1  0.6069020000000  0.5810070000000  0.4975690000000 1.0
C      1  0.4360030000000  0.5033410000000  0.3784460000000 1.0
C      1  0.4994270000000  0.4602290000000  0.4800860000000 1.0
C      1  0.6131000000000  0.4779430000000  0.5176190000000 1.0
C      1  0.4694110000000  0.4514480000000  0.4118260000000 1.0
C      1  0.5258400000000  0.5804960000000  0.4761990000000 1.0
C      1  0.5910920000000  0.4418830000000  0.5407390000000 1.0
C      1  0.5948790000000  0.5412090000000  0.5441660000000 1.0
C      1  0.5092240000000  0.4792660000000  0.4605810000000 1.0
C      1  0.4968350000000  0.4814380000000  0.4359800000000 1.0
C      1  0.4710780000000  0.4734670000000  0.4293100000000 1.0
C      1  0.4463560000000  0.5025720000000  0.5390890000000 1.0
C      1  0.4306070000000  0.4525930000000  0.6117160000000 1.0
C      1  0.5507320000000  0.5856990000000  0.4196270000000 1.0
C      1  0.4659520000000  0.5672010000000  0.3941580000000 1.0
C      1  0.4128450000000  0.4725110000000  0.6019410000000 1.0
C      1  0.4990630000000  0.4749850000000  0.5054380000000 1.0
C      1  0.4498810000000  0.4866910000000  0.4416350000000 1.0
C      1  0.5272520000000  0.6029200000000  0.4263210000000 1.0
C      1  0.4146680000000  0.4441930000000  0.5625260000000 1.0
C      1  0.5063990000000  0.4827580000000  0.5686920000000 1.0
C      1  0.3835970000000  0.4740270000000  0.4584700000000 1.0
C      1  0.5500710000000  0.4595950000000  0.4761570000000 1.0
C      1  0.4534830000000  0.5641970000000  0.5824110000000 1.0
END
