TITL C-599894-471-1364 0.529155345972818 125000 -495.439642044228 0 0 82 (C1) n - 1
REM
REM in /home/nfs/bkarasulu/CARBON/AIRSS/Generating-Clusters/TERSOFF/Only-C1/FIRE-HFTN
REM
REM
REM
REM
REM
REM ./C.cell (11c1c37f851c82e70ff6c80c92926a4b)
REM AIRSS Version 0.9.1 bugfix July 2018 build 013d7b7c2542+ Fri, 06 Jul 2018 19:26:36 +0100
REM compiler GCC version 9.2.1 20190827 (Red Hat 9.2.1-1)
REM options -cpp -mtune=generic -march=x86-64 -g -O0 -fpre-include=/usr/include/finclude/math-vector-fortran.h
REM seed 187034503 1426084221 1301955581 699117506 1539244052 -368161348 936471754 -369357206 832671001 -1264589927 -216994168 1224587446 1889131177 114914063 1117649947 1435565465 -1674503437 1582552939 -384825095 1627520532 1389205258 -928161288 586926373 2033912492 2144456870 -247054630 1565900775 -326381790 1300377123 -2016443912 825494462 -187626582 -246549291
REM
CELL 1.54180   50.00000   50.00000   50.00000   90.00000   90.00000   90.00000
LATT -1
SFAC C  
C      1  0.5614370000000  0.4854720000000  0.5223840000000 1.0
C      1  0.4275570000000  0.4820890000000  0.4422670000000 1.0
C      1  0.5203130000000  0.4148820000000  0.5311010000000 1.0
C      1  0.4401160000000  0.4676040000000  0.5100430000000 1.0
C      1  0.4755330000000  0.4858580000000  0.4340150000000 1.0
C      1  0.5716670000000  0.5290900000000  0.4634440000000 1.0
C      1  0.5070030000000  0.5163350000000  0.5138420000000 1.0
C      1  0.4500230000000  0.5100730000000  0.5587080000000 1.0
C      1  0.5107920000000  0.4486250000000  0.4344770000000 1.0
C      1  0.4359630000000  0.4459320000000  0.5524830000000 1.0
C      1  0.5225860000000  0.4176140000000  0.4779800000000 1.0
C      1  0.5508730000000  0.5555080000000  0.5008280000000 1.0
C      1  0.5202750000000  0.4670540000000  0.5027070000000 1.0
C      1  0.5493120000000  0.5189710000000  0.4489080000000 1.0
C      1  0.5414660000000  0.4811460000000  0.5676040000000 1.0
C      1  0.5312390000000  0.4952140000000  0.5904490000000 1.0
C      1  0.5318550000000  0.4327290000000  0.5498860000000 1.0
C      1  0.5471790000000  0.5100520000000  0.4222360000000 1.0
C      1  0.4928460000000  0.5305700000000  0.5578170000000 1.0
C      1  0.4712400000000  0.5776670000000  0.5380700000000 1.0
C      1  0.4479230000000  0.5892330000000  0.5475490000000 1.0
C      1  0.4309610000000  0.4915110000000  0.5677760000000 1.0
C      1  0.4256380000000  0.5993600000000  0.5564890000000 1.0
C      1  0.5147170000000  0.4393640000000  0.4621980000000 1.0
C      1  0.4747610000000  0.5136360000000  0.5741480000000 1.0
C      1  0.5327970000000  0.4835400000000  0.3833420000000 1.0
C      1  0.4802840000000  0.4910500000000  0.5911370000000 1.0
C      1  0.4519130000000  0.4987890000000  0.4438440000000 1.0
C      1  0.4465200000000  0.5245440000000  0.4600590000000 1.0
C      1  0.5664470000000  0.5542310000000  0.4766980000000 1.0
C      1  0.5069940000000  0.4829260000000  0.5988890000000 1.0
C      1  0.5305990000000  0.4536150000000  0.5687170000000 1.0
C      1  0.5102770000000  0.4541090000000  0.5897170000000 1.0
C      1  0.5712060000000  0.5075300000000  0.5065000000000 1.0
C      1  0.4408330000000  0.4435130000000  0.5246430000000 1.0
C      1  0.5043870000000  0.4861540000000  0.5157970000000 1.0
C      1  0.4645180000000  0.4655910000000  0.5876230000000 1.0
C      1  0.4952650000000  0.4036450000000  0.5374270000000 1.0
C      1  0.5064630000000  0.5980300000000  0.4728510000000 1.0
C      1  0.4977420000000  0.5287830000000  0.4400530000000 1.0
C      1  0.5555400000000  0.5312510000000  0.5155530000000 1.0
C      1  0.4330530000000  0.4553150000000  0.4357050000000 1.0
C      1  0.4774110000000  0.5618860000000  0.4919390000000 1.0
C      1  0.5166930000000  0.6555030000000  0.4195380000000 1.0
C      1  0.5372930000000  0.4636330000000  0.4283840000000 1.0
C      1  0.5312840000000  0.5084210000000  0.4693590000000 1.0
C      1  0.5196070000000  0.5426190000000  0.5515600000000 1.0
C      1  0.4608840000000  0.5463660000000  0.4728840000000 1.0
C      1  0.4072500000000  0.4983480000000  0.4542500000000 1.0
C      1  0.4834800000000  0.4440800000000  0.5892070000000 1.0
C      1  0.5326450000000  0.5216600000000  0.5336200000000 1.0
C      1  0.5793230000000  0.5051340000000  0.4790490000000 1.0
C      1  0.5387120000000  0.4857480000000  0.4098270000000 1.0
C      1  0.4699160000000  0.4051050000000  0.5292430000000 1.0
C      1  0.4404880000000  0.4652260000000  0.5726200000000 1.0
C      1  0.4174940000000  0.5221020000000  0.4642070000000 1.0
C      1  0.5192380000000  0.5687730000000  0.5381280000000 1.0
C      1  0.5460060000000  0.4960690000000  0.5446510000000 1.0
C      1  0.4974190000000  0.5854250000000  0.5459260000000 1.0
C      1  0.5803230000000  0.4790640000000  0.4647050000000 1.0
C      1  0.5142450000000  0.4879990000000  0.4604580000000 1.0
C      1  0.4581030000000  0.4415340000000  0.4389670000000 1.0
C      1  0.4719080000000  0.5560900000000  0.5192770000000 1.0
C      1  0.6042150000000  0.4651960000000  0.4667910000000 1.0
C      1  0.5098410000000  0.6173790000000  0.4550880000000 1.0
C      1  0.4586320000000  0.4225210000000  0.4596560000000 1.0
C      1  0.5278590000000  0.4120580000000  0.5038710000000 1.0
C      1  0.4979910000000  0.5003710000000  0.4403170000000 1.0
C      1  0.5138050000000  0.4642880000000  0.4758850000000 1.0
C      1  0.5475730000000  0.4643490000000  0.5100230000000 1.0
C      1  0.4464920000000  0.4934390000000  0.5124360000000 1.0
C      1  0.4565310000000  0.5117840000000  0.5308550000000 1.0
C      1  0.4528510000000  0.4204460000000  0.5130920000000 1.0
C      1  0.5144710000000  0.5260680000000  0.4851320000000 1.0
C      1  0.4814050000000  0.4572280000000  0.4311400000000 1.0
C      1  0.5262320000000  0.5696070000000  0.5090300000000 1.0
C      1  0.5594320000000  0.4661170000000  0.4484940000000 1.0
C      1  0.5132950000000  0.6366000000000  0.4371670000000 1.0
C      1  0.5035690000000  0.5764310000000  0.4905160000000 1.0
C      1  0.4812470000000  0.5288560000000  0.5279940000000 1.0
C      1  0.4535030000000  0.4167080000000  0.4852160000000 1.0
C      1  0.5032210000000  0.5415720000000  0.4635340000000 1.0
END
