TITL C-599891-72-61 0.0122974403830601 125000 -844.259365929834 0 0 139 (C1) n - 1
REM
REM in /home/nfs/bkarasulu/CARBON/AIRSS/Generating-Clusters/TERSOFF/Only-C1/FIRE-HFTN
REM
REM
REM
REM
REM
REM ./C.cell (11c1c37f851c82e70ff6c80c92926a4b)
REM AIRSS Version 0.9.1 bugfix July 2018 build 013d7b7c2542+ Fri, 06 Jul 2018 19:26:36 +0100
REM compiler GCC version 9.2.1 20190827 (Red Hat 9.2.1-1)
REM options -cpp -mtune=generic -march=x86-64 -g -O0 -fpre-include=/usr/include/finclude/math-vector-fortran.h
REM seed -193650590 -880364899 1226864245 166941272 937870612 1859829040 149724528 -682772569 723834355 -1678258739 707977198 34423426 890525624 -1139162907 172712919 -512502821 2014332098 923448586 904313154 -1900848275 1063634782 397723189 200094984 -309593844 -845168191 -1970402640 781866846 -1463622486 312242409 1935813000 -370502704 -620361447 -1156471811
REM
CELL 1.54180   50.00000   50.00000   50.00000   90.00000   90.00000   90.00000
LATT -1
SFAC C  
C      1  0.5694860000000  0.5780380000000  0.4998170000000 1.0
C      1  0.4560670000000  0.5226830000000  0.3962610000000 1.0
C      1  0.5693820000000  0.4947620000000  0.5822960000000 1.0
C      1  0.4620260000000  0.5920200000000  0.4541410000000 1.0
C      1  0.4897850000000  0.4759710000000  0.5644560000000 1.0
C      1  0.5499990000000  0.5262690000000  0.4809430000000 1.0
C      1  0.4310230000000  0.5897340000000  0.4653260000000 1.0
C      1  0.4472260000000  0.4467470000000  0.4252740000000 1.0
C      1  0.6129430000000  0.4890450000000  0.6043830000000 1.0
C      1  0.5153670000000  0.4778180000000  0.6065510000000 1.0
C      1  0.4817280000000  0.5616620000000  0.5348040000000 1.0
C      1  0.4226320000000  0.4954180000000  0.4701010000000 1.0
C      1  0.6150930000000  0.4911640000000  0.4385440000000 1.0
C      1  0.4366880000000  0.5381490000000  0.4077840000000 1.0
C      1  0.5245460000000  0.5015920000000  0.5448070000000 1.0
C      1  0.4548460000000  0.4062530000000  0.5127420000000 1.0
C      1  0.5055570000000  0.4542960000000  0.5546060000000 1.0
C      1  0.4393540000000  0.4663230000000  0.5592470000000 1.0
C      1  0.5063320000000  0.4088180000000  0.5538730000000 1.0
C      1  0.5328560000000  0.4073730000000  0.5077150000000 1.0
C      1  0.4798960000000  0.5103410000000  0.3916900000000 1.0
C      1  0.4672580000000  0.4725620000000  0.6030570000000 1.0
C      1  0.4724650000000  0.4625330000000  0.5204470000000 1.0
C      1  0.5965070000000  0.4743500000000  0.4859330000000 1.0
C      1  0.5215430000000  0.5732060000000  0.4450770000000 1.0
C      1  0.4820660000000  0.5357560000000  0.5527340000000 1.0
C      1  0.4940300000000  0.5350660000000  0.4358270000000 1.0
C      1  0.4833060000000  0.4146590000000  0.5733610000000 1.0
C      1  0.4841780000000  0.4068450000000  0.5098360000000 1.0
C      1  0.5542480000000  0.5367870000000  0.5647940000000 1.0
C      1  0.5102640000000  0.3952460000000  0.4611380000000 1.0
C      1  0.5548690000000  0.4201320000000  0.5226040000000 1.0
C      1  0.5652210000000  0.4769300000000  0.5609940000000 1.0
C      1  0.4469930000000  0.4041110000000  0.5396080000000 1.0
C      1  0.5079840000000  0.4017360000000  0.5247490000000 1.0
C      1  0.5141970000000  0.4683410000000  0.4982430000000 1.0
C      1  0.4072270000000  0.5621540000000  0.4990340000000 1.0
C      1  0.5471170000000  0.5138050000000  0.5838710000000 1.0
C      1  0.5551710000000  0.4687900000000  0.4291380000000 1.0
C      1  0.4498460000000  0.5049660000000  0.4643760000000 1.0
C      1  0.4238590000000  0.5863570000000  0.4934650000000 1.0
C      1  0.4805340000000  0.6070240000000  0.4335410000000 1.0
C      1  0.5013650000000  0.4696440000000  0.4077270000000 1.0
C      1  0.4926540000000  0.4589010000000  0.6072720000000 1.0
C      1  0.4030370000000  0.5054280000000  0.5513090000000 1.0
C      1  0.4627200000000  0.4781980000000  0.5751410000000 1.0
C      1  0.5928150000000  0.5252910000000  0.5039400000000 1.0
C      1  0.5946560000000  0.5044190000000  0.5913680000000 1.0
C      1  0.5501650000000  0.5311570000000  0.5100560000000 1.0
C      1  0.5053850000000  0.5496460000000  0.4921790000000 1.0
C      1  0.3986350000000  0.5263540000000  0.5349330000000 1.0
C      1  0.4675320000000  0.4165790000000  0.4688240000000 1.0
C      1  0.4610420000000  0.5634690000000  0.5124080000000 1.0
C      1  0.4462670000000  0.5873640000000  0.5101910000000 1.0
C      1  0.5037650000000  0.5178020000000  0.5513720000000 1.0
C      1  0.5073920000000  0.4650990000000  0.4351630000000 1.0
C      1  0.6034400000000  0.5030250000000  0.4170960000000 1.0
C      1  0.5537580000000  0.4935530000000  0.4137920000000 1.0
C      1  0.5239110000000  0.4322800000000  0.5583420000000 1.0
C      1  0.5503030000000  0.4309200000000  0.5489140000000 1.0
C      1  0.5326020000000  0.4527900000000  0.4405920000000 1.0
C      1  0.5072630000000  0.5981460000000  0.4324470000000 1.0
C      1  0.5985380000000  0.5319740000000  0.5854490000000 1.0
C      1  0.4724710000000  0.6566870000000  0.5052370000000 1.0
C      1  0.5252630000000  0.5051140000000  0.6014120000000 1.0
C      1  0.5321950000000  0.5668410000000  0.5300930000000 1.0
C      1  0.5593370000000  0.4868970000000  0.5133810000000 1.0
C      1  0.4065780000000  0.5523790000000  0.5269220000000 1.0
C      1  0.4169410000000  0.5652350000000  0.4515370000000 1.0
C      1  0.5074080000000  0.4444760000000  0.4861590000000 1.0
C      1  0.4188710000000  0.4331430000000  0.5921480000000 1.0
C      1  0.4825620000000  0.3981520000000  0.4523040000000 1.0
C      1  0.5042090000000  0.4956560000000  0.3966860000000 1.0
C      1  0.4596880000000  0.5169610000000  0.5133010000000 1.0
C      1  0.4855340000000  0.5909730000000  0.4771040000000 1.0
C      1  0.5497000000000  0.4884370000000  0.5398270000000 1.0
C      1  0.5434180000000  0.4318670000000  0.4602820000000 1.0
C      1  0.5870510000000  0.5533300000000  0.5041660000000 1.0
C      1  0.5303340000000  0.5075030000000  0.4022740000000 1.0
C      1  0.4574030000000  0.5314660000000  0.4702110000000 1.0
C      1  0.5163580000000  0.5494240000000  0.4267470000000 1.0
C      1  0.4204120000000  0.5658650000000  0.5484220000000 1.0
C      1  0.4860170000000  0.6351080000000  0.4997690000000 1.0
C      1  0.4374310000000  0.4377780000000  0.5726390000000 1.0
C      1  0.4846570000000  0.5067990000000  0.5064850000000 1.0
C      1  0.5578270000000  0.5422920000000  0.4584760000000 1.0
C      1  0.4054510000000  0.5471730000000  0.4730880000000 1.0
C      1  0.5797420000000  0.5474520000000  0.5732830000000 1.0
C      1  0.4275780000000  0.4442800000000  0.4881360000000 1.0
C      1  0.4436500000000  0.4192690000000  0.4869550000000 1.0
C      1  0.4912620000000  0.4312920000000  0.5969660000000 1.0
C      1  0.4905300000000  0.4804030000000  0.5085770000000 1.0
C      1  0.4883050000000  0.4248920000000  0.4874900000000 1.0
C      1  0.5499160000000  0.5698550000000  0.4558730000000 1.0
C      1  0.5368930000000  0.5017410000000  0.4741630000000 1.0
C      1  0.4229870000000  0.4542010000000  0.5142470000000 1.0
C      1  0.4104650000000  0.4784320000000  0.5540010000000 1.0
C      1  0.4597270000000  0.5656600000000  0.4381660000000 1.0
C      1  0.4501530000000  0.3619390000000  0.3884320000000 1.0
C      1  0.5855470000000  0.4956650000000  0.5027800000000 1.0
C      1  0.5709910000000  0.4403230000000  0.4639870000000 1.0
C      1  0.4479890000000  0.4627050000000  0.4472390000000 1.0
C      1  0.4676270000000  0.5806680000000  0.5550610000000 1.0
C      1  0.4574950000000  0.5386190000000  0.5684460000000 1.0
C      1  0.5068700000000  0.5603280000000  0.5193430000000 1.0
C      1  0.4048470000000  0.5180540000000  0.4721040000000 1.0
C      1  0.5994770000000  0.4768180000000  0.4568080000000 1.0
C      1  0.4662110000000  0.4845130000000  0.4527070000000 1.0
C      1  0.5783700000000  0.4608600000000  0.4445640000000 1.0
C      1  0.5781260000000  0.4296420000000  0.5098280000000 1.0
C      1  0.4719840000000  0.3846980000000  0.4304810000000 1.0
C      1  0.4465210000000  0.4622030000000  0.5292610000000 1.0
C      1  0.5661070000000  0.5861050000000  0.4722740000000 1.0
C      1  0.5470620000000  0.5433230000000  0.5369110000000 1.0
C      1  0.4265620000000  0.4649390000000  0.4675240000000 1.0
C      1  0.5042490000000  0.5693580000000  0.4717110000000 1.0
C      1  0.5764140000000  0.5111540000000  0.4184180000000 1.0
C      1  0.5683200000000  0.4491790000000  0.5605020000000 1.0
C      1  0.5301500000000  0.5359680000000  0.4062470000000 1.0
C      1  0.5453290000000  0.5870780000000  0.5147240000000 1.0
C      1  0.4013000000000  0.4617080000000  0.5312830000000 1.0
C      1  0.5389360000000  0.4816530000000  0.4940790000000 1.0
C      1  0.4945930000000  0.4846250000000  0.4522430000000 1.0
C      1  0.4443010000000  0.5643840000000  0.5638000000000 1.0
C      1  0.4719800000000  0.5436350000000  0.4496440000000 1.0
C      1  0.4335570000000  0.5576970000000  0.4283140000000 1.0
C      1  0.5259200000000  0.6059840000000  0.5035040000000 1.0
C      1  0.5845660000000  0.4466470000000  0.4887640000000 1.0
C      1  0.4988060000000  0.5451200000000  0.6266050000000 1.0
C      1  0.5312740000000  0.4094420000000  0.4760920000000 1.0
C      1  0.5120280000000  0.5256280000000  0.6154560000000 1.0
C      1  0.4988450000000  0.6111070000000  0.4936190000000 1.0
C      1  0.4886490000000  0.4445470000000  0.5338200000000 1.0
C      1  0.4555240000000  0.4169990000000  0.5635670000000 1.0
C      1  0.5097750000000  0.5049140000000  0.4661930000000 1.0
C      1  0.4543540000000  0.5400240000000  0.4978580000000 1.0
C      1  0.4993430000000  0.5219760000000  0.4874860000000 1.0
C      1  0.5716580000000  0.5317550000000  0.4367810000000 1.0
C      1  0.4610610000000  0.3731080000000  0.4093100000000 1.0
END
