TITL C-599894-471-785 0.00709849021433857 125000 -244.387368470239 0 0 41 (C1) n - 1
REM
REM in /home/nfs/bkarasulu/CARBON/AIRSS/Generating-Clusters/TERSOFF/Only-C1/FIRE-HFTN
REM
REM
REM
REM
REM
REM ./C.cell (11c1c37f851c82e70ff6c80c92926a4b)
REM AIRSS Version 0.9.1 bugfix July 2018 build 013d7b7c2542+ Fri, 06 Jul 2018 19:26:36 +0100
REM compiler GCC version 9.2.1 20190827 (Red Hat 9.2.1-1)
REM options -cpp -mtune=generic -march=x86-64 -g -O0 -fpre-include=/usr/include/finclude/math-vector-fortran.h
REM seed 1573337635 -1653226067 -1252874158 -222352100 -2132568398 467746943 -1234149244 -2020620721 1003041631 -1981624000 -1285981998 147663171 -262672019 -1588487948 -1668346977 63166418 1449665463 1328447568 1311810401 380456217 344207252 -1051931965 1472128963 -1028130125 -662707800 880360644 560874804 699919738 900449552 -1053323337 2044485829 -1376169518 -1118687983
REM
CELL 1.54180   50.00000   50.00000   50.00000   90.00000   90.00000   90.00000
LATT -1
SFAC C  
C      1  0.5156330000000  0.4411830000000  0.5071960000000 1.0
C      1  0.4791060000000  0.5647860000000  0.4343070000000 1.0
C      1  0.5793630000000  0.4594320000000  0.5564260000000 1.0
C      1  0.4785660000000  0.4119090000000  0.4847290000000 1.0
C      1  0.4537080000000  0.5339300000000  0.5316970000000 1.0
C      1  0.5016980000000  0.4237640000000  0.4904610000000 1.0
C      1  0.5255260000000  0.5411900000000  0.4756910000000 1.0
C      1  0.4857490000000  0.5581850000000  0.4984770000000 1.0
C      1  0.4680990000000  0.5505480000000  0.5167700000000 1.0
C      1  0.4632970000000  0.4642480000000  0.5448570000000 1.0
C      1  0.4475490000000  0.5083510000000  0.5405620000000 1.0
C      1  0.4958980000000  0.5743730000000  0.4536420000000 1.0
C      1  0.5619810000000  0.5966690000000  0.4873520000000 1.0
C      1  0.5217020000000  0.4760250000000  0.4012500000000 1.0
C      1  0.5068360000000  0.6001240000000  0.4518060000000 1.0
C      1  0.5249070000000  0.5179480000000  0.4600230000000 1.0
C      1  0.5244540000000  0.4832520000000  0.4261380000000 1.0
C      1  0.5484330000000  0.5456800000000  0.4922430000000 1.0
C      1  0.5523030000000  0.4724960000000  0.5175200000000 1.0
C      1  0.4841340000000  0.4458990000000  0.5443470000000 1.0
C      1  0.5490340000000  0.6155150000000  0.4735230000000 1.0
C      1  0.4033470000000  0.4886410000000  0.5141850000000 1.0
C      1  0.4316780000000  0.4229620000000  0.5011870000000 1.0
C      1  0.5342690000000  0.4609330000000  0.4982620000000 1.0
C      1  0.4276030000000  0.4913190000000  0.5292190000000 1.0
C      1  0.5592370000000  0.5239620000000  0.5062050000000 1.0
C      1  0.5604690000000  0.5708630000000  0.4937210000000 1.0
C      1  0.5101060000000  0.4411240000000  0.5353420000000 1.0
C      1  0.4000400000000  0.4625950000000  0.5053800000000 1.0
C      1  0.4856080000000  0.4999900000000  0.5719840000000 1.0
C      1  0.4386240000000  0.4631030000000  0.5303120000000 1.0
C      1  0.5027210000000  0.5582750000000  0.4762100000000 1.0
C      1  0.4223710000000  0.4459930000000  0.5134130000000 1.0
C      1  0.5272030000000  0.4910070000000  0.4528010000000 1.0
C      1  0.5614360000000  0.4986390000000  0.5138200000000 1.0
C      1  0.5322270000000  0.4719340000000  0.4726560000000 1.0
C      1  0.4523920000000  0.4109480000000  0.4895480000000 1.0
C      1  0.4671400000000  0.4915970000000  0.5539010000000 1.0
C      1  0.5559400000000  0.4590690000000  0.5425280000000 1.0
C      1  0.5330230000000  0.4450180000000  0.5512900000000 1.0
C      1  0.5265910000000  0.6165240000000  0.4590200000000 1.0
END
