TITL C-599891-72-130 0.000493682840141209 125000 -990.018489208964 0 0 161 (C1) n - 1
REM
REM in /home/nfs/bkarasulu/CARBON/AIRSS/Generating-Clusters/TERSOFF/Only-C1/FIRE-HFTN
REM
REM
REM
REM
REM
REM ./C.cell (11c1c37f851c82e70ff6c80c92926a4b)
REM AIRSS Version 0.9.1 bugfix July 2018 build 013d7b7c2542+ Fri, 06 Jul 2018 19:26:36 +0100
REM compiler GCC version 9.2.1 20190827 (Red Hat 9.2.1-1)
REM options -cpp -mtune=generic -march=x86-64 -g -O0 -fpre-include=/usr/include/finclude/math-vector-fortran.h
REM seed -136925281 376238629 -305557399 -593780694 -838380301 -1255799071 764415813 1376201652 -1161297806 1669836808 24992793 1637485480 -592979783 42706998 -665057903 764484482 -823378650 1905184202 954284275 607533294 -1676652924 892450561 -629859114 -1671826474 -1705308206 -854422868 -169067332 917190390 -1817360892 648648984 1663180699 1575562473 -760136439
REM
CELL 1.54180   50.00000   50.00000   50.00000   90.00000   90.00000   90.00000
LATT -1
SFAC C  
C      1  0.4579250000000  0.4357740000000  0.5668740000000 1.0
C      1  0.4898820000000  0.5387750000000  0.3629440000000 1.0
C      1  0.5361560000000  0.6162700000000  0.5218160000000 1.0
C      1  0.5693900000000  0.4980330000000  0.5487600000000 1.0
C      1  0.4808470000000  0.5069140000000  0.5392320000000 1.0
C      1  0.6159440000000  0.4390420000000  0.4331090000000 1.0
C      1  0.5811940000000  0.5627780000000  0.5161170000000 1.0
C      1  0.3792040000000  0.5356050000000  0.5882280000000 1.0
C      1  0.4256990000000  0.5691660000000  0.4576700000000 1.0
C      1  0.5798080000000  0.4055170000000  0.5141610000000 1.0
C      1  0.4467060000000  0.4899540000000  0.3930580000000 1.0
C      1  0.5625790000000  0.5973930000000  0.4876480000000 1.0
C      1  0.5916600000000  0.4813030000000  0.4331960000000 1.0
C      1  0.5648650000000  0.4530670000000  0.5909470000000 1.0
C      1  0.6143480000000  0.4881060000000  0.5947130000000 1.0
C      1  0.5268280000000  0.3752240000000  0.5084140000000 1.0
C      1  0.5562000000000  0.4915180000000  0.5257960000000 1.0
C      1  0.4351660000000  0.4508520000000  0.5560560000000 1.0
C      1  0.5243830000000  0.5086070000000  0.5951070000000 1.0
C      1  0.5498110000000  0.4714200000000  0.3974220000000 1.0
C      1  0.4602250000000  0.6646480000000  0.5004620000000 1.0
C      1  0.4604370000000  0.4134030000000  0.5462620000000 1.0
C      1  0.4569590000000  0.5499350000000  0.5046310000000 1.0
C      1  0.3955780000000  0.4948730000000  0.4474580000000 1.0
C      1  0.4185790000000  0.4953350000000  0.5622400000000 1.0
C      1  0.5695070000000  0.4731720000000  0.4176540000000 1.0
C      1  0.4706280000000  0.4635700000000  0.5188370000000 1.0
C      1  0.5653100000000  0.5153380000000  0.5702180000000 1.0
C      1  0.6167540000000  0.4837060000000  0.4946290000000 1.0
C      1  0.5031530000000  0.4562170000000  0.4524580000000 1.0
C      1  0.4096060000000  0.4342570000000  0.4876920000000 1.0
C      1  0.5432050000000  0.5462150000000  0.4013430000000 1.0
C      1  0.4913510000000  0.4822210000000  0.4392800000000 1.0
C      1  0.4307650000000  0.4172380000000  0.4789710000000 1.0
C      1  0.4064740000000  0.4477880000000  0.5124790000000 1.0
C      1  0.6199150000000  0.4685470000000  0.4711690000000 1.0
C      1  0.5850410000000  0.5771790000000  0.4461820000000 1.0
C      1  0.4102700000000  0.4900800000000  0.5881100000000 1.0
C      1  0.5821630000000  0.5893560000000  0.5067800000000 1.0
C      1  0.6276840000000  0.5618790000000  0.4299880000000 1.0
C      1  0.5041990000000  0.5107000000000  0.5219810000000 1.0
C      1  0.4444990000000  0.5882880000000  0.5514600000000 1.0
C      1  0.4740360000000  0.4975080000000  0.3936270000000 1.0
C      1  0.5169370000000  0.4733590000000  0.5486890000000 1.0
C      1  0.5452240000000  0.5179550000000  0.4671680000000 1.0
C      1  0.4597170000000  0.4365360000000  0.4108290000000 1.0
C      1  0.3882490000000  0.5007890000000  0.4729160000000 1.0
C      1  0.5674370000000  0.3957670000000  0.4924470000000 1.0
C      1  0.5284610000000  0.5180100000000  0.4443240000000 1.0
C      1  0.4844630000000  0.5759950000000  0.5795170000000 1.0
C      1  0.4536380000000  0.5703840000000  0.4501840000000 1.0
C      1  0.5724160000000  0.5418920000000  0.5647230000000 1.0
C      1  0.5997500000000  0.5311890000000  0.4548600000000 1.0
C      1  0.5519620000000  0.5021630000000  0.5918090000000 1.0
C      1  0.4392940000000  0.5126050000000  0.4731040000000 1.0
C      1  0.5158880000000  0.5796590000000  0.4949800000000 1.0
C      1  0.4400430000000  0.4206810000000  0.4521230000000 1.0
C      1  0.5017110000000  0.4693490000000  0.5730670000000 1.0
C      1  0.5731900000000  0.4110040000000  0.5409580000000 1.0
C      1  0.4799690000000  0.4108330000000  0.3454010000000 1.0
C      1  0.4196640000000  0.4915730000000  0.4328680000000 1.0
C      1  0.5746080000000  0.5446020000000  0.4952510000000 1.0
C      1  0.5137790000000  0.4578190000000  0.4790310000000 1.0
C      1  0.5296050000000  0.4510650000000  0.3969860000000 1.0
C      1  0.5109250000000  0.6227440000000  0.5631090000000 1.0
C      1  0.4812100000000  0.6262350000000  0.5263260000000 1.0
C      1  0.5693390000000  0.5931120000000  0.4608360000000 1.0
C      1  0.5489600000000  0.4929800000000  0.4803600000000 1.0
C      1  0.4424910000000  0.4997790000000  0.4480730000000 1.0
C      1  0.4415040000000  0.6578990000000  0.4823630000000 1.0
C      1  0.4659060000000  0.4252500000000  0.4374890000000 1.0
C      1  0.5025460000000  0.5583130000000  0.5885930000000 1.0
C      1  0.4791160000000  0.4964970000000  0.6065690000000 1.0
C      1  0.5966080000000  0.5086090000000  0.4382160000000 1.0
C      1  0.4737330000000  0.6067860000000  0.5070690000000 1.0
C      1  0.4283410000000  0.6357510000000  0.4744220000000 1.0
C      1  0.4564520000000  0.4727240000000  0.4962530000000 1.0
C      1  0.4674440000000  0.5294250000000  0.5499610000000 1.0
C      1  0.4204060000000  0.4321730000000  0.4333160000000 1.0
C      1  0.5254630000000  0.4877340000000  0.5228940000000 1.0
C      1  0.5016870000000  0.4572680000000  0.3975460000000 1.0
C      1  0.5053920000000  0.4377640000000  0.4965810000000 1.0
C      1  0.3882320000000  0.5352750000000  0.5621180000000 1.0
C      1  0.4804960000000  0.4387180000000  0.3914970000000 1.0
C      1  0.4222470000000  0.4368310000000  0.5337040000000 1.0
C      1  0.5879100000000  0.4418380000000  0.5787900000000 1.0
C      1  0.4606840000000  0.5623910000000  0.4248240000000 1.0
C      1  0.4455910000000  0.6045720000000  0.5065230000000 1.0
C      1  0.4320610000000  0.5875280000000  0.5258860000000 1.0
C      1  0.6093210000000  0.4624170000000  0.4456790000000 1.0
C      1  0.4761730000000  0.6529180000000  0.5187210000000 1.0
C      1  0.5029180000000  0.3616180000000  0.5037950000000 1.0
C      1  0.4929870000000  0.4294240000000  0.4457060000000 1.0
C      1  0.5228940000000  0.5511320000000  0.4952500000000 1.0
C      1  0.5464590000000  0.4039960000000  0.5491680000000 1.0
C      1  0.5261830000000  0.4791460000000  0.4916340000000 1.0
C      1  0.5031590000000  0.4890750000000  0.5936650000000 1.0
C      1  0.4863040000000  0.4446280000000  0.5739730000000 1.0
C      1  0.6043490000000  0.5568860000000  0.4434050000000 1.0
C      1  0.4033550000000  0.5145090000000  0.5477950000000 1.0
C      1  0.5104040000000  0.4076530000000  0.4492730000000 1.0
C      1  0.5902620000000  0.4246640000000  0.5583650000000 1.0
C      1  0.4075020000000  0.5563110000000  0.4417260000000 1.0
C      1  0.5480590000000  0.5411330000000  0.4847460000000 1.0
C      1  0.5305640000000  0.4203930000000  0.5664690000000 1.0
C      1  0.4613110000000  0.5152540000000  0.5991810000000 1.0
C      1  0.4387900000000  0.4132820000000  0.5272890000000 1.0
C      1  0.4872520000000  0.4396620000000  0.5175130000000 1.0
C      1  0.5366900000000  0.5993770000000  0.4993390000000 1.0
C      1  0.4768510000000  0.3631670000000  0.4988780000000 1.0
C      1  0.4919920000000  0.4814250000000  0.4092170000000 1.0
C      1  0.5415780000000  0.3863680000000  0.4864780000000 1.0
C      1  0.4888930000000  0.5892530000000  0.4898100000000 1.0
C      1  0.4412600000000  0.4019680000000  0.5008480000000 1.0
C      1  0.4743870000000  0.5795590000000  0.4672470000000 1.0
C      1  0.6271620000000  0.4862350000000  0.5713670000000 1.0
C      1  0.4926800000000  0.5189660000000  0.4750830000000 1.0
C      1  0.4281260000000  0.4762760000000  0.4097280000000 1.0
C      1  0.5041750000000  0.5290380000000  0.4993530000000 1.0
C      1  0.4324970000000  0.4480440000000  0.4123630000000 1.0
C      1  0.4004470000000  0.5208650000000  0.5186260000000 1.0
C      1  0.5960580000000  0.4900020000000  0.6397130000000 1.0
C      1  0.5328230000000  0.6229430000000  0.5474650000000 1.0
C      1  0.4799570000000  0.4242820000000  0.3677210000000 1.0
C      1  0.5032970000000  0.4239540000000  0.5604460000000 1.0
C      1  0.4596870000000  0.5471460000000  0.5303310000000 1.0
C      1  0.6301300000000  0.4802440000000  0.5190150000000 1.0
C      1  0.3837730000000  0.5560410000000  0.5429410000000 1.0
C      1  0.5796940000000  0.5564520000000  0.5433880000000 1.0
C      1  0.5943200000000  0.5277940000000  0.4828410000000 1.0
C      1  0.5509770000000  0.4889570000000  0.3763180000000 1.0
C      1  0.4166810000000  0.5832570000000  0.4806270000000 1.0
C      1  0.5351840000000  0.5304960000000  0.4205240000000 1.0
C      1  0.5420890000000  0.4371660000000  0.5862880000000 1.0
C      1  0.5670470000000  0.4796090000000  0.6017070000000 1.0
C      1  0.3930840000000  0.4993920000000  0.5009750000000 1.0
C      1  0.4446470000000  0.4986620000000  0.4958580000000 1.0
C      1  0.4595980000000  0.4623880000000  0.4707660000000 1.0
C      1  0.4872430000000  0.4186820000000  0.5369610000000 1.0
C      1  0.4583960000000  0.5291880000000  0.5764520000000 1.0
C      1  0.4287450000000  0.6095560000000  0.4838920000000 1.0
C      1  0.4654010000000  0.4829150000000  0.5397610000000 1.0
C      1  0.3973400000000  0.5507060000000  0.5177090000000 1.0
C      1  0.4702440000000  0.5941430000000  0.5629420000000 1.0
C      1  0.5693100000000  0.4920450000000  0.5004560000000 1.0
C      1  0.5341750000000  0.3832910000000  0.5343870000000 1.0
C      1  0.3699600000000  0.5378180000000  0.6124970000000 1.0
C      1  0.4132620000000  0.5719340000000  0.5079470000000 1.0
C      1  0.3944900000000  0.4731230000000  0.5118490000000 1.0
C      1  0.5026590000000  0.5078840000000  0.4507100000000 1.0
C      1  0.5376410000000  0.4248500000000  0.3953840000000 1.0
C      1  0.4832390000000  0.5192390000000  0.3788620000000 1.0
C      1  0.4548750000000  0.3779570000000  0.4970490000000 1.0
C      1  0.4630440000000  0.4802430000000  0.4490940000000 1.0
C      1  0.4399380000000  0.4787950000000  0.5529700000000 1.0
C      1  0.5949600000000  0.5016560000000  0.4941820000000 1.0
C      1  0.5163620000000  0.5360180000000  0.5943620000000 1.0
C      1  0.4853910000000  0.6165570000000  0.5529000000000 1.0
C      1  0.6325530000000  0.4823540000000  0.5455190000000 1.0
C      1  0.5928130000000  0.4860920000000  0.6128870000000 1.0
C      1  0.5282500000000  0.3933320000000  0.4628810000000 1.0
END
