TITL C-599894-471-496 40893.6483615448 125000 -905.997766874855 0 0 147 (C1) n - 1
REM
REM in /home/nfs/bkarasulu/CARBON/AIRSS/Generating-Clusters/TERSOFF/Only-C1/FIRE-HFTN
REM
REM
REM
REM
REM
REM ./C.cell (11c1c37f851c82e70ff6c80c92926a4b)
REM AIRSS Version 0.9.1 bugfix July 2018 build 013d7b7c2542+ Fri, 06 Jul 2018 19:26:36 +0100
REM compiler GCC version 9.2.1 20190827 (Red Hat 9.2.1-1)
REM options -cpp -mtune=generic -march=x86-64 -g -O0 -fpre-include=/usr/include/finclude/math-vector-fortran.h
REM seed -978492006 1572131609 833926108 -1861367136 174458254 939337181 -1123831886 -585946485 -975802789 341892370 1450715970 -383994889 1375676381 -721339858 1689932379 1182746233 -980488830 -1427341304 -1447469621 1113710152 -17892293 130383530 -248096418 -405735796 -330689691 -1552531343 1700074808 -264963265 1398050129 -1862400718 -1627477909 409711782 326859991
REM
CELL 1.54180   50.00000   50.00000   50.00000   90.00000   90.00000   90.00000
LATT -1
SFAC C  
C      1  0.4146110000000  0.4303620000000  0.4872900000000 1.0
C      1  0.4571400000000  0.3841450000000  0.5943940000000 1.0
C      1  0.4822480000000  0.4990220000000  0.4977970000000 1.0
C      1  0.4862000000000  0.4437210000000  0.5035790000000 1.0
C      1  0.5381840000000  0.4987490000000  0.4726700000000 1.0
C      1  0.4619890000000  0.4754870000000  0.5873910000000 1.0
C      1  0.4714530000000  0.5132800000000  0.5576900000000 1.0
C      1  0.4070360000000  0.4862230000000  0.4376640000000 1.0
C      1  0.4334390000000  0.5318710000000  0.5361560000000 1.0
C      1  0.4891860000000  0.4103510000000  0.4163420000000 1.0
C      1  0.5351120000000  0.5543050000000  0.4939240000000 1.0
C      1  0.4102900000000  0.5605310000000  0.4437480000000 1.0
C      1  0.4543930000000  0.4408860000000  0.4615670000000 1.0
C      1  0.5005860000000  0.4836130000000  0.4040470000000 1.0
C      1  0.5476020000000  0.5522710000000  0.4259550000000 1.0
C      1  0.5711350000000  0.5711860000000  0.3872600000000 1.0
C      1  0.4747890000000  0.4227360000000  0.5712010000000 1.0
C      1  0.5353120000000  0.6013970000000  0.5223990000000 1.0
C      1  0.4806530000000  0.4853830000000  0.4245450000000 1.0
C      1  0.4430350000000  0.5244610000000  0.3907420000000 1.0
C      1  0.5698140000000  0.4742860000000  0.6393900000000 1.0
C      1  0.5604590000000  0.5499120000000  0.4005350000000 1.0
C      1  0.4651110000000  0.4411930000000  0.5522920000000 1.0
C      1  0.3807460000000  0.5331150000000  0.4873820000000 1.0
C      1  0.4301780000000  0.5017380000000  0.3969460000000 1.0
C      1  0.5890830000000  0.5036660000000  0.4341650000000 1.0
C      1  0.5643450000000  0.4893960000000  0.4235030000000 1.0
C      1  0.5291700000000  0.5282600000000  0.5099970000000 1.0
C      1  0.5446500000000  0.4933110000000  0.5616810000000 1.0
C      1  0.5401330000000  0.5744340000000  0.5146240000000 1.0
C      1  0.6303070000000  0.4764360000000  0.5179350000000 1.0
C      1  0.4113030000000  0.4816550000000  0.5313440000000 1.0
C      1  0.5076820000000  0.5304920000000  0.4129580000000 1.0
C      1  0.4556470000000  0.4702570000000  0.4233720000000 1.0
C      1  0.4913680000000  0.5828630000000  0.4801170000000 1.0
C      1  0.3979090000000  0.4060300000000  0.5263650000000 1.0
C      1  0.4522420000000  0.4647780000000  0.5623740000000 1.0
C      1  0.4853120000000  0.5976550000000  0.5043620000000 1.0
C      1  0.5715890000000  0.5824220000000  0.5477310000000 1.0
C      1  0.4296480000000  0.4833040000000  0.4186330000000 1.0
C      1  0.5872200000000  0.4658660000000  0.4585460000000 1.0
C      1  0.3787830000000  0.5167100000000  0.4659990000000 1.0
C      1  0.5391810000000  0.4689400000000  0.4620350000000 1.0
C      1  0.5982460000000  0.4928630000000  0.4608130000000 1.0
C      1  0.5050970000000  0.4882570000000  0.5101860000000 1.0
C      1  0.5179660000000  0.5055790000000  0.4016140000000 1.0
C      1  0.4742560000000  0.6017880000000  0.4391320000000 1.0
C      1  0.4275140000000  0.4979000000000  0.4907170000000 1.0
C      1  0.4743670000000  0.5660270000000  0.5899850000000 1.0
C      1  0.5182190000000  0.5296560000000  0.5357970000000 1.0
C      1  0.5882770000000  0.5643670000000  0.5319110000000 1.0
C      1  0.5263250000000  0.4216540000000  0.4456510000000 1.0
C      1  0.4662100000000  0.4324230000000  0.5246840000000 1.0
C      1  0.4964440000000  0.6160230000000  0.4328370000000 1.0
C      1  0.4364950000000  0.3704300000000  0.6024490000000 1.0
C      1  0.5094490000000  0.4602620000000  0.3917050000000 1.0
C      1  0.5724210000000  0.5643940000000  0.4634570000000 1.0
C      1  0.4476330000000  0.5143620000000  0.4482340000000 1.0
C      1  0.4805090000000  0.5274800000000  0.4937680000000 1.0
C      1  0.4706960000000  0.4562420000000  0.4794210000000 1.0
C      1  0.4788610000000  0.4000940000000  0.5870410000000 1.0
C      1  0.4143590000000  0.4765360000000  0.5033070000000 1.0
C      1  0.6070280000000  0.4898660000000  0.5262090000000 1.0
C      1  0.6366840000000  0.4342670000000  0.5410910000000 1.0
C      1  0.4610290000000  0.5962530000000  0.5482370000000 1.0
C      1  0.5617590000000  0.4988120000000  0.6333350000000 1.0
C      1  0.4460590000000  0.5097860000000  0.5485090000000 1.0
C      1  0.4402020000000  0.5737180000000  0.5107710000000 1.0
C      1  0.5895640000000  0.5080730000000  0.4842940000000 1.0
C      1  0.4054140000000  0.4570010000000  0.4845010000000 1.0
C      1  0.5239080000000  0.4443380000000  0.4654650000000 1.0
C      1  0.5915660000000  0.4800500000000  0.5486730000000 1.0
C      1  0.4163350000000  0.5676440000000  0.4955280000000 1.0
C      1  0.4642890000000  0.5839610000000  0.5722660000000 1.0
C      1  0.4827670000000  0.5439650000000  0.4182470000000 1.0
C      1  0.4581760000000  0.4438510000000  0.4332070000000 1.0
C      1  0.5151100000000  0.4208810000000  0.4197410000000 1.0
C      1  0.5556800000000  0.5686130000000  0.5669990000000 1.0
C      1  0.5722290000000  0.4978070000000  0.5590190000000 1.0
C      1  0.5274110000000  0.5016710000000  0.5001800000000 1.0
C      1  0.4290340000000  0.4012790000000  0.4492050000000 1.0
C      1  0.4600430000000  0.5939770000000  0.5193340000000 1.0
C      1  0.3941730000000  0.5124000000000  0.4422330000000 1.0
C      1  0.5588600000000  0.6065330000000  0.5379850000000 1.0
C      1  0.5601670000000  0.5453390000000  0.4800150000000 1.0
C      1  0.5634910000000  0.5173880000000  0.4767430000000 1.0
C      1  0.4329040000000  0.4226270000000  0.4673340000000 1.0
C      1  0.4355770000000  0.4829230000000  0.5474140000000 1.0
C      1  0.5716590000000  0.4478590000000  0.6380870000000 1.0
C      1  0.4855380000000  0.5002520000000  0.4503550000000 1.0
C      1  0.5101920000000  0.3835360000000  0.5077300000000 1.0
C      1  0.4755640000000  0.5792570000000  0.4560800000000 1.0
C      1  0.5968840000000  0.5133920000000  0.5126150000000 1.0
C      1  0.5214700000000  0.6097710000000  0.4408130000000 1.0
C      1  0.4147550000000  0.5723170000000  0.4675620000000 1.0
C      1  0.5547000000000  0.5731990000000  0.4435160000000 1.0
C      1  0.5459450000000  0.5362060000000  0.5985270000000 1.0
C      1  0.5786460000000  0.5256100000000  0.5582420000000 1.0
C      1  0.3944800000000  0.5050480000000  0.5354700000000 1.0
C      1  0.5270330000000  0.5698570000000  0.5725740000000 1.0
C      1  0.5267760000000  0.5338940000000  0.4346140000000 1.0
C      1  0.4820240000000  0.5334410000000  0.4662440000000 1.0
C      1  0.5044060000000  0.3676650000000  0.5275740000000 1.0
C      1  0.5178130000000  0.4527610000000  0.5415400000000 1.0
C      1  0.4980490000000  0.5492470000000  0.5365860000000 1.0
C      1  0.4059610000000  0.5305270000000  0.5287080000000 1.0
C      1  0.5226710000000  0.4382630000000  0.3992220000000 1.0
C      1  0.5969160000000  0.4548060000000  0.5598060000000 1.0
C      1  0.6432410000000  0.4534130000000  0.5231690000000 1.0
C      1  0.3985410000000  0.5460310000000  0.5055110000000 1.0
C      1  0.4771690000000  0.5437810000000  0.5173180000000 1.0
C      1  0.5208990000000  0.5509020000000  0.5945030000000 1.0
C      1  0.4453740000000  0.4145680000000  0.5185190000000 1.0
C      1  0.5184130000000  0.5729830000000  0.4751590000000 1.0
C      1  0.5649290000000  0.4232960000000  0.6306640000000 1.0
C      1  0.5197460000000  0.5123880000000  0.4522570000000 1.0
C      1  0.4352570000000  0.5128100000000  0.4704890000000 1.0
C      1  0.4627450000000  0.4186270000000  0.4201080000000 1.0
C      1  0.4032350000000  0.5373210000000  0.4317350000000 1.0
C      1  0.4776390000000  0.4837150000000  0.4740590000000 1.0
C      1  0.5045730000000  0.3935990000000  0.5957870000000 1.0
C      1  0.4779400000000  0.5525970000000  0.4460140000000 1.0
C      1  0.5285950000000  0.3946900000000  0.6069220000000 1.0
C      1  0.4181800000000  0.4164000000000  0.5115290000000 1.0
C      1  0.4010190000000  0.4665710000000  0.4576540000000 1.0
C      1  0.4835050000000  0.5199240000000  0.6060840000000 1.0
C      1  0.5148470000000  0.4019280000000  0.4877290000000 1.0
C      1  0.4503570000000  0.5499170000000  0.5231210000000 1.0
C      1  0.5087280000000  0.6099230000000  0.5166390000000 1.0
C      1  0.4618190000000  0.5412850000000  0.3997240000000 1.0
C      1  0.5092850000000  0.4303820000000  0.4881640000000 1.0
C      1  0.5497850000000  0.4046830000000  0.6193530000000 1.0
C      1  0.4929140000000  0.5458740000000  0.5991310000000 1.0
C      1  0.4730480000000  0.4953650000000  0.6020100000000 1.0
C      1  0.4424200000000  0.3996250000000  0.4256430000000 1.0
C      1  0.5520230000000  0.5193080000000  0.6196510000000 1.0
C      1  0.5618430000000  0.4675630000000  0.4438950000000 1.0
C      1  0.5245500000000  0.5096300000000  0.5543560000000 1.0
C      1  0.5325800000000  0.5874670000000  0.4538750000000 1.0
C      1  0.5263110000000  0.3975530000000  0.4617810000000 1.0
C      1  0.5608420000000  0.5237410000000  0.3900480000000 1.0
C      1  0.5475610000000  0.5020920000000  0.4030810000000 1.0
C      1  0.6152990000000  0.4352640000000  0.5575980000000 1.0
C      1  0.5067070000000  0.5708490000000  0.5527330000000 1.0
C      1  0.5030780000000  0.4626930000000  0.5208600000000 1.0
C      1  0.5651420000000  0.5428450000000  0.5770230000000 1.0
C      1  0.5893070000000  0.5354270000000  0.5323550000000 1.0
END
