TITL C-599897-7526-1160 96.775909685708 125000 -630.449872533552 0 0 105 (C1) n - 1
REM
REM in /home/nfs/bkarasulu/CARBON/AIRSS/Generating-Clusters/TERSOFF/Only-C1/FIRE-HFTN
REM
REM
REM
REM
REM
REM ./C.cell (11c1c37f851c82e70ff6c80c92926a4b)
REM AIRSS Version 0.9.1 bugfix July 2018 build 013d7b7c2542+ Fri, 06 Jul 2018 19:26:36 +0100
REM compiler GCC version 9.2.1 20190827 (Red Hat 9.2.1-1)
REM options -cpp -mtune=generic -march=x86-64 -g -O0 -fpre-include=/usr/include/finclude/math-vector-fortran.h
REM seed -1857139890 -1999763372 379771613 1197026515 -719380335 491796900 -879249197 854809703 1535375694 -2059211555 -890088562 -2061628730 1818514129 -397462307 -1782218474 2089465172 521016258 993391958 9955695 -599300737 1019596906 -147000628 1357813188 -563802180 1505058200 1312648824 1780202785 -1366894069 -1032336112 1796409539 -1737184462 205688096 614301630
REM
CELL 1.54180   50.00000   50.00000   50.00000   90.00000   90.00000   90.00000
LATT -1
SFAC C  
C      1  0.4596310000000  0.4286550000000  0.5345710000000 1.0
C      1  0.4933090000000  0.5438080000000  0.5101340000000 1.0
C      1  0.4493390000000  0.5853590000000  0.5864970000000 1.0
C      1  0.5219820000000  0.6166110000000  0.5791880000000 1.0
C      1  0.5683240000000  0.4484010000000  0.5847690000000 1.0
C      1  0.4658270000000  0.4999170000000  0.4641480000000 1.0
C      1  0.5616380000000  0.4246130000000  0.5250980000000 1.0
C      1  0.4882360000000  0.4009160000000  0.5084790000000 1.0
C      1  0.5429200000000  0.5812960000000  0.5212920000000 1.0
C      1  0.4828550000000  0.5304080000000  0.5604230000000 1.0
C      1  0.5359710000000  0.5708950000000  0.5840440000000 1.0
C      1  0.5211280000000  0.4555110000000  0.4160920000000 1.0
C      1  0.4098790000000  0.5068640000000  0.4282880000000 1.0
C      1  0.5168780000000  0.4779110000000  0.4641870000000 1.0
C      1  0.5348940000000  0.5205440000000  0.5980540000000 1.0
C      1  0.5746840000000  0.5574440000000  0.4909000000000 1.0
C      1  0.4267900000000  0.5201170000000  0.5299140000000 1.0
C      1  0.4895710000000  0.6051030000000  0.5024930000000 1.0
C      1  0.5015310000000  0.4419870000000  0.5000080000000 1.0
C      1  0.5599800000000  0.4490930000000  0.4453250000000 1.0
C      1  0.4273440000000  0.4733390000000  0.5095810000000 1.0
C      1  0.5425790000000  0.5146590000000  0.4458680000000 1.0
C      1  0.5470680000000  0.4939810000000  0.4268880000000 1.0
C      1  0.4615710000000  0.4053360000000  0.4961070000000 1.0
C      1  0.5288180000000  0.3984250000000  0.4709670000000 1.0
C      1  0.4650600000000  0.5066870000000  0.4917100000000 1.0
C      1  0.5262310000000  0.5919980000000  0.5678210000000 1.0
C      1  0.5632180000000  0.5103390000000  0.5366420000000 1.0
C      1  0.5682900000000  0.4752420000000  0.4353070000000 1.0
C      1  0.5005310000000  0.5795520000000  0.4637590000000 1.0
C      1  0.5835180000000  0.4231360000000  0.5431960000000 1.0
C      1  0.3833940000000  0.4687790000000  0.4155450000000 1.0
C      1  0.4305470000000  0.4298790000000  0.5799960000000 1.0
C      1  0.4723460000000  0.4881390000000  0.5103710000000 1.0
C      1  0.5587810000000  0.5368130000000  0.4508730000000 1.0
C      1  0.4847490000000  0.5067140000000  0.3572880000000 1.0
C      1  0.4418700000000  0.5480360000000  0.4401430000000 1.0
C      1  0.4912610000000  0.5146920000000  0.5810260000000 1.0
C      1  0.4565130000000  0.4847510000000  0.5520190000000 1.0
C      1  0.5363090000000  0.4367460000000  0.4325390000000 1.0
C      1  0.5152600000000  0.5017190000000  0.5899400000000 1.0
C      1  0.4917100000000  0.4389880000000  0.4750960000000 1.0
C      1  0.4796240000000  0.5901580000000  0.4800090000000 1.0
C      1  0.4347680000000  0.4506310000000  0.4922470000000 1.0
C      1  0.4862000000000  0.5246660000000  0.4268150000000 1.0
C      1  0.4929840000000  0.5930900000000  0.5284620000000 1.0
C      1  0.5361140000000  0.5903790000000  0.4949190000000 1.0
C      1  0.5383320000000  0.4363630000000  0.5392540000000 1.0
C      1  0.4753150000000  0.5317290000000  0.4922980000000 1.0
C      1  0.5684450000000  0.5367910000000  0.5335460000000 1.0
C      1  0.4883800000000  0.4188330000000  0.5342740000000 1.0
C      1  0.4228490000000  0.5418820000000  0.4868250000000 1.0
C      1  0.4445360000000  0.4299690000000  0.5580090000000 1.0
C      1  0.4041250000000  0.4793450000000  0.4299310000000 1.0
C      1  0.4394010000000  0.5083810000000  0.5534600000000 1.0
C      1  0.4197560000000  0.4627590000000  0.4464410000000 1.0
C      1  0.5254060000000  0.5053430000000  0.4666470000000 1.0
C      1  0.5251870000000  0.5689460000000  0.4766260000000 1.0
C      1  0.4668940000000  0.5811610000000  0.5356230000000 1.0
C      1  0.5268270000000  0.4127720000000  0.4457950000000 1.0
C      1  0.4926710000000  0.5060300000000  0.3821040000000 1.0
C      1  0.5100240000000  0.4344350000000  0.5495460000000 1.0
C      1  0.5400240000000  0.5468330000000  0.5952000000000 1.0
C      1  0.5239270000000  0.4576460000000  0.5042580000000 1.0
C      1  0.4408950000000  0.4586890000000  0.4646230000000 1.0
C      1  0.4658530000000  0.5454520000000  0.4233930000000 1.0
C      1  0.4207500000000  0.5310160000000  0.4314770000000 1.0
C      1  0.4976680000000  0.5405360000000  0.5384900000000 1.0
C      1  0.4956850000000  0.4907320000000  0.5264720000000 1.0
C      1  0.4858820000000  0.4792670000000  0.5523840000000 1.0
C      1  0.5362420000000  0.4636720000000  0.4804420000000 1.0
C      1  0.5969590000000  0.5089560000000  0.4622040000000 1.0
C      1  0.5081810000000  0.3926370000000  0.4898940000000 1.0
C      1  0.5641550000000  0.5600830000000  0.5175150000000 1.0
C      1  0.5497040000000  0.5602020000000  0.4632160000000 1.0
C      1  0.5207370000000  0.5886490000000  0.5397780000000 1.0
C      1  0.5174760000000  0.5448940000000  0.4940900000000 1.0
C      1  0.5208370000000  0.4734760000000  0.5841980000000 1.0
C      1  0.4509810000000  0.4761130000000  0.5249100000000 1.0
C      1  0.4918160000000  0.4623960000000  0.4595260000000 1.0
C      1  0.5221700000000  0.4846590000000  0.4149340000000 1.0
C      1  0.4554790000000  0.5755100000000  0.4852580000000 1.0
C      1  0.5628780000000  0.4249090000000  0.4948990000000 1.0
C      1  0.5386850000000  0.4631610000000  0.5277900000000 1.0
C      1  0.5838010000000  0.4341240000000  0.5680050000000 1.0
C      1  0.4475300000000  0.4281710000000  0.5070090000000 1.0
C      1  0.4828300000000  0.5190360000000  0.4542340000000 1.0
C      1  0.5826010000000  0.5321980000000  0.4679310000000 1.0
C      1  0.4151490000000  0.4998560000000  0.5096600000000 1.0
C      1  0.4095560000000  0.5163390000000  0.4863920000000 1.0
C      1  0.5588090000000  0.4469930000000  0.4747800000000 1.0
C      1  0.5456640000000  0.4615540000000  0.5905710000000 1.0
C      1  0.5203080000000  0.5019400000000  0.5167660000000 1.0
C      1  0.5241020000000  0.5428940000000  0.5457030000000 1.0
C      1  0.5545740000000  0.4001570000000  0.4830670000000 1.0
C      1  0.4319920000000  0.5460060000000  0.5157680000000 1.0
C      1  0.4571200000000  0.5835880000000  0.5616910000000 1.0
C      1  0.4654950000000  0.4729380000000  0.4580910000000 1.0
C      1  0.5913570000000  0.4874710000000  0.4467100000000 1.0
C      1  0.5437550000000  0.4910550000000  0.5301940000000 1.0
C      1  0.5006730000000  0.5051970000000  0.4092930000000 1.0
C      1  0.5246130000000  0.5171890000000  0.4923190000000 1.0
C      1  0.4394640000000  0.5575470000000  0.4678640000000 1.0
C      1  0.4503520000000  0.5690910000000  0.5145840000000 1.0
C      1  0.5031040000000  0.4601030000000  0.5649990000000 1.0
END
