TITL C-599892-9790-1264 -345731.909056382 125000 -970.20786525916 0 0 160 (C1) n - 1
REM
REM in /home/nfs/bkarasulu/CARBON/AIRSS/Generating-Clusters/TERSOFF/Only-C1/FIRE-HFTN
REM
REM
REM
REM
REM
REM ./C.cell (11c1c37f851c82e70ff6c80c92926a4b)
REM AIRSS Version 0.9.1 bugfix July 2018 build 013d7b7c2542+ Fri, 06 Jul 2018 19:26:36 +0100
REM compiler GCC version 9.2.1 20190827 (Red Hat 9.2.1-1)
REM options -cpp -mtune=generic -march=x86-64 -g -O0 -fpre-include=/usr/include/finclude/math-vector-fortran.h
REM seed -609919487 -1096791920 -1253465377 -561779372 2103958103 1419654845 -1530317561 535521200 534247703 1695014918 -836523372 -210673715 -1140423290 774550168 1996586273 546024408 1540646631 2126795517 867658268 127978784 1917751391 -1177167116 -883811436 243178359 709478540 1513058808 -1107809462 -2118673593 1490222272 1689660148 1998267150 1666299581 -2100180862
REM
CELL 1.54180   50.00000   50.00000   50.00000   90.00000   90.00000   90.00000
LATT -1
SFAC C  
C      1  0.5916900000000  0.4580320000000  0.4462140000000 1.0
C      1  0.5425760000000  0.5117730000000  0.4641600000000 1.0
C      1  0.5165060000000  0.4886210000000  0.5790700000000 1.0
C      1  0.4169250000000  0.6098560000000  0.4533490000000 1.0
C      1  0.4918460000000  0.4158710000000  0.5310120000000 1.0
C      1  0.4707380000000  0.3718430000000  0.4742310000000 1.0
C      1  0.4972880000000  0.6357710000000  0.4817520000000 1.0
C      1  0.5536140000000  0.4295020000000  0.5504290000000 1.0
C      1  0.4720340000000  0.4984510000000  0.5685300000000 1.0
C      1  0.4830630000000  0.5317490000000  0.4753370000000 1.0
C      1  0.4450310000000  0.5755200000000  0.4298260000000 1.0
C      1  0.6041330000000  0.4342720000000  0.5048230000000 1.0
C      1  0.5444830000000  0.5213660000000  0.5164060000000 1.0
C      1  0.4729230000000  0.4959140000000  0.6182150000000 1.0
C      1  0.4976670000000  0.5577630000000  0.4750570000000 1.0
C      1  0.4720170000000  0.5663400000000  0.4311760000000 1.0
C      1  0.5508820000000  0.4074440000000  0.4559980000000 1.0
C      1  0.4296450000000  0.3961760000000  0.4866790000000 1.0
C      1  0.4930300000000  0.4588660000000  0.4673890000000 1.0
C      1  0.4547150000000  0.4327120000000  0.5943050000000 1.0
C      1  0.5733310000000  0.4736840000000  0.5113410000000 1.0
C      1  0.5255740000000  0.6078360000000  0.5681680000000 1.0
C      1  0.4653330000000  0.4185270000000  0.4631870000000 1.0
C      1  0.4281580000000  0.4160720000000  0.5071510000000 1.0
C      1  0.4975330000000  0.5078650000000  0.5697040000000 1.0
C      1  0.5048730000000  0.4350350000000  0.5850520000000 1.0
C      1  0.4508260000000  0.5423310000000  0.5163070000000 1.0
C      1  0.5219140000000  0.3781300000000  0.4814480000000 1.0
C      1  0.5038790000000  0.3911210000000  0.5296200000000 1.0
C      1  0.3626810000000  0.5604280000000  0.4703540000000 1.0
C      1  0.5173340000000  0.4209650000000  0.4216680000000 1.0
C      1  0.5896700000000  0.5025400000000  0.4647130000000 1.0
C      1  0.5020340000000  0.5296310000000  0.5528960000000 1.0
C      1  0.5639500000000  0.4638010000000  0.4862210000000 1.0
C      1  0.4516590000000  0.4693760000000  0.4250830000000 1.0
C      1  0.5658880000000  0.5545830000000  0.5790900000000 1.0
C      1  0.5538710000000  0.4723010000000  0.5303850000000 1.0
C      1  0.5144120000000  0.5848800000000  0.4408430000000 1.0
C      1  0.5620230000000  0.4044890000000  0.4841800000000 1.0
C      1  0.6007210000000  0.5353330000000  0.5161560000000 1.0
C      1  0.5423550000000  0.5845850000000  0.4496530000000 1.0
C      1  0.3901580000000  0.4653630000000  0.5345860000000 1.0
C      1  0.4339520000000  0.4413580000000  0.5760430000000 1.0
C      1  0.4177470000000  0.4207630000000  0.5332180000000 1.0
C      1  0.4356920000000  0.4688780000000  0.5690440000000 1.0
C      1  0.5956020000000  0.5548080000000  0.5375590000000 1.0
C      1  0.5631060000000  0.4328570000000  0.4109250000000 1.0
C      1  0.4748010000000  0.4510770000000  0.4225230000000 1.0
C      1  0.5172730000000  0.5436500000000  0.6020880000000 1.0
C      1  0.4202070000000  0.4918370000000  0.5616420000000 1.0
C      1  0.5154100000000  0.5674190000000  0.4159300000000 1.0
C      1  0.4388790000000  0.5925310000000  0.4525100000000 1.0
C      1  0.4512300000000  0.4612510000000  0.5162860000000 1.0
C      1  0.5021010000000  0.5354920000000  0.5256470000000 1.0
C      1  0.5794850000000  0.5482830000000  0.4451700000000 1.0
C      1  0.5205060000000  0.6125470000000  0.5193600000000 1.0
C      1  0.5115640000000  0.4872590000000  0.5244670000000 1.0
C      1  0.4781810000000  0.4261800000000  0.5792590000000 1.0
C      1  0.4730640000000  0.4639080000000  0.5361020000000 1.0
C      1  0.3957200000000  0.6152030000000  0.4377330000000 1.0
C      1  0.6168340000000  0.4585910000000  0.5145420000000 1.0
C      1  0.4938900000000  0.4421300000000  0.4901600000000 1.0
C      1  0.4957770000000  0.3674940000000  0.4835410000000 1.0
C      1  0.4908110000000  0.5393780000000  0.6070910000000 1.0
C      1  0.4525640000000  0.5944400000000  0.5009090000000 1.0
C      1  0.5650630000000  0.4841880000000  0.5812410000000 1.0
C      1  0.5496520000000  0.5134320000000  0.4897720000000 1.0
C      1  0.5423550000000  0.5435320000000  0.5914800000000 1.0
C      1  0.4583390000000  0.5910970000000  0.4728670000000 1.0
C      1  0.5420270000000  0.3886870000000  0.5013100000000 1.0
C      1  0.4191850000000  0.4558680000000  0.4633310000000 1.0
C      1  0.5303080000000  0.4777210000000  0.3663350000000 1.0
C      1  0.5655930000000  0.4947330000000  0.3926660000000 1.0
C      1  0.4273720000000  0.5677540000000  0.4088150000000 1.0
C      1  0.4391790000000  0.5797370000000  0.5622680000000 1.0
C      1  0.4819750000000  0.5976900000000  0.5424820000000 1.0
C      1  0.4389750000000  0.4230600000000  0.5527020000000 1.0
C      1  0.5381730000000  0.4505760000000  0.5396010000000 1.0
C      1  0.5688480000000  0.4571270000000  0.5875390000000 1.0
C      1  0.5716160000000  0.4362120000000  0.5709300000000 1.0
C      1  0.5391730000000  0.4055550000000  0.5539000000000 1.0
C      1  0.5457710000000  0.4237280000000  0.4310110000000 1.0
C      1  0.4490420000000  0.4355470000000  0.5046120000000 1.0
C      1  0.5415350000000  0.4942450000000  0.5676830000000 1.0
C      1  0.4535140000000  0.5312030000000  0.4700210000000 1.0
C      1  0.4773300000000  0.4413930000000  0.4491810000000 1.0
C      1  0.4285190000000  0.4788520000000  0.5098340000000 1.0
C      1  0.4290660000000  0.5838520000000  0.5167950000000 1.0
C      1  0.5405240000000  0.4456320000000  0.4926770000000 1.0
C      1  0.4896240000000  0.5249330000000  0.4088090000000 1.0
C      1  0.4404420000000  0.5117960000000  0.4530950000000 1.0
C      1  0.5462230000000  0.6062850000000  0.5102030000000 1.0
C      1  0.5207400000000  0.5600520000000  0.4919710000000 1.0
C      1  0.4874070000000  0.5780820000000  0.4557600000000 1.0
C      1  0.5099610000000  0.3958880000000  0.4342470000000 1.0
C      1  0.5858920000000  0.4167670000000  0.4945710000000 1.0
C      1  0.5427210000000  0.5595650000000  0.4119810000000 1.0
C      1  0.5899440000000  0.5314760000000  0.4659990000000 1.0
C      1  0.5996060000000  0.4816260000000  0.5183500000000 1.0
C      1  0.6436440000000  0.4595840000000  0.5197700000000 1.0
C      1  0.4136190000000  0.5392880000000  0.5477560000000 1.0
C      1  0.5853290000000  0.5428670000000  0.5614390000000 1.0
C      1  0.4290000000000  0.4568690000000  0.4378500000000 1.0
C      1  0.4523930000000  0.3929480000000  0.4686680000000 1.0
C      1  0.4707350000000  0.4272390000000  0.4901280000000 1.0
C      1  0.5096540000000  0.4944450000000  0.3698550000000 1.0
C      1  0.4741420000000  0.6065420000000  0.5154760000000 1.0
C      1  0.4973170000000  0.6190120000000  0.5031400000000 1.0
C      1  0.4379360000000  0.5415960000000  0.4913130000000 1.0
C      1  0.5228090000000  0.4129980000000  0.5773640000000 1.0
C      1  0.5631170000000  0.4475350000000  0.3885280000000 1.0
C      1  0.5275400000000  0.3888040000000  0.4555580000000 1.0
C      1  0.4553600000000  0.4974890000000  0.4323170000000 1.0
C      1  0.5548730000000  0.4725920000000  0.3790680000000 1.0
C      1  0.4188490000000  0.4775840000000  0.4820780000000 1.0
C      1  0.5097390000000  0.6051760000000  0.5455730000000 1.0
C      1  0.5669600000000  0.5827260000000  0.5819460000000 1.0
C      1  0.3870280000000  0.5554500000000  0.4782170000000 1.0
C      1  0.5825830000000  0.5721980000000  0.4920050000000 1.0
C      1  0.4618470000000  0.4749020000000  0.5597140000000 1.0
C      1  0.4674070000000  0.5223250000000  0.6078330000000 1.0
C      1  0.5802040000000  0.4748910000000  0.4646020000000 1.0
C      1  0.5669430000000  0.5921860000000  0.5007070000000 1.0
C      1  0.4320410000000  0.5451370000000  0.3941080000000 1.0
C      1  0.5448830000000  0.5091320000000  0.4378630000000 1.0
C      1  0.4045030000000  0.5832210000000  0.4031730000000 1.0
C      1  0.5065800000000  0.4643670000000  0.5933680000000 1.0
C      1  0.5947590000000  0.5154350000000  0.5580430000000 1.0
C      1  0.3955460000000  0.4386680000000  0.5354620000000 1.0
C      1  0.4647630000000  0.5534360000000  0.5364200000000 1.0
C      1  0.4088470000000  0.4896860000000  0.5323050000000 1.0
C      1  0.4893170000000  0.5214320000000  0.5035640000000 1.0
C      1  0.5324790000000  0.3909140000000  0.5291030000000 1.0
C      1  0.5933650000000  0.5455500000000  0.4907970000000 1.0
C      1  0.4981280000000  0.4391780000000  0.4100090000000 1.0
C      1  0.6018620000000  0.5085950000000  0.5296130000000 1.0
C      1  0.3900870000000  0.6028880000000  0.4144280000000 1.0
C      1  0.4932820000000  0.5092020000000  0.4566260000000 1.0
C      1  0.4116390000000  0.5495680000000  0.4861230000000 1.0
C      1  0.5146850000000  0.4348430000000  0.5052560000000 1.0
C      1  0.5579900000000  0.5071360000000  0.4149060000000 1.0
C      1  0.5888330000000  0.4983580000000  0.5787700000000 1.0
C      1  0.4662270000000  0.5769030000000  0.5530240000000 1.0
C      1  0.5393130000000  0.4975010000000  0.5363700000000 1.0
C      1  0.4179560000000  0.5009540000000  0.4660900000000 1.0
C      1  0.5490410000000  0.6023950000000  0.5795120000000 1.0
C      1  0.5036170000000  0.4630950000000  0.5354480000000 1.0
C      1  0.4701270000000  0.4192430000000  0.5510840000000 1.0
C      1  0.4206350000000  0.5683030000000  0.5424160000000 1.0
C      1  0.4970130000000  0.5126670000000  0.3847110000000 1.0
C      1  0.5594010000000  0.5653330000000  0.4351720000000 1.0
C      1  0.4883300000000  0.4738070000000  0.6140250000000 1.0
C      1  0.4016080000000  0.5195330000000  0.5288550000000 1.0
C      1  0.4817080000000  0.5084480000000  0.4305860000000 1.0
C      1  0.4992280000000  0.4949780000000  0.5008580000000 1.0
C      1  0.5271000000000  0.5448480000000  0.5154620000000 1.0
C      1  0.4978780000000  0.4859410000000  0.4732400000000 1.0
C      1  0.4907650000000  0.5529650000000  0.4135590000000 1.0
C      1  0.4250710000000  0.5206380000000  0.5695900000000 1.0
C      1  0.4432880000000  0.5265110000000  0.5916070000000 1.0
END
