TITL C-599892-9790-236 3.27635981536121e-05 125000 -550.648316700706 0 0 89 (C1) n - 1
REM
REM in /home/nfs/bkarasulu/CARBON/AIRSS/Generating-Clusters/TERSOFF/Only-C1/FIRE-HFTN
REM
REM
REM
REM
REM
REM ./C.cell (11c1c37f851c82e70ff6c80c92926a4b)
REM AIRSS Version 0.9.1 bugfix July 2018 build 013d7b7c2542+ Fri, 06 Jul 2018 19:26:36 +0100
REM compiler GCC version 9.2.1 20190827 (Red Hat 9.2.1-1)
REM options -cpp -mtune=generic -march=x86-64 -g -O0 -fpre-include=/usr/include/finclude/math-vector-fortran.h
REM seed -1620910405 -531813161 1949446460 -1121465687 1698771481 -208985180 -637649576 -868811683 913179606 409722895 -1231200007 -2096721159 -659463549 -556118778 -1376003750 551382318 1987345310 -1553871709 -579566639 791555804 2117133362 1114145467 -18108036 1318292553 472300126 865068055 1698575027 -1568564267 361545407 946179303 524104916 -896213882 -339350885
REM
CELL 1.54180   50.00000   50.00000   50.00000   90.00000   90.00000   90.00000
LATT -1
SFAC C  
C      1  0.5655200000000  0.5298480000000  0.4285620000000 1.0
C      1  0.5652340000000  0.5180290000000  0.4944100000000 1.0
C      1  0.5042580000000  0.4336460000000  0.4272320000000 1.0
C      1  0.4751560000000  0.5072950000000  0.4282350000000 1.0
C      1  0.4466480000000  0.5290220000000  0.5668380000000 1.0
C      1  0.4713750000000  0.5749840000000  0.5115580000000 1.0
C      1  0.4283110000000  0.4634870000000  0.4953280000000 1.0
C      1  0.5169230000000  0.4221260000000  0.4700520000000 1.0
C      1  0.5512220000000  0.4411190000000  0.5569870000000 1.0
C      1  0.4370380000000  0.4905000000000  0.5001600000000 1.0
C      1  0.4774140000000  0.5574680000000  0.4407690000000 1.0
C      1  0.5484180000000  0.4602690000000  0.4257760000000 1.0
C      1  0.5703260000000  0.5079050000000  0.5604240000000 1.0
C      1  0.5096730000000  0.5139100000000  0.5421840000000 1.0
C      1  0.5105270000000  0.5474240000000  0.5805460000000 1.0
C      1  0.5533970000000  0.5320940000000  0.5589770000000 1.0
C      1  0.5566770000000  0.5548760000000  0.4299230000000 1.0
C      1  0.5751150000000  0.4393000000000  0.5411920000000 1.0
C      1  0.5246030000000  0.6207020000000  0.4449420000000 1.0
C      1  0.4327320000000  0.4985980000000  0.4068780000000 1.0
C      1  0.4656600000000  0.5287170000000  0.5880180000000 1.0
C      1  0.4808830000000  0.5756330000000  0.4627440000000 1.0
C      1  0.4954620000000  0.5323740000000  0.5206700000000 1.0
C      1  0.4230940000000  0.4575240000000  0.4680390000000 1.0
C      1  0.5248730000000  0.5313370000000  0.5626220000000 1.0
C      1  0.4737410000000  0.5025430000000  0.5954490000000 1.0
C      1  0.4503620000000  0.5437460000000  0.5427540000000 1.0
C      1  0.4644720000000  0.4944570000000  0.5053730000000 1.0
C      1  0.5904600000000  0.4568970000000  0.5272080000000 1.0
C      1  0.4525260000000  0.4638810000000  0.4339830000000 1.0
C      1  0.4393100000000  0.4421170000000  0.5099740000000 1.0
C      1  0.5780660000000  0.4911430000000  0.4897000000000 1.0
C      1  0.5560530000000  0.4490250000000  0.4812720000000 1.0
C      1  0.4217260000000  0.4817500000000  0.5631200000000 1.0
C      1  0.5227960000000  0.4991080000000  0.4798400000000 1.0
C      1  0.4569800000000  0.5109440000000  0.4065120000000 1.0
C      1  0.4579980000000  0.4195780000000  0.5443920000000 1.0
C      1  0.5082040000000  0.5818300000000  0.4689770000000 1.0
C      1  0.5637810000000  0.5757870000000  0.5351690000000 1.0
C      1  0.4281540000000  0.5074750000000  0.5664170000000 1.0
C      1  0.4941650000000  0.4887400000000  0.5516090000000 1.0
C      1  0.5368910000000  0.5215780000000  0.4897190000000 1.0
C      1  0.4765500000000  0.4798390000000  0.4383680000000 1.0
C      1  0.4073520000000  0.5034210000000  0.4649380000000 1.0
C      1  0.4282630000000  0.4790090000000  0.4265250000000 1.0
C      1  0.4244900000000  0.4564720000000  0.5549170000000 1.0
C      1  0.4215520000000  0.5119940000000  0.4880500000000 1.0
C      1  0.5194080000000  0.5678220000000  0.4907340000000 1.0
C      1  0.5273340000000  0.4451850000000  0.4184430000000 1.0
C      1  0.5625930000000  0.6017560000000  0.5333550000000 1.0
C      1  0.4789820000000  0.5295650000000  0.4453560000000 1.0
C      1  0.5893300000000  0.4832890000000  0.5166950000000 1.0
C      1  0.4856220000000  0.4857350000000  0.5781030000000 1.0
C      1  0.5640390000000  0.5482350000000  0.5369880000000 1.0
C      1  0.5030750000000  0.4790460000000  0.4818460000000 1.0
C      1  0.4942910000000  0.4675100000000  0.4576690000000 1.0
C      1  0.4127590000000  0.4792290000000  0.4510250000000 1.0
C      1  0.5691360000000  0.4717970000000  0.4696800000000 1.0
C      1  0.5854080000000  0.5056210000000  0.5350620000000 1.0
C      1  0.5435730000000  0.4265770000000  0.4702580000000 1.0
C      1  0.4372830000000  0.5596120000000  0.4811980000000 1.0
C      1  0.4460740000000  0.4445260000000  0.4550960000000 1.0
C      1  0.5635760000000  0.4779250000000  0.4421340000000 1.0
C      1  0.4803990000000  0.5241950000000  0.4726170000000 1.0
C      1  0.4775980000000  0.5188290000000  0.4996510000000 1.0
C      1  0.4751600000000  0.5535280000000  0.5305610000000 1.0
C      1  0.5252930000000  0.4329890000000  0.5476670000000 1.0
C      1  0.5688130000000  0.5037760000000  0.4325440000000 1.0
C      1  0.5254590000000  0.5938740000000  0.4499260000000 1.0
C      1  0.4255440000000  0.5388880000000  0.4968680000000 1.0
C      1  0.5533070000000  0.4613770000000  0.5768070000000 1.0
C      1  0.5324720000000  0.4992080000000  0.5293270000000 1.0
C      1  0.5434960000000  0.5769700000000  0.4365850000000 1.0
C      1  0.4642060000000  0.4291020000000  0.4989920000000 1.0
C      1  0.5200580000000  0.5421500000000  0.5019530000000 1.0
C      1  0.5761970000000  0.5294450000000  0.5189270000000 1.0
C      1  0.4674160000000  0.4312360000000  0.4698080000000 1.0
C      1  0.5460260000000  0.4549070000000  0.5065660000000 1.0
C      1  0.4946710000000  0.4364870000000  0.4564350000000 1.0
C      1  0.4282550000000  0.5431530000000  0.5247490000000 1.0
C      1  0.5406700000000  0.4752680000000  0.5223460000000 1.0
C      1  0.4939250000000  0.4674940000000  0.5316650000000 1.0
C      1  0.5637800000000  0.4861780000000  0.5769440000000 1.0
C      1  0.4864100000000  0.4759890000000  0.5054910000000 1.0
C      1  0.4618540000000  0.5739800000000  0.4844370000000 1.0
C      1  0.4360940000000  0.4372820000000  0.5383670000000 1.0
C      1  0.5007700000000  0.4396830000000  0.5345930000000 1.0
C      1  0.4855870000000  0.5483790000000  0.5904900000000 1.0
C      1  0.4796250000000  0.4226810000000  0.5247090000000 1.0
END
