TITL C-599897-7526-1477 -6.30657348291394e-05 125000 -437.49587174899 0 0 75 (C1) n - 1
REM
REM in /home/nfs/bkarasulu/CARBON/AIRSS/Generating-Clusters/TERSOFF/Only-C1/FIRE-HFTN
REM
REM
REM
REM
REM
REM ./C.cell (11c1c37f851c82e70ff6c80c92926a4b)
REM AIRSS Version 0.9.1 bugfix July 2018 build 013d7b7c2542+ Fri, 06 Jul 2018 19:26:36 +0100
REM compiler GCC version 9.2.1 20190827 (Red Hat 9.2.1-1)
REM options -cpp -mtune=generic -march=x86-64 -g -O0 -fpre-include=/usr/include/finclude/math-vector-fortran.h
REM seed -988200553 572510133 1151933496 -795879836 1191203392 -1816837375 -1989881409 -668382768 -516038649 -1799520072 583209626 -632917385 90606245 -443749159 -1151599611 272032816 -769127440 -1125864140 -1014745693 336434346 1560037029 -195956769 -181874392 531266748 -2076465705 -1799833949 -252635443 -662069312 1153707318 796410758 1080860454 606432428 80165534
REM
CELL 1.54180   50.00000   50.00000   50.00000   90.00000   90.00000   90.00000
LATT -1
SFAC C  
C      1  0.4719630000000  0.4208820000000  0.4934090000000 1.0
C      1  0.4436470000000  0.5349980000000  0.5425280000000 1.0
C      1  0.4547680000000  0.5760770000000  0.4887180000000 1.0
C      1  0.5780530000000  0.5155900000000  0.5026700000000 1.0
C      1  0.5664130000000  0.5323810000000  0.5557870000000 1.0
C      1  0.4913290000000  0.5399070000000  0.5618010000000 1.0
C      1  0.5767740000000  0.5074920000000  0.5550740000000 1.0
C      1  0.5279860000000  0.4892060000000  0.5314810000000 1.0
C      1  0.5026760000000  0.4766520000000  0.5291260000000 1.0
C      1  0.4563410000000  0.3800650000000  0.5207000000000 1.0
C      1  0.4886680000000  0.4711240000000  0.4324260000000 1.0
C      1  0.4735030000000  0.4965640000000  0.4276480000000 1.0
C      1  0.5476980000000  0.4457910000000  0.5078060000000 1.0
C      1  0.5186050000000  0.4741910000000  0.4294750000000 1.0
C      1  0.4703630000000  0.4334300000000  0.4677200000000 1.0
C      1  0.5003080000000  0.4575050000000  0.5081960000000 1.0
C      1  0.5141760000000  0.5235720000000  0.4455830000000 1.0
C      1  0.4599020000000  0.4880730000000  0.4902940000000 1.0
C      1  0.5065970000000  0.4227820000000  0.5352690000000 1.0
C      1  0.4772060000000  0.4409220000000  0.5708380000000 1.0
C      1  0.4702420000000  0.5500140000000  0.4441220000000 1.0
C      1  0.5320170000000  0.4301590000000  0.4458260000000 1.0
C      1  0.5378730000000  0.5399230000000  0.4509750000000 1.0
C      1  0.5317380000000  0.5119620000000  0.5175800000000 1.0
C      1  0.4714860000000  0.5318770000000  0.5806460000000 1.0
C      1  0.5843730000000  0.5287480000000  0.4521640000000 1.0
C      1  0.4823030000000  0.5374040000000  0.4873580000000 1.0
C      1  0.4768120000000  0.4494560000000  0.4468690000000 1.0
C      1  0.4872080000000  0.5651230000000  0.5474780000000 1.0
C      1  0.5533080000000  0.5527990000000  0.5441420000000 1.0
C      1  0.4913210000000  0.4188150000000  0.5594200000000 1.0
C      1  0.4653160000000  0.3778160000000  0.5459030000000 1.0
C      1  0.4325270000000  0.5219590000000  0.5188850000000 1.0
C      1  0.5694330000000  0.4627860000000  0.4941360000000 1.0
C      1  0.4174750000000  0.5300840000000  0.4510550000000 1.0
C      1  0.5910610000000  0.5469320000000  0.4715460000000 1.0
C      1  0.4514020000000  0.5167280000000  0.5657480000000 1.0
C      1  0.5208040000000  0.5027410000000  0.4269750000000 1.0
C      1  0.5371920000000  0.5642010000000  0.5231440000000 1.0
C      1  0.5682100000000  0.4601470000000  0.4619490000000 1.0
C      1  0.4821550000000  0.4935680000000  0.4759610000000 1.0
C      1  0.5433360000000  0.5012390000000  0.4729240000000 1.0
C      1  0.4427350000000  0.4974460000000  0.5087550000000 1.0
C      1  0.5743690000000  0.5437970000000  0.4948800000000 1.0
C      1  0.4307560000000  0.5382410000000  0.4735560000000 1.0
C      1  0.4911680000000  0.5700370000000  0.4433760000000 1.0
C      1  0.4626290000000  0.4637530000000  0.5709570000000 1.0
C      1  0.4584080000000  0.5623690000000  0.5381770000000 1.0
C      1  0.5218310000000  0.4284180000000  0.4710560000000 1.0
C      1  0.4802090000000  0.3929800000000  0.5624070000000 1.0
C      1  0.4182300000000  0.5368660000000  0.4993350000000 1.0
C      1  0.4841590000000  0.4937890000000  0.5416350000000 1.0
C      1  0.4912960000000  0.5213410000000  0.5391610000000 1.0
C      1  0.4997790000000  0.5180610000000  0.4728750000000 1.0
C      1  0.4890990000000  0.4318980000000  0.5134410000000 1.0
C      1  0.4688620000000  0.5238420000000  0.4304620000000 1.0
C      1  0.4585020000000  0.3971570000000  0.5001470000000 1.0
C      1  0.5122260000000  0.5774420000000  0.4594330000000 1.0
C      1  0.5107730000000  0.5731750000000  0.5320300000000 1.0
C      1  0.5256150000000  0.5164030000000  0.4908130000000 1.0
C      1  0.4858690000000  0.5339040000000  0.5146250000000 1.0
C      1  0.5484710000000  0.5596670000000  0.4958570000000 1.0
C      1  0.5231870000000  0.4524090000000  0.4894160000000 1.0
C      1  0.5580010000000  0.5189630000000  0.4548280000000 1.0
C      1  0.5818720000000  0.4867560000000  0.5382130000000 1.0
C      1  0.4516940000000  0.5784600000000  0.5155420000000 1.0
C      1  0.4621040000000  0.4896130000000  0.5595650000000 1.0
C      1  0.5352040000000  0.4292780000000  0.5294040000000 1.0
C      1  0.3713580000000  0.5611520000000  0.5100050000000 1.0
C      1  0.5787280000000  0.4870410000000  0.5095500000000 1.0
C      1  0.5344730000000  0.5622320000000  0.4693530000000 1.0
C      1  0.5301380000000  0.4764390000000  0.4744130000000 1.0
C      1  0.4585270000000  0.5503940000000  0.4724800000000 1.0
C      1  0.3937760000000  0.5489730000000  0.5046990000000 1.0
C      1  0.5413840000000  0.4560170000000  0.4382000000000 1.0
END
