TITL C-599896-8500-724 0.635494189561984 125000 -667.596638638004 0 0 112 (C1) n - 1
REM
REM in /home/nfs/bkarasulu/CARBON/AIRSS/Generating-Clusters/TERSOFF/Only-C1/FIRE-HFTN
REM
REM
REM
REM
REM
REM ./C.cell (11c1c37f851c82e70ff6c80c92926a4b)
REM AIRSS Version 0.9.1 bugfix July 2018 build 013d7b7c2542+ Fri, 06 Jul 2018 19:26:36 +0100
REM compiler GCC version 9.2.1 20190827 (Red Hat 9.2.1-1)
REM options -cpp -mtune=generic -march=x86-64 -g -O0 -fpre-include=/usr/include/finclude/math-vector-fortran.h
REM seed 144677027 -511137803 -508842209 674659776 901368307 -2113706452 2075429391 677439728 108659778 761893331 81123319 1525161339 764426697 -2047343001 -1029484576 -845866499 -1916395946 -1651262288 -1886600997 -295214540 -138740777 339710427 1737997600 -1281909967 732804273 -1469727889 -976601734 2024076192 1791296579 -200150394 -1997481002 -956761354 -1489928300
REM
CELL 1.54180   50.00000   50.00000   50.00000   90.00000   90.00000   90.00000
LATT -1
SFAC C  
C      1  0.4993380000000  0.4341540000000  0.4170240000000 1.0
C      1  0.4461090000000  0.5711790000000  0.4954800000000 1.0
C      1  0.5133370000000  0.4645530000000  0.5492800000000 1.0
C      1  0.5309340000000  0.4934430000000  0.4446360000000 1.0
C      1  0.4603550000000  0.5795730000000  0.6381980000000 1.0
C      1  0.5052840000000  0.5450510000000  0.5084420000000 1.0
C      1  0.4729820000000  0.5115140000000  0.5241280000000 1.0
C      1  0.5735650000000  0.4904910000000  0.5703670000000 1.0
C      1  0.5049800000000  0.5744750000000  0.6173570000000 1.0
C      1  0.5476110000000  0.4304970000000  0.4250620000000 1.0
C      1  0.5309480000000  0.4130050000000  0.5093060000000 1.0
C      1  0.4357850000000  0.4440470000000  0.5803490000000 1.0
C      1  0.4656670000000  0.5638060000000  0.5422390000000 1.0
C      1  0.4671740000000  0.5696480000000  0.5901770000000 1.0
C      1  0.5813250000000  0.4897120000000  0.5000240000000 1.0
C      1  0.4766780000000  0.5748100000000  0.6163500000000 1.0
C      1  0.5294480000000  0.5561240000000  0.5490150000000 1.0
C      1  0.4189050000000  0.4988180000000  0.4109880000000 1.0
C      1  0.5571390000000  0.5264750000000  0.4289730000000 1.0
C      1  0.5010440000000  0.5482160000000  0.4811050000000 1.0
C      1  0.4595710000000  0.5072790000000  0.4361970000000 1.0
C      1  0.5229910000000  0.5037130000000  0.5113110000000 1.0
C      1  0.4454290000000  0.4515170000000  0.4851340000000 1.0
C      1  0.5547440000000  0.5405230000000  0.5517310000000 1.0
C      1  0.5825450000000  0.4790270000000  0.4269120000000 1.0
C      1  0.5437060000000  0.4993110000000  0.5289240000000 1.0
C      1  0.4813180000000  0.5649900000000  0.5657370000000 1.0
C      1  0.4566170000000  0.4313820000000  0.5044130000000 1.0
C      1  0.4957340000000  0.5833960000000  0.4507700000000 1.0
C      1  0.4779860000000  0.3932600000000  0.4828760000000 1.0
C      1  0.5731750000000  0.5513670000000  0.5020470000000 1.0
C      1  0.4785830000000  0.4535460000000  0.4147980000000 1.0
C      1  0.6034940000000  0.4545460000000  0.4661970000000 1.0
C      1  0.5557670000000  0.4272620000000  0.5211100000000 1.0
C      1  0.4793340000000  0.4132190000000  0.5029430000000 1.0
C      1  0.4768890000000  0.4263450000000  0.5605960000000 1.0
C      1  0.5237850000000  0.4859900000000  0.4897870000000 1.0
C      1  0.4441410000000  0.5843130000000  0.6599570000000 1.0
C      1  0.5570440000000  0.5167890000000  0.5712710000000 1.0
C      1  0.4543710000000  0.5276800000000  0.5100400000000 1.0
C      1  0.5639090000000  0.4360620000000  0.4471020000000 1.0
C      1  0.5675990000000  0.5390590000000  0.4539420000000 1.0
C      1  0.4829530000000  0.5621560000000  0.4647620000000 1.0
C      1  0.4263100000000  0.5693810000000  0.4141600000000 1.0
C      1  0.4517370000000  0.5897950000000  0.6878230000000 1.0
C      1  0.4069480000000  0.4494850000000  0.4525660000000 1.0
C      1  0.5000570000000  0.4483280000000  0.4730740000000 1.0
C      1  0.5428990000000  0.4896340000000  0.4695560000000 1.0
C      1  0.5043330000000  0.5235970000000  0.4185390000000 1.0
C      1  0.4530070000000  0.5265730000000  0.4807180000000 1.0
C      1  0.5706430000000  0.4964950000000  0.4751820000000 1.0
C      1  0.4835530000000  0.5035700000000  0.4210110000000 1.0
C      1  0.5731400000000  0.4322610000000  0.4974380000000 1.0
C      1  0.4565110000000  0.5031350000000  0.4646430000000 1.0
C      1  0.5379270000000  0.4796560000000  0.5469710000000 1.0
C      1  0.3917460000000  0.4475200000000  0.4309370000000 1.0
C      1  0.4188400000000  0.5941290000000  0.4107940000000 1.0
C      1  0.5850700000000  0.5181050000000  0.4635220000000 1.0
C      1  0.5609350000000  0.4662480000000  0.5578440000000 1.0
C      1  0.5285630000000  0.4583860000000  0.3891960000000 1.0
C      1  0.5006410000000  0.4611430000000  0.5217460000000 1.0
C      1  0.4562970000000  0.5554750000000  0.4728280000000 1.0
C      1  0.5073380000000  0.4637100000000  0.4942210000000 1.0
C      1  0.4289130000000  0.5934590000000  0.7035850000000 1.0
C      1  0.5239550000000  0.4362020000000  0.5560220000000 1.0
C      1  0.6122760000000  0.5199470000000  0.4624240000000 1.0
C      1  0.4517740000000  0.5554030000000  0.5192240000000 1.0
C      1  0.5980260000000  0.4441390000000  0.4909560000000 1.0
C      1  0.5225920000000  0.3891770000000  0.4658690000000 1.0
C      1  0.4105870000000  0.4270080000000  0.5219760000000 1.0
C      1  0.3764190000000  0.4443260000000  0.4100910000000 1.0
C      1  0.5234690000000  0.5862260000000  0.4572430000000 1.0
C      1  0.5720040000000  0.5460020000000  0.5288720000000 1.0
C      1  0.4337660000000  0.5952990000000  0.4941950000000 1.0
C      1  0.4597440000000  0.4481990000000  0.5678660000000 1.0
C      1  0.5003010000000  0.5461060000000  0.4026210000000 1.0
C      1  0.4625860000000  0.4931730000000  0.5430560000000 1.0
C      1  0.4879000000000  0.4794400000000  0.4063910000000 1.0
C      1  0.4554650000000  0.4768180000000  0.4760740000000 1.0
C      1  0.5015800000000  0.4195080000000  0.5479910000000 1.0
C      1  0.5197910000000  0.5692850000000  0.5952800000000 1.0
C      1  0.5325940000000  0.5122210000000  0.5865180000000 1.0
C      1  0.4329360000000  0.5440440000000  0.4181550000000 1.0
C      1  0.4827290000000  0.6004470000000  0.4339930000000 1.0
C      1  0.4969580000000  0.5640620000000  0.3840280000000 1.0
C      1  0.4006140000000  0.4382970000000  0.4995010000000 1.0
C      1  0.5707630000000  0.4999400000000  0.5220840000000 1.0
C      1  0.5096230000000  0.4779260000000  0.3878170000000 1.0
C      1  0.5105150000000  0.5629950000000  0.5690930000000 1.0
C      1  0.4173250000000  0.4469600000000  0.4782530000000 1.0
C      1  0.5370950000000  0.4074490000000  0.4811360000000 1.0
C      1  0.4063970000000  0.5906560000000  0.6874180000000 1.0
C      1  0.5002980000000  0.5188230000000  0.5179450000000 1.0
C      1  0.4697110000000  0.4747730000000  0.5632960000000 1.0
C      1  0.5588730000000  0.4239390000000  0.4728070000000 1.0
C      1  0.5415750000000  0.5781860000000  0.4775000000000 1.0
C      1  0.5534010000000  0.4380720000000  0.5485130000000 1.0
C      1  0.4373710000000  0.4240020000000  0.5243890000000 1.0
C      1  0.5219510000000  0.5633990000000  0.5221320000000 1.0
C      1  0.5616430000000  0.5576520000000  0.4755780000000 1.0
C      1  0.5296810000000  0.5173700000000  0.4293860000000 1.0
C      1  0.4523260000000  0.4469300000000  0.4173270000000 1.0
C      1  0.5334550000000  0.5828450000000  0.5048660000000 1.0
C      1  0.4366990000000  0.5165760000000  0.4217510000000 1.0
C      1  0.5847020000000  0.4563390000000  0.4446260000000 1.0
C      1  0.5745900000000  0.5043120000000  0.4195000000000 1.0
C      1  0.4969690000000  0.4777410000000  0.5702320000000 1.0
C      1  0.5263200000000  0.4378050000000  0.4087500000000 1.0
C      1  0.5102150000000  0.4970270000000  0.5860630000000 1.0
C      1  0.4147860000000  0.5851950000000  0.6612920000000 1.0
C      1  0.5034340000000  0.4125700000000  0.5199880000000 1.0
C      1  0.4965150000000  0.3827850000000  0.4665020000000 1.0
END
