TITL C-599891-72-1030 -1179.09992484531 125000 -1045.87295806092 0 0 173 (C1) n - 1
REM
REM in /home/nfs/bkarasulu/CARBON/AIRSS/Generating-Clusters/TERSOFF/Only-C1/FIRE-HFTN
REM
REM
REM
REM
REM
REM ./C.cell (11c1c37f851c82e70ff6c80c92926a4b)
REM AIRSS Version 0.9.1 bugfix July 2018 build 013d7b7c2542+ Fri, 06 Jul 2018 19:26:36 +0100
REM compiler GCC version 9.2.1 20190827 (Red Hat 9.2.1-1)
REM options -cpp -mtune=generic -march=x86-64 -g -O0 -fpre-include=/usr/include/finclude/math-vector-fortran.h
REM seed -564079077 -1828593819 -1363003898 1117023906 -20902207 365242366 1573620670 -1127908139 -850312581 59856579 475350035 -1189353937 -1623410372 -288862826 -1259690672 -112228653 740966066 1596215815 303558984 -845431939 1233987424 -1971071328 1759609912 1506564773 797902364 -415764957 -1996667718 -1493605867 -1883219763 -1364331312 1284394245 1621046182 -556201901
REM
CELL 1.54180   50.00000   50.00000   50.00000   90.00000   90.00000   90.00000
LATT -1
SFAC C  
C      1  0.5083950000000  0.4462190000000  0.5444150000000 1.0
C      1  0.5656100000000  0.5556140000000  0.5738430000000 1.0
C      1  0.5352670000000  0.5881120000000  0.5094660000000 1.0
C      1  0.4475790000000  0.4756440000000  0.4306650000000 1.0
C      1  0.5715460000000  0.4543190000000  0.4910520000000 1.0
C      1  0.5232940000000  0.5651460000000  0.5511040000000 1.0
C      1  0.5313560000000  0.5468640000000  0.5292100000000 1.0
C      1  0.4554940000000  0.5917790000000  0.4729870000000 1.0
C      1  0.5350830000000  0.3835370000000  0.5516200000000 1.0
C      1  0.5841380000000  0.4248460000000  0.6046510000000 1.0
C      1  0.5255340000000  0.5176920000000  0.4221770000000 1.0
C      1  0.6094880000000  0.4911820000000  0.5133130000000 1.0
C      1  0.4059100000000  0.5116150000000  0.4731360000000 1.0
C      1  0.4849620000000  0.5521250000000  0.3895080000000 1.0
C      1  0.3986400000000  0.4672250000000  0.4501140000000 1.0
C      1  0.4606740000000  0.5606070000000  0.4041220000000 1.0
C      1  0.4835180000000  0.5624710000000  0.5872020000000 1.0
C      1  0.3842030000000  0.4411080000000  0.5569710000000 1.0
C      1  0.6026980000000  0.4308800000000  0.4471390000000 1.0
C      1  0.4490890000000  0.4496570000000  0.4197430000000 1.0
C      1  0.5790500000000  0.4156380000000  0.4474080000000 1.0
C      1  0.4494120000000  0.5198730000000  0.5779300000000 1.0
C      1  0.4714140000000  0.5527790000000  0.5281430000000 1.0
C      1  0.5841410000000  0.5932400000000  0.4820930000000 1.0
C      1  0.4285560000000  0.5868550000000  0.5647530000000 1.0
C      1  0.5830730000000  0.3980020000000  0.5369800000000 1.0
C      1  0.4010940000000  0.4178440000000  0.5096450000000 1.0
C      1  0.4476110000000  0.4319660000000  0.5801820000000 1.0
C      1  0.6090300000000  0.4748040000000  0.4678860000000 1.0
C      1  0.5122050000000  0.5584700000000  0.5949130000000 1.0
C      1  0.5112230000000  0.5625490000000  0.3998550000000 1.0
C      1  0.5558900000000  0.5036240000000  0.3850150000000 1.0
C      1  0.5406910000000  0.4398610000000  0.5900070000000 1.0
C      1  0.4978020000000  0.4331700000000  0.4760620000000 1.0
C      1  0.4839170000000  0.4733240000000  0.5157540000000 1.0
C      1  0.5257910000000  0.5565530000000  0.4577520000000 1.0
C      1  0.4390940000000  0.4621370000000  0.5344880000000 1.0
C      1  0.5437180000000  0.5608680000000  0.5078580000000 1.0
C      1  0.5383510000000  0.5353410000000  0.4016090000000 1.0
C      1  0.4712390000000  0.4241540000000  0.5234330000000 1.0
C      1  0.4532240000000  0.6044900000000  0.5279360000000 1.0
C      1  0.4344730000000  0.4769090000000  0.5611540000000 1.0
C      1  0.4523640000000  0.4158720000000  0.4737360000000 1.0
C      1  0.5141700000000  0.5135670000000  0.4826630000000 1.0
C      1  0.6143640000000  0.5033210000000  0.4655810000000 1.0
C      1  0.4993930000000  0.6048440000000  0.5305170000000 1.0
C      1  0.5474450000000  0.4518950000000  0.6605740000000 1.0
C      1  0.5779910000000  0.3620020000000  0.4428080000000 1.0
C      1  0.4793610000000  0.5849370000000  0.5685500000000 1.0
C      1  0.5640060000000  0.5424130000000  0.4179730000000 1.0
C      1  0.5514710000000  0.6120990000000  0.5063000000000 1.0
C      1  0.3884950000000  0.5021630000000  0.5536450000000 1.0
C      1  0.5012500000000  0.5549080000000  0.4426620000000 1.0
C      1  0.4457440000000  0.5242250000000  0.4294160000000 1.0
C      1  0.5008220000000  0.5160450000000  0.5478870000000 1.0
C      1  0.5800780000000  0.5291200000000  0.5771630000000 1.0
C      1  0.4278450000000  0.5199960000000  0.4894770000000 1.0
C      1  0.5006500000000  0.4178810000000  0.5355720000000 1.0
C      1  0.5618510000000  0.4930690000000  0.5433660000000 1.0
C      1  0.5037500000000  0.3869200000000  0.4936710000000 1.0
C      1  0.5139690000000  0.4672400000000  0.5618840000000 1.0
C      1  0.4747260000000  0.5135170000000  0.4242080000000 1.0
C      1  0.4351270000000  0.4579090000000  0.4869880000000 1.0
C      1  0.5965620000000  0.5612330000000  0.5168520000000 1.0
C      1  0.5305640000000  0.4260100000000  0.4363850000000 1.0
C      1  0.4641400000000  0.4271340000000  0.4202500000000 1.0
C      1  0.5757820000000  0.5322160000000  0.4436040000000 1.0
C      1  0.4664710000000  0.4544390000000  0.5283750000000 1.0
C      1  0.5872350000000  0.5357710000000  0.5256150000000 1.0
C      1  0.5383770000000  0.4648790000000  0.5762800000000 1.0
C      1  0.5451380000000  0.4104420000000  0.5129100000000 1.0
C      1  0.5448420000000  0.5774990000000  0.4533440000000 1.0
C      1  0.4784320000000  0.5550910000000  0.4594200000000 1.0
C      1  0.5027650000000  0.5868010000000  0.5516980000000 1.0
C      1  0.5530840000000  0.4779500000000  0.3854670000000 1.0
C      1  0.4278540000000  0.5090030000000  0.5153390000000 1.0
C      1  0.6114410000000  0.5000200000000  0.5414610000000 1.0
C      1  0.4526070000000  0.5059870000000  0.5277180000000 1.0
C      1  0.4849660000000  0.3803280000000  0.4748090000000 1.0
C      1  0.4443450000000  0.5540380000000  0.4286990000000 1.0
C      1  0.5318390000000  0.5305840000000  0.4686140000000 1.0
C      1  0.6419440000000  0.4567790000000  0.4375890000000 1.0
C      1  0.6034560000000  0.5173630000000  0.5622240000000 1.0
C      1  0.5710080000000  0.5142250000000  0.5289920000000 1.0
C      1  0.4325890000000  0.4176030000000  0.5610130000000 1.0
C      1  0.5357350000000  0.5588500000000  0.5768300000000 1.0
C      1  0.5426380000000  0.6185770000000  0.4777850000000 1.0
C      1  0.5668060000000  0.4309440000000  0.5071730000000 1.0
C      1  0.4847650000000  0.5131120000000  0.4862550000000 1.0
C      1  0.4041030000000  0.4231830000000  0.5629560000000 1.0
C      1  0.3908600000000  0.5521530000000  0.4901310000000 1.0
C      1  0.4740690000000  0.4248000000000  0.4918100000000 1.0
C      1  0.4894760000000  0.5533680000000  0.5057810000000 1.0
C      1  0.4080310000000  0.4943810000000  0.4509160000000 1.0
C      1  0.4832150000000  0.5034940000000  0.3953410000000 1.0
C      1  0.4984710000000  0.4788260000000  0.4028620000000 1.0
C      1  0.5581350000000  0.4558510000000  0.4648850000000 1.0
C      1  0.4694200000000  0.5396960000000  0.5766560000000 1.0
C      1  0.4917380000000  0.6002610000000  0.4347750000000 1.0
C      1  0.5874060000000  0.5849840000000  0.5318830000000 1.0
C      1  0.4807420000000  0.5366150000000  0.5497650000000 1.0
C      1  0.4976280000000  0.4732850000000  0.4320130000000 1.0
C      1  0.4917610000000  0.5255520000000  0.3790110000000 1.0
C      1  0.5038280000000  0.5772430000000  0.4231060000000 1.0
C      1  0.6011940000000  0.5197270000000  0.4468160000000 1.0
C      1  0.4325420000000  0.4358710000000  0.4689170000000 1.0
C      1  0.4086730000000  0.5646520000000  0.4690240000000 1.0
C      1  0.4495210000000  0.5892230000000  0.5036120000000 1.0
C      1  0.3728410000000  0.5036490000000  0.5077000000000 1.0
C      1  0.3809260000000  0.4578730000000  0.5335810000000 1.0
C      1  0.4730530000000  0.4863500000000  0.4382610000000 1.0
C      1  0.5087170000000  0.5987530000000  0.5052270000000 1.0
C      1  0.5149960000000  0.4023320000000  0.5597460000000 1.0
C      1  0.4010660000000  0.5591230000000  0.5920530000000 1.0
C      1  0.5046190000000  0.4216960000000  0.4491590000000 1.0
C      1  0.5012420000000  0.4920430000000  0.5621960000000 1.0
C      1  0.5549560000000  0.4301290000000  0.4515120000000 1.0
C      1  0.5563100000000  0.4862070000000  0.5706690000000 1.0
C      1  0.6180460000000  0.4541790000000  0.4507050000000 1.0
C      1  0.5429970000000  0.4981310000000  0.4339160000000 1.0
C      1  0.4234380000000  0.4034410000000  0.5162120000000 1.0
C      1  0.4353810000000  0.5720730000000  0.4544100000000 1.0
C      1  0.5194590000000  0.5260340000000  0.3734220000000 1.0
C      1  0.3834080000000  0.5226920000000  0.4880200000000 1.0
C      1  0.5099880000000  0.4730670000000  0.5040810000000 1.0
C      1  0.4451220000000  0.4588790000000  0.5823470000000 1.0
C      1  0.4468910000000  0.5612180000000  0.5131090000000 1.0
C      1  0.5644210000000  0.5510620000000  0.4889350000000 1.0
C      1  0.5957670000000  0.4703330000000  0.4944410000000 1.0
C      1  0.3840400000000  0.5301000000000  0.5517290000000 1.0
C      1  0.5075060000000  0.6107690000000  0.4799340000000 1.0
C      1  0.4452920000000  0.5419460000000  0.4911250000000 1.0
C      1  0.4059110000000  0.5702960000000  0.5663210000000 1.0
C      1  0.5426820000000  0.4764050000000  0.4518310000000 1.0
C      1  0.5229110000000  0.4999570000000  0.5068170000000 1.0
C      1  0.5164930000000  0.4063040000000  0.5110110000000 1.0
C      1  0.5601080000000  0.5992300000000  0.4639430000000 1.0
C      1  0.3778720000000  0.4868840000000  0.5315650000000 1.0
C      1  0.4097600000000  0.4422540000000  0.4527340000000 1.0
C      1  0.4541830000000  0.5946050000000  0.5555980000000 1.0
C      1  0.5442510000000  0.4537230000000  0.3932410000000 1.0
C      1  0.4740280000000  0.5401170000000  0.4830640000000 1.0
C      1  0.3929820000000  0.5561870000000  0.5445990000000 1.0
C      1  0.5894920000000  0.4206550000000  0.5226580000000 1.0
C      1  0.4225050000000  0.4596960000000  0.5117560000000 1.0
C      1  0.5554840000000  0.3914340000000  0.5337460000000 1.0
C      1  0.5088900000000  0.4588230000000  0.4793760000000 1.0
C      1  0.4084610000000  0.5349200000000  0.6013450000000 1.0
C      1  0.5215920000000  0.5197570000000  0.5287870000000 1.0
C      1  0.5598500000000  0.4360140000000  0.6104640000000 1.0
C      1  0.5782350000000  0.5772640000000  0.5582110000000 1.0
C      1  0.4226000000000  0.5147480000000  0.5879620000000 1.0
C      1  0.3906660000000  0.5626870000000  0.5169770000000 1.0
C      1  0.5643010000000  0.5073290000000  0.5879970000000 1.0
C      1  0.4520060000000  0.5009360000000  0.5557300000000 1.0
C      1  0.5536550000000  0.4438770000000  0.6365670000000 1.0
C      1  0.4096870000000  0.4933780000000  0.5711730000000 1.0
C      1  0.5791740000000  0.6048420000000  0.5099130000000 1.0
C      1  0.4841730000000  0.6042500000000  0.4626660000000 1.0
C      1  0.5149440000000  0.4703270000000  0.4543430000000 1.0
C      1  0.4727950000000  0.4985060000000  0.5091660000000 1.0
C      1  0.5602050000000  0.5320100000000  0.4684360000000 1.0
C      1  0.4804940000000  0.4108640000000  0.4368220000000 1.0
C      1  0.5333140000000  0.4351200000000  0.4094390000000 1.0
C      1  0.4669520000000  0.3958540000000  0.4581030000000 1.0
C      1  0.4442320000000  0.4105850000000  0.5347880000000 1.0
C      1  0.6205820000000  0.5101890000000  0.4931140000000 1.0
C      1  0.5792410000000  0.3879730000000  0.4445540000000 1.0
C      1  0.5003380000000  0.5274190000000  0.4311940000000 1.0
C      1  0.3979030000000  0.4459450000000  0.5138470000000 1.0
C      1  0.5888570000000  0.5656460000000  0.4892260000000 1.0
C      1  0.4300540000000  0.4992000000000  0.4335030000000 1.0
C      1  0.5231130000000  0.4186350000000  0.5820270000000 1.0
END
