TITL C-599892-9790-8 7.86370820359552e-05 125000 -909.82887019018 0 0 148 (C1) n - 1
REM
REM in /home/nfs/bkarasulu/CARBON/AIRSS/Generating-Clusters/TERSOFF/Only-C1/FIRE-HFTN
REM
REM
REM
REM
REM
REM ./C.cell (11c1c37f851c82e70ff6c80c92926a4b)
REM AIRSS Version 0.9.1 bugfix July 2018 build 013d7b7c2542+ Fri, 06 Jul 2018 19:26:36 +0100
REM compiler GCC version 9.2.1 20190827 (Red Hat 9.2.1-1)
REM options -cpp -mtune=generic -march=x86-64 -g -O0 -fpre-include=/usr/include/finclude/math-vector-fortran.h
REM seed -1846012533 -272719620 -466371536 -49225081 -81339182 41738191 -566742136 1867046503 -528898516 -1999483056 12089737 427335586 1419755739 2023991217 305307383 1478039278 -1552324348 1983026987 1695517104 -2125367726 1789133640 1439123220 -1817937715 717746468 938350503 -436001798 287687043 -496645539 -79117037 -1106929375 941099890 -1589256526 1268023189
REM
CELL 1.54180   50.00000   50.00000   50.00000   90.00000   90.00000   90.00000
LATT -1
SFAC C  
C      1  0.5915770000000  0.5444990000000  0.5592500000000 1.0
C      1  0.5580750000000  0.4338890000000  0.4154080000000 1.0
C      1  0.5601530000000  0.5738960000000  0.4439140000000 1.0
C      1  0.5323300000000  0.4282700000000  0.4265080000000 1.0
C      1  0.5175330000000  0.6096790000000  0.5423360000000 1.0
C      1  0.4824460000000  0.4766360000000  0.5276230000000 1.0
C      1  0.5003400000000  0.4714170000000  0.6245020000000 1.0
C      1  0.4267040000000  0.5567360000000  0.5571760000000 1.0
C      1  0.5318640000000  0.4491720000000  0.4893730000000 1.0
C      1  0.5158710000000  0.5241090000000  0.4575850000000 1.0
C      1  0.5660340000000  0.5077250000000  0.4169190000000 1.0
C      1  0.4396590000000  0.4582750000000  0.5829600000000 1.0
C      1  0.5147030000000  0.4486760000000  0.4172920000000 1.0
C      1  0.5161760000000  0.6842680000000  0.5358200000000 1.0
C      1  0.4496790000000  0.6085410000000  0.4070350000000 1.0
C      1  0.4167000000000  0.4907460000000  0.5377700000000 1.0
C      1  0.5625310000000  0.4618890000000  0.6170640000000 1.0
C      1  0.5802290000000  0.4822660000000  0.4136200000000 1.0
C      1  0.5314120000000  0.4808540000000  0.4477770000000 1.0
C      1  0.5729990000000  0.5103980000000  0.5088730000000 1.0
C      1  0.4819550000000  0.4338900000000  0.5051530000000 1.0
C      1  0.5794570000000  0.4639800000000  0.4897140000000 1.0
C      1  0.4831180000000  0.5678580000000  0.3643410000000 1.0
C      1  0.5236100000000  0.5120350000000  0.5177650000000 1.0
C      1  0.4659800000000  0.4742140000000  0.5789650000000 1.0
C      1  0.4954870000000  0.5120630000000  0.4729510000000 1.0
C      1  0.5145950000000  0.5481890000000  0.6043150000000 1.0
C      1  0.4766640000000  0.4615830000000  0.5526290000000 1.0
C      1  0.4760640000000  0.5549580000000  0.4763860000000 1.0
C      1  0.4369320000000  0.4237130000000  0.4866040000000 1.0
C      1  0.5416950000000  0.3860940000000  0.5218110000000 1.0
C      1  0.4854530000000  0.3800330000000  0.4987890000000 1.0
C      1  0.4247360000000  0.5015120000000  0.5652530000000 1.0
C      1  0.5287200000000  0.5445500000000  0.4169680000000 1.0
C      1  0.4816860000000  0.4726930000000  0.6037320000000 1.0
C      1  0.4185050000000  0.4593520000000  0.4489320000000 1.0
C      1  0.4466510000000  0.4624480000000  0.4548100000000 1.0
C      1  0.3945530000000  0.4694840000000  0.4553450000000 1.0
C      1  0.4152530000000  0.4390120000000  0.4935870000000 1.0
C      1  0.4700390000000  0.4090470000000  0.4154410000000 1.0
C      1  0.5280330000000  0.4680270000000  0.5694800000000 1.0
C      1  0.4654080000000  0.4335880000000  0.5511760000000 1.0
C      1  0.4578850000000  0.5095850000000  0.4055640000000 1.0
C      1  0.5607210000000  0.4624950000000  0.5350170000000 1.0
C      1  0.5389250000000  0.4517730000000  0.5497930000000 1.0
C      1  0.4982530000000  0.4983270000000  0.3851200000000 1.0
C      1  0.4634490000000  0.5960720000000  0.5013650000000 1.0
C      1  0.4789520000000  0.5201720000000  0.3885710000000 1.0
C      1  0.4876870000000  0.3940020000000  0.4288530000000 1.0
C      1  0.3913620000000  0.4821760000000  0.4805630000000 1.0
C      1  0.4605900000000  0.6111180000000  0.4542060000000 1.0
C      1  0.4313100000000  0.5012920000000  0.5163440000000 1.0
C      1  0.5618950000000  0.3876150000000  0.5020200000000 1.0
C      1  0.4510010000000  0.6076220000000  0.5237120000000 1.0
C      1  0.4560750000000  0.5013920000000  0.5701900000000 1.0
C      1  0.5249130000000  0.5649270000000  0.5133040000000 1.0
C      1  0.4833110000000  0.5596520000000  0.4477370000000 1.0
C      1  0.5945040000000  0.4480780000000  0.4722120000000 1.0
C      1  0.4000060000000  0.4631370000000  0.5014630000000 1.0
C      1  0.5002150000000  0.3998570000000  0.4535560000000 1.0
C      1  0.5536790000000  0.4670770000000  0.5049860000000 1.0
C      1  0.4404580000000  0.4344570000000  0.5662860000000 1.0
C      1  0.4548990000000  0.5608720000000  0.5523260000000 1.0
C      1  0.5251390000000  0.4151610000000  0.4515240000000 1.0
C      1  0.5120890000000  0.4954230000000  0.6339050000000 1.0
C      1  0.5101460000000  0.6591470000000  0.5271390000000 1.0
C      1  0.4695830000000  0.5680280000000  0.5012000000000 1.0
C      1  0.4428670000000  0.5238260000000  0.4240470000000 1.0
C      1  0.5687170000000  0.4572030000000  0.4060370000000 1.0
C      1  0.3908720000000  0.5111250000000  0.4781980000000 1.0
C      1  0.4601470000000  0.4335980000000  0.4181920000000 1.0
C      1  0.4183590000000  0.5309550000000  0.5666060000000 1.0
C      1  0.5215470000000  0.4757250000000  0.4213770000000 1.0
C      1  0.5192710000000  0.4683200000000  0.4700240000000 1.0
C      1  0.4795220000000  0.5250320000000  0.5338090000000 1.0
C      1  0.5210280000000  0.4969970000000  0.4016700000000 1.0
C      1  0.4825080000000  0.3971070000000  0.4762050000000 1.0
C      1  0.4847350000000  0.6373520000000  0.4866450000000 1.0
C      1  0.4678120000000  0.5520520000000  0.5259000000000 1.0
C      1  0.5404720000000  0.4234280000000  0.4745630000000 1.0
C      1  0.5644580000000  0.5155430000000  0.4448770000000 1.0
C      1  0.5387730000000  0.5078600000000  0.4536940000000 1.0
C      1  0.5159000000000  0.4482340000000  0.6290950000000 1.0
C      1  0.5360930000000  0.5075350000000  0.6259040000000 1.0
C      1  0.4918130000000  0.5551800000000  0.5918510000000 1.0
C      1  0.4905110000000  0.3909100000000  0.5251470000000 1.0
C      1  0.6075030000000  0.4612070000000  0.4510590000000 1.0
C      1  0.4959650000000  0.5032550000000  0.5245090000000 1.0
C      1  0.5301740000000  0.5396940000000  0.5256870000000 1.0
C      1  0.6026320000000  0.5248220000000  0.5443710000000 1.0
C      1  0.4596180000000  0.5685970000000  0.4331630000000 1.0
C      1  0.5443970000000  0.5821710000000  0.4657330000000 1.0
C      1  0.5368100000000  0.5317760000000  0.6095940000000 1.0
C      1  0.5398280000000  0.5183380000000  0.4061720000000 1.0
C      1  0.4724970000000  0.5268760000000  0.4773230000000 1.0
C      1  0.5599250000000  0.5291550000000  0.5920600000000 1.0
C      1  0.5120640000000  0.4377530000000  0.5089020000000 1.0
C      1  0.4132240000000  0.5509250000000  0.4491750000000 1.0
C      1  0.4181990000000  0.4779430000000  0.5836600000000 1.0
C      1  0.4420160000000  0.4948980000000  0.4917550000000 1.0
C      1  0.4082400000000  0.5764480000000  0.5529890000000 1.0
C      1  0.3982230000000  0.5343020000000  0.4653340000000 1.0
C      1  0.4731970000000  0.5218700000000  0.5622940000000 1.0
C      1  0.4538570000000  0.4701480000000  0.4835030000000 1.0
C      1  0.5425790000000  0.4448590000000  0.6268140000000 1.0
C      1  0.5838230000000  0.5247660000000  0.4874090000000 1.0
C      1  0.5879570000000  0.5038330000000  0.5325090000000 1.0
C      1  0.4479780000000  0.5145390000000  0.4734750000000 1.0
C      1  0.4719490000000  0.4618080000000  0.5046200000000 1.0
C      1  0.4700830000000  0.6143250000000  0.4802620000000 1.0
C      1  0.4810430000000  0.4750310000000  0.3872220000000 1.0
C      1  0.4005880000000  0.4682080000000  0.5298130000000 1.0
C      1  0.5808820000000  0.5321020000000  0.4605470000000 1.0
C      1  0.5791320000000  0.4811570000000  0.5481170000000 1.0
C      1  0.5443770000000  0.5429250000000  0.5497370000000 1.0
C      1  0.5586460000000  0.4906380000000  0.6187540000000 1.0
C      1  0.4432840000000  0.6239380000000  0.5425380000000 1.0
C      1  0.5649230000000  0.5433580000000  0.5685450000000 1.0
C      1  0.4612850000000  0.4801480000000  0.4081480000000 1.0
C      1  0.5790590000000  0.4578020000000  0.5936170000000 1.0
C      1  0.5468340000000  0.5665150000000  0.4198830000000 1.0
C      1  0.4763860000000  0.4165910000000  0.5307610000000 1.0
C      1  0.5636770000000  0.4092750000000  0.4834330000000 1.0
C      1  0.5829690000000  0.5586660000000  0.4512210000000 1.0
C      1  0.5078300000000  0.5444020000000  0.4384120000000 1.0
C      1  0.5882790000000  0.4205730000000  0.4745810000000 1.0
C      1  0.5802510000000  0.3672690000000  0.5004410000000 1.0
C      1  0.3974120000000  0.4451180000000  0.5457510000000 1.0
C      1  0.4722590000000  0.5486310000000  0.5729770000000 1.0
C      1  0.5224560000000  0.4348800000000  0.5351400000000 1.0
C      1  0.5323610000000  0.5726540000000  0.4875410000000 1.0
C      1  0.5175260000000  0.5857770000000  0.5308250000000 1.0
C      1  0.4972380000000  0.6544240000000  0.5026990000000 1.0
C      1  0.5172800000000  0.3859530000000  0.5332080000000 1.0
C      1  0.4586650000000  0.4600060000000  0.4282350000000 1.0
C      1  0.4366860000000  0.5509430000000  0.4315080000000 1.0
C      1  0.5163960000000  0.6362310000000  0.5420420000000 1.0
C      1  0.4653700000000  0.4190010000000  0.4843050000000 1.0
C      1  0.5464700000000  0.4974740000000  0.5072000000000 1.0
C      1  0.4151630000000  0.4275720000000  0.5561190000000 1.0
C      1  0.4982580000000  0.4848790000000  0.4782300000000 1.0
C      1  0.5810030000000  0.4816510000000  0.5767430000000 1.0
C      1  0.5717710000000  0.5030180000000  0.5948310000000 1.0
C      1  0.5196910000000  0.4919390000000  0.5755850000000 1.0
C      1  0.4563450000000  0.5966380000000  0.4306220000000 1.0
C      1  0.4384220000000  0.5097900000000  0.4478800000000 1.0
C      1  0.6029510000000  0.4779040000000  0.4303830000000 1.0
C      1  0.4800300000000  0.5449090000000  0.3762910000000 1.0
END
