TITL C-599891-72-530 571.999567142171 125000 -904.585203615571 0 0 149 (C1) n - 1
REM
REM in /home/nfs/bkarasulu/CARBON/AIRSS/Generating-Clusters/TERSOFF/Only-C1/FIRE-HFTN
REM
REM
REM
REM
REM
REM ./C.cell (11c1c37f851c82e70ff6c80c92926a4b)
REM AIRSS Version 0.9.1 bugfix July 2018 build 013d7b7c2542+ Fri, 06 Jul 2018 19:26:36 +0100
REM compiler GCC version 9.2.1 20190827 (Red Hat 9.2.1-1)
REM options -cpp -mtune=generic -march=x86-64 -g -O0 -fpre-include=/usr/include/finclude/math-vector-fortran.h
REM seed -471169957 -901201636 476155137 1529589593 -1860600764 2002903500 62979995 2052287374 -542965156 -136244426 -1322681972 -608602059 845297825 -1753762553 -1942853171 -1934288509 769773839 -528190789 1889857092 -1994254815 -982233857 -973851300 1079502773 1682664801 2023625520 74968236 1247435456 -1542370131 1077815056 -943530703 -1931125037 -1536589244 -1586488221
REM
CELL 1.54180   50.00000   50.00000   50.00000   90.00000   90.00000   90.00000
LATT -1
SFAC C  
C      1  0.5116540000000  0.5009190000000  0.4318190000000 1.0
C      1  0.5178560000000  0.5765510000000  0.5641580000000 1.0
C      1  0.4897830000000  0.5305540000000  0.4566850000000 1.0
C      1  0.5057740000000  0.4327850000000  0.5338990000000 1.0
C      1  0.6042080000000  0.5211210000000  0.5274630000000 1.0
C      1  0.4393720000000  0.5428480000000  0.5648620000000 1.0
C      1  0.5275400000000  0.4734330000000  0.5101070000000 1.0
C      1  0.4309000000000  0.4663670000000  0.4206910000000 1.0
C      1  0.5799190000000  0.4858640000000  0.5655050000000 1.0
C      1  0.5771530000000  0.4577340000000  0.5096000000000 1.0
C      1  0.4352130000000  0.5585090000000  0.4630650000000 1.0
C      1  0.4663450000000  0.4599340000000  0.4755320000000 1.0
C      1  0.4741220000000  0.5114200000000  0.4704410000000 1.0
C      1  0.5651070000000  0.5004860000000  0.4913400000000 1.0
C      1  0.5421650000000  0.4408500000000  0.5807530000000 1.0
C      1  0.4373460000000  0.5233710000000  0.5420210000000 1.0
C      1  0.5651430000000  0.5234850000000  0.4487340000000 1.0
C      1  0.5435440000000  0.5470520000000  0.3976910000000 1.0
C      1  0.5188710000000  0.5203940000000  0.5043980000000 1.0
C      1  0.5696750000000  0.4990040000000  0.4621930000000 1.0
C      1  0.3840550000000  0.5289640000000  0.4952980000000 1.0
C      1  0.5378970000000  0.5957460000000  0.4619000000000 1.0
C      1  0.4763350000000  0.4708150000000  0.4040560000000 1.0
C      1  0.5203580000000  0.4943050000000  0.5553490000000 1.0
C      1  0.4926110000000  0.5339180000000  0.5586120000000 1.0
C      1  0.4314180000000  0.5148080000000  0.4844400000000 1.0
C      1  0.5142100000000  0.4196310000000  0.4287920000000 1.0
C      1  0.5250570000000  0.4852600000000  0.3855750000000 1.0
C      1  0.4474000000000  0.4254090000000  0.5415310000000 1.0
C      1  0.5293180000000  0.4269650000000  0.5196180000000 1.0
C      1  0.4206630000000  0.4850640000000  0.4396020000000 1.0
C      1  0.5343910000000  0.4158060000000  0.5683020000000 1.0
C      1  0.4780680000000  0.4835210000000  0.4612790000000 1.0
C      1  0.4635980000000  0.5980420000000  0.4719740000000 1.0
C      1  0.5636930000000  0.5871830000000  0.5245440000000 1.0
C      1  0.4858890000000  0.4165730000000  0.4292720000000 1.0
C      1  0.4799620000000  0.5724040000000  0.4769810000000 1.0
C      1  0.5839030000000  0.5408080000000  0.5218470000000 1.0
C      1  0.5398350000000  0.5306690000000  0.5190430000000 1.0
C      1  0.4535900000000  0.4359580000000  0.4610160000000 1.0
C      1  0.3935210000000  0.5201920000000  0.5189890000000 1.0
C      1  0.5450390000000  0.5080830000000  0.5945020000000 1.0
C      1  0.5235040000000  0.5980920000000  0.4901930000000 1.0
C      1  0.5433340000000  0.5627120000000  0.5598110000000 1.0
C      1  0.4909040000000  0.4202410000000  0.4774800000000 1.0
C      1  0.4656420000000  0.4017630000000  0.5360990000000 1.0
C      1  0.5576220000000  0.5742760000000  0.4696860000000 1.0
C      1  0.4494120000000  0.4715920000000  0.4978240000000 1.0
C      1  0.4201350000000  0.5319360000000  0.4602420000000 1.0
C      1  0.4839330000000  0.5417660000000  0.5316110000000 1.0
C      1  0.5029530000000  0.4778710000000  0.4464120000000 1.0
C      1  0.6159980000000  0.4884860000000  0.4972220000000 1.0
C      1  0.4196580000000  0.4316270000000  0.4950940000000 1.0
C      1  0.4116550000000  0.4587980000000  0.5354810000000 1.0
C      1  0.4001980000000  0.4834570000000  0.5753990000000 1.0
C      1  0.5734430000000  0.5078000000000  0.5858820000000 1.0
C      1  0.5011060000000  0.5433090000000  0.6036900000000 1.0
C      1  0.4352600000000  0.5700350000000  0.5570300000000 1.0
C      1  0.5514300000000  0.4472200000000  0.4077350000000 1.0
C      1  0.4706630000000  0.5005400000000  0.4082640000000 1.0
C      1  0.4843430000000  0.4460610000000  0.5198640000000 1.0
C      1  0.5097750000000  0.5095140000000  0.3835000000000 1.0
C      1  0.5189460000000  0.5218560000000  0.5568330000000 1.0
C      1  0.4876940000000  0.5667620000000  0.4272980000000 1.0
C      1  0.5147670000000  0.4606580000000  0.4881000000000 1.0
C      1  0.3956610000000  0.4841780000000  0.6010500000000 1.0
C      1  0.4506590000000  0.5931490000000  0.5627210000000 1.0
C      1  0.5178440000000  0.5072860000000  0.4813300000000 1.0
C      1  0.5513080000000  0.3937300000000  0.5677010000000 1.0
C      1  0.5561670000000  0.4657010000000  0.5720030000000 1.0
C      1  0.5712560000000  0.4305740000000  0.5014880000000 1.0
C      1  0.4634510000000  0.6166120000000  0.4933090000000 1.0
C      1  0.5077220000000  0.4153300000000  0.5567190000000 1.0
C      1  0.4384080000000  0.5680430000000  0.5088670000000 1.0
C      1  0.5580670000000  0.5222570000000  0.4012220000000 1.0
C      1  0.5349950000000  0.4858900000000  0.5775720000000 1.0
C      1  0.4082940000000  0.4836230000000  0.5485720000000 1.0
C      1  0.4720740000000  0.3911160000000  0.5093300000000 1.0
C      1  0.4724890000000  0.4892540000000  0.5870790000000 1.0
C      1  0.4630210000000  0.4326090000000  0.4339670000000 1.0
C      1  0.4663070000000  0.4691780000000  0.5211910000000 1.0
C      1  0.4132560000000  0.5091820000000  0.5363210000000 1.0
C      1  0.5357970000000  0.5694720000000  0.4113350000000 1.0
C      1  0.5324040000000  0.4107430000000  0.4515450000000 1.0
C      1  0.6148730000000  0.5178020000000  0.4989280000000 1.0
C      1  0.4726230000000  0.4607520000000  0.5823710000000 1.0
C      1  0.4521440000000  0.5219280000000  0.4174820000000 1.0
C      1  0.4397310000000  0.4180150000000  0.4794920000000 1.0
C      1  0.4894550000000  0.4460630000000  0.4900850000000 1.0
C      1  0.5205360000000  0.4457830000000  0.5996610000000 1.0
C      1  0.5492400000000  0.4562570000000  0.4552970000000 1.0
C      1  0.5400980000000  0.5350140000000  0.4551630000000 1.0
C      1  0.4975430000000  0.5108360000000  0.4089310000000 1.0
C      1  0.5388240000000  0.5381630000000  0.5462250000000 1.0
C      1  0.5511300000000  0.4937220000000  0.3973830000000 1.0
C      1  0.4561060000000  0.4539050000000  0.4159770000000 1.0
C      1  0.5838930000000  0.5656570000000  0.4820530000000 1.0
C      1  0.4401810000000  0.5870320000000  0.4573630000000 1.0
C      1  0.4250660000000  0.4360090000000  0.5241900000000 1.0
C      1  0.4039670000000  0.4495090000000  0.4779970000000 1.0
C      1  0.5010890000000  0.3974440000000  0.4891500000000 1.0
C      1  0.4631120000000  0.6200170000000  0.5200170000000 1.0
C      1  0.3916710000000  0.5342050000000  0.4695970000000 1.0
C      1  0.4728440000000  0.5135170000000  0.5703510000000 1.0
C      1  0.4937990000000  0.4481390000000  0.5967580000000 1.0
C      1  0.4290590000000  0.5139980000000  0.4359960000000 1.0
C      1  0.5674090000000  0.3734020000000  0.5651350000000 1.0
C      1  0.4564830000000  0.4439010000000  0.5642420000000 1.0
C      1  0.5213580000000  0.5827640000000  0.4316460000000 1.0
C      1  0.4655710000000  0.5197590000000  0.5214170000000 1.0
C      1  0.4242040000000  0.5718640000000  0.5310640000000 1.0
C      1  0.4549440000000  0.5547170000000  0.4878170000000 1.0
C      1  0.5165830000000  0.5192470000000  0.4538800000000 1.0
C      1  0.4995600000000  0.5578840000000  0.5774000000000 1.0
C      1  0.5294880000000  0.4002490000000  0.4802870000000 1.0
C      1  0.5181980000000  0.5967750000000  0.5420470000000 1.0
C      1  0.4856470000000  0.3977040000000  0.5565600000000 1.0
C      1  0.5644070000000  0.5241330000000  0.5082440000000 1.0
C      1  0.5461370000000  0.4157460000000  0.4999090000000 1.0
C      1  0.4856250000000  0.5572790000000  0.4527320000000 1.0
C      1  0.5811290000000  0.5683250000000  0.5114380000000 1.0
C      1  0.5077150000000  0.5712620000000  0.4904410000000 1.0
C      1  0.4561420000000  0.5331060000000  0.5862140000000 1.0
C      1  0.5557500000000  0.4768320000000  0.5052680000000 1.0
C      1  0.4813840000000  0.4925290000000  0.5263000000000 1.0
C      1  0.5365210000000  0.5985700000000  0.5177110000000 1.0
C      1  0.5760110000000  0.5260790000000  0.4230720000000 1.0
C      1  0.4739110000000  0.5319770000000  0.6107660000000 1.0
C      1  0.5068650000000  0.4626680000000  0.3971200000000 1.0
C      1  0.5100090000000  0.4851740000000  0.5308000000000 1.0
C      1  0.5228250000000  0.4640190000000  0.4615540000000 1.0
C      1  0.4281470000000  0.4872940000000  0.4871890000000 1.0
C      1  0.4131540000000  0.4744180000000  0.4663070000000 1.0
C      1  0.5259320000000  0.5268330000000  0.6062780000000 1.0
C      1  0.5960170000000  0.4932260000000  0.5409160000000 1.0
C      1  0.4509590000000  0.3943250000000  0.4903070000000 1.0
C      1  0.4599290000000  0.6119450000000  0.5455040000000 1.0
C      1  0.4995770000000  0.5594530000000  0.5163730000000 1.0
C      1  0.5642060000000  0.5800480000000  0.5525190000000 1.0
C      1  0.5656240000000  0.4764980000000  0.4442060000000 1.0
C      1  0.5232430000000  0.4405650000000  0.4093730000000 1.0
C      1  0.5548250000000  0.4289490000000  0.4522150000000 1.0
C      1  0.6003540000000  0.4736630000000  0.5176700000000 1.0
C      1  0.4658000000000  0.5499960000000  0.4134340000000 1.0
C      1  0.5377160000000  0.5541370000000  0.4743880000000 1.0
C      1  0.4745290000000  0.5021320000000  0.6141600000000 1.0
C      1  0.6048000000000  0.5416350000000  0.4805780000000 1.0
C      1  0.4581890000000  0.5246110000000  0.4925830000000 1.0
C      1  0.5620770000000  0.4734350000000  0.4149200000000 1.0
END
