TITL C-599893-4344-919 -12.0220889045664 125000 -1080.85000584782 0 0 178 (C1) n - 1
REM
REM in /home/nfs/bkarasulu/CARBON/AIRSS/Generating-Clusters/TERSOFF/Only-C1/FIRE-HFTN
REM
REM
REM
REM
REM
REM ./C.cell (11c1c37f851c82e70ff6c80c92926a4b)
REM AIRSS Version 0.9.1 bugfix July 2018 build 013d7b7c2542+ Fri, 06 Jul 2018 19:26:36 +0100
REM compiler GCC version 9.2.1 20190827 (Red Hat 9.2.1-1)
REM options -cpp -mtune=generic -march=x86-64 -g -O0 -fpre-include=/usr/include/finclude/math-vector-fortran.h
REM seed 1933270048 -117924025 236600404 1012018143 601306680 -765560000 -1179506845 -269745148 1872741417 -1690090166 802885098 78743560 -1372591291 -1007227012 -1978733827 630018909 -1295973619 2034566876 -414398327 -2036333402 559523350 521850177 454756936 202579391 -775948569 1886894520 395174609 336221124 -1543032367 1034865894 1119626651 740169496 -527158586
REM
CELL 1.54180   50.00000   50.00000   50.00000   90.00000   90.00000   90.00000
LATT -1
SFAC C  
C      1  0.5138060000000  0.5142560000000  0.4014660000000 1.0
C      1  0.5040290000000  0.5912100000000  0.5529860000000 1.0
C      1  0.4087650000000  0.5721720000000  0.5344400000000 1.0
C      1  0.5675500000000  0.4229240000000  0.4993970000000 1.0
C      1  0.4396500000000  0.5583460000000  0.5695970000000 1.0
C      1  0.4061580000000  0.5183390000000  0.3663480000000 1.0
C      1  0.5174500000000  0.5820390000000  0.3765790000000 1.0
C      1  0.4573930000000  0.5096200000000  0.3811100000000 1.0
C      1  0.4723420000000  0.5243810000000  0.5630950000000 1.0
C      1  0.5557680000000  0.5737980000000  0.4270430000000 1.0
C      1  0.4975720000000  0.5336970000000  0.5271510000000 1.0
C      1  0.5484220000000  0.5534100000000  0.4043560000000 1.0
C      1  0.4202180000000  0.4248400000000  0.4553360000000 1.0
C      1  0.5776300000000  0.5077120000000  0.4118600000000 1.0
C      1  0.5704220000000  0.5758110000000  0.4792440000000 1.0
C      1  0.4048140000000  0.5817880000000  0.4860470000000 1.0
C      1  0.5479940000000  0.5084080000000  0.5298810000000 1.0
C      1  0.6009600000000  0.5240090000000  0.5709450000000 1.0
C      1  0.4569180000000  0.5810310000000  0.5615450000000 1.0
C      1  0.4131910000000  0.4433270000000  0.4790560000000 1.0
C      1  0.4959350000000  0.4327870000000  0.4495990000000 1.0
C      1  0.4021820000000  0.5276410000000  0.5557940000000 1.0
C      1  0.5329190000000  0.5912620000000  0.5564160000000 1.0
C      1  0.6242350000000  0.4875400000000  0.5925020000000 1.0
C      1  0.5905340000000  0.4711550000000  0.4408980000000 1.0
C      1  0.4569900000000  0.4298770000000  0.4795250000000 1.0
C      1  0.4586720000000  0.5952770000000  0.5355270000000 1.0
C      1  0.5161780000000  0.4526840000000  0.5976390000000 1.0
C      1  0.4530670000000  0.4637620000000  0.4051320000000 1.0
C      1  0.4016590000000  0.4882630000000  0.5014690000000 1.0
C      1  0.5163050000000  0.4634280000000  0.3804720000000 1.0
C      1  0.4708520000000  0.4413880000000  0.4094550000000 1.0
C      1  0.4079160000000  0.4579440000000  0.5700880000000 1.0
C      1  0.5289540000000  0.5332530000000  0.4424710000000 1.0
C      1  0.4458920000000  0.4609140000000  0.5138810000000 1.0
C      1  0.5540230000000  0.4571580000000  0.5382400000000 1.0
C      1  0.5142930000000  0.5082200000000  0.4303000000000 1.0
C      1  0.4536880000000  0.4332090000000  0.5809730000000 1.0
C      1  0.4269790000000  0.5012990000000  0.5036000000000 1.0
C      1  0.4720340000000  0.5364620000000  0.5375350000000 1.0
C      1  0.4032280000000  0.5543640000000  0.4780910000000 1.0
C      1  0.5809080000000  0.4791410000000  0.5715490000000 1.0
C      1  0.5388470000000  0.5972320000000  0.4304100000000 1.0
C      1  0.4896400000000  0.4662960000000  0.6037620000000 1.0
C      1  0.5235420000000  0.4472210000000  0.4061740000000 1.0
C      1  0.4339910000000  0.5280730000000  0.5013810000000 1.0
C      1  0.5258890000000  0.5132730000000  0.4860120000000 1.0
C      1  0.4451370000000  0.5307420000000  0.4541430000000 1.0
C      1  0.5265780000000  0.4930660000000  0.6160120000000 1.0
C      1  0.5061490000000  0.5537510000000  0.4462160000000 1.0
C      1  0.5622010000000  0.4052080000000  0.5209990000000 1.0
C      1  0.5088830000000  0.4944200000000  0.4737160000000 1.0
C      1  0.4647290000000  0.4165790000000  0.3980160000000 1.0
C      1  0.5435510000000  0.6201810000000  0.5167910000000 1.0
C      1  0.5405240000000  0.4541930000000  0.4751990000000 1.0
C      1  0.5188360000000  0.5398570000000  0.4868690000000 1.0
C      1  0.5256130000000  0.4012090000000  0.4300490000000 1.0
C      1  0.4526900000000  0.6167370000000  0.4890870000000 1.0
C      1  0.6019950000000  0.4971060000000  0.5785500000000 1.0
C      1  0.4605000000000  0.3927130000000  0.3884520000000 1.0
C      1  0.5304820000000  0.5600960000000  0.5030720000000 1.0
C      1  0.4925800000000  0.5773650000000  0.4374830000000 1.0
C      1  0.4921170000000  0.5056950000000  0.4515800000000 1.0
C      1  0.4753620000000  0.5319040000000  0.3828390000000 1.0
C      1  0.5852310000000  0.4511660000000  0.4602210000000 1.0
C      1  0.4657770000000  0.4580460000000  0.5886150000000 1.0
C      1  0.5556480000000  0.5261100000000  0.4570610000000 1.0
C      1  0.4685880000000  0.4178730000000  0.5589500000000 1.0
C      1  0.5122040000000  0.3824040000000  0.5684530000000 1.0
C      1  0.6128570000000  0.4855210000000  0.5111370000000 1.0
C      1  0.4310810000000  0.5143860000000  0.3728550000000 1.0
C      1  0.5445150000000  0.5192360000000  0.5556590000000 1.0
C      1  0.4955610000000  0.4445110000000  0.4234240000000 1.0
C      1  0.4279220000000  0.5394340000000  0.4761280000000 1.0
C      1  0.5720610000000  0.4781420000000  0.4184560000000 1.0
C      1  0.4169970000000  0.5869650000000  0.5114360000000 1.0
C      1  0.4367370000000  0.5201410000000  0.6250700000000 1.0
C      1  0.5333460000000  0.4183120000000  0.4098650000000 1.0
C      1  0.4476190000000  0.4649180000000  0.5412900000000 1.0
C      1  0.4400350000000  0.6389290000000  0.4790990000000 1.0
C      1  0.5945350000000  0.5191270000000  0.4333230000000 1.0
C      1  0.5216080000000  0.5589300000000  0.3906290000000 1.0
C      1  0.4118620000000  0.4820880000000  0.4297290000000 1.0
C      1  0.4969880000000  0.5490900000000  0.4730140000000 1.0
C      1  0.5748210000000  0.5841120000000  0.5316490000000 1.0
C      1  0.4893470000000  0.5679380000000  0.5972260000000 1.0
C      1  0.3915480000000  0.5023300000000  0.5470300000000 1.0
C      1  0.4967540000000  0.3908970000000  0.4992270000000 1.0
C      1  0.3654060000000  0.4777730000000  0.5788850000000 1.0
C      1  0.5657020000000  0.4663720000000  0.5930110000000 1.0
C      1  0.4895550000000  0.4791620000000  0.5573870000000 1.0
C      1  0.3938050000000  0.6015650000000  0.4707630000000 1.0
C      1  0.4875350000000  0.5953180000000  0.5279430000000 1.0
C      1  0.4503590000000  0.5391420000000  0.5206730000000 1.0
C      1  0.4571970000000  0.5253770000000  0.6078770000000 1.0
C      1  0.3982320000000  0.4817910000000  0.4531360000000 1.0
C      1  0.5009420000000  0.5456590000000  0.6109950000000 1.0
C      1  0.4653010000000  0.4825220000000  0.3868170000000 1.0
C      1  0.5770760000000  0.4727990000000  0.5435330000000 1.0
C      1  0.5205870000000  0.6126810000000  0.4466680000000 1.0
C      1  0.4370610000000  0.4407820000000  0.4967300000000 1.0
C      1  0.4970330000000  0.4943580000000  0.6147630000000 1.0
C      1  0.4480850000000  0.4841820000000  0.4985420000000 1.0
C      1  0.3799860000000  0.5403210000000  0.4869680000000 1.0
C      1  0.5195020000000  0.4106400000000  0.5603190000000 1.0
C      1  0.5360200000000  0.4832290000000  0.3731100000000 1.0
C      1  0.5017750000000  0.3670270000000  0.5119820000000 1.0
C      1  0.5792310000000  0.4464940000000  0.6067440000000 1.0
C      1  0.5375670000000  0.5078340000000  0.3868250000000 1.0
C      1  0.5734400000000  0.5663600000000  0.4505980000000 1.0
C      1  0.3707460000000  0.5231800000000  0.5058280000000 1.0
C      1  0.5654830000000  0.4417740000000  0.4784400000000 1.0
C      1  0.5516210000000  0.6024070000000  0.5366210000000 1.0
C      1  0.3892240000000  0.4793100000000  0.5648670000000 1.0
C      1  0.5675070000000  0.5058980000000  0.5085230000000 1.0
C      1  0.5544420000000  0.5119470000000  0.4827050000000 1.0
C      1  0.4627230000000  0.3877440000000  0.4618170000000 1.0
C      1  0.5291120000000  0.4824650000000  0.4364270000000 1.0
C      1  0.4449100000000  0.4099940000000  0.4624900000000 1.0
C      1  0.4423530000000  0.5436060000000  0.4300050000000 1.0
C      1  0.4842400000000  0.5817750000000  0.5732340000000 1.0
C      1  0.6650700000000  0.4676710000000  0.6189670000000 1.0
C      1  0.4829120000000  0.4395430000000  0.4741100000000 1.0
C      1  0.5383710000000  0.6098360000000  0.4914730000000 1.0
C      1  0.5254100000000  0.4916480000000  0.5243690000000 1.0
C      1  0.6449170000000  0.4776640000000  0.6057900000000 1.0
C      1  0.4150290000000  0.5532880000000  0.5549250000000 1.0
C      1  0.4972710000000  0.4161290000000  0.5144770000000 1.0
C      1  0.5852040000000  0.5783570000000  0.5048370000000 1.0
C      1  0.4908230000000  0.3901330000000  0.4700380000000 1.0
C      1  0.4469250000000  0.4026760000000  0.5466390000000 1.0
C      1  0.5433220000000  0.5815150000000  0.4888090000000 1.0
C      1  0.5387790000000  0.4712230000000  0.6017600000000 1.0
C      1  0.4276620000000  0.4615060000000  0.4184470000000 1.0
C      1  0.4787700000000  0.6079290000000  0.4781090000000 1.0
C      1  0.3832240000000  0.5011690000000  0.5189280000000 1.0
C      1  0.5214020000000  0.4281520000000  0.5849360000000 1.0
C      1  0.4956680000000  0.4243500000000  0.5447570000000 1.0
C      1  0.5586450000000  0.5246060000000  0.3981220000000 1.0
C      1  0.5439060000000  0.4099920000000  0.5422720000000 1.0
C      1  0.5065290000000  0.4055570000000  0.4507390000000 1.0
C      1  0.5321540000000  0.6250300000000  0.4690100000000 1.0
C      1  0.4630550000000  0.4722580000000  0.5633580000000 1.0
C      1  0.6059290000000  0.4953800000000  0.4457290000000 1.0
C      1  0.4933570000000  0.6028210000000  0.4517450000000 1.0
C      1  0.5180300000000  0.5537760000000  0.5279770000000 1.0
C      1  0.4000830000000  0.4695990000000  0.4789130000000 1.0
C      1  0.4806170000000  0.5645300000000  0.4889190000000 1.0
C      1  0.5214460000000  0.5157960000000  0.5695510000000 1.0
C      1  0.4199060000000  0.4359400000000  0.4291180000000 1.0
C      1  0.5506780000000  0.5730290000000  0.5714830000000 1.0
C      1  0.5023430000000  0.5065400000000  0.5208600000000 1.0
C      1  0.5289590000000  0.5482410000000  0.6126660000000 1.0
C      1  0.5276270000000  0.4651330000000  0.5334230000000 1.0
C      1  0.5930300000000  0.5478610000000  0.5624330000000 1.0
C      1  0.5458720000000  0.5614010000000  0.5964440000000 1.0
C      1  0.5879220000000  0.3571440000000  0.5215730000000 1.0
C      1  0.5748630000000  0.5677840000000  0.5557790000000 1.0
C      1  0.4851080000000  0.5211410000000  0.6145290000000 1.0
C      1  0.4241900000000  0.4344460000000  0.5730790000000 1.0
C      1  0.4949780000000  0.5060800000000  0.5661070000000 1.0
C      1  0.5451300000000  0.4674940000000  0.4190780000000 1.0
C      1  0.4893990000000  0.4717710000000  0.3754380000000 1.0
C      1  0.4416390000000  0.6017820000000  0.5127960000000 1.0
C      1  0.5997500000000  0.3334260000000  0.5219320000000 1.0
C      1  0.4220570000000  0.4117280000000  0.5548730000000 1.0
C      1  0.5015650000000  0.5376390000000  0.3915760000000 1.0
C      1  0.4878530000000  0.5899400000000  0.4995480000000 1.0
C      1  0.4535870000000  0.5353260000000  0.5813520000000 1.0
C      1  0.6113840000000  0.3100980000000  0.5222890000000 1.0
C      1  0.5800520000000  0.5381360000000  0.4485050000000 1.0
C      1  0.5245020000000  0.4730300000000  0.4630180000000 1.0
C      1  0.4985760000000  0.4388500000000  0.4973510000000 1.0
C      1  0.4643970000000  0.5087340000000  0.4565670000000 1.0
C      1  0.5872700000000  0.4879120000000  0.5203360000000 1.0
C      1  0.5041030000000  0.4565660000000  0.5460920000000 1.0
C      1  0.4570410000000  0.4867550000000  0.4725670000000 1.0
C      1  0.5759760000000  0.3807810000000  0.5212590000000 1.0
END
