TITL C-599891-72-1416 130137.114786113 125000 -1196.763091628 0 0 192 (C1) n - 1
REM
REM in /home/nfs/bkarasulu/CARBON/AIRSS/Generating-Clusters/TERSOFF/Only-C1/FIRE-HFTN
REM
REM
REM
REM
REM
REM ./C.cell (11c1c37f851c82e70ff6c80c92926a4b)
REM AIRSS Version 0.9.1 bugfix July 2018 build 013d7b7c2542+ Fri, 06 Jul 2018 19:26:36 +0100
REM compiler GCC version 9.2.1 20190827 (Red Hat 9.2.1-1)
REM options -cpp -mtune=generic -march=x86-64 -g -O0 -fpre-include=/usr/include/finclude/math-vector-fortran.h
REM seed 1867948862 111973962 -40849187 1773031845 -272361996 194319010 -501970408 -471139580 1152976815 -350966948 -2130208670 -1729087763 -1553762417 23902400 -495586613 -2123998583 208558511 2058268977 992899806 1246904459 1564650865 -1199132210 1541847361 -639609933 165750876 1744480709 -1006787156 69511676 -1835582986 -344717020 -1658453658 -187821214 -639392923
REM
CELL 1.54180   50.00000   50.00000   50.00000   90.00000   90.00000   90.00000
LATT -1
SFAC C  
C      1  0.4344130000000  0.5140740000000  0.5220610000000 1.0
C      1  0.5344180000000  0.6116180000000  0.4608360000000 1.0
C      1  0.4985090000000  0.4517740000000  0.5968890000000 1.0
C      1  0.5903330000000  0.5131570000000  0.4456800000000 1.0
C      1  0.5178440000000  0.5392680000000  0.6278500000000 1.0
C      1  0.5087270000000  0.4249550000000  0.4571790000000 1.0
C      1  0.4532340000000  0.4378470000000  0.3928830000000 1.0
C      1  0.5476150000000  0.5211950000000  0.4260230000000 1.0
C      1  0.5337440000000  0.3837080000000  0.5319890000000 1.0
C      1  0.4644240000000  0.4589580000000  0.5400470000000 1.0
C      1  0.4998990000000  0.4707530000000  0.4540290000000 1.0
C      1  0.5034560000000  0.4801030000000  0.4812700000000 1.0
C      1  0.4060630000000  0.5507690000000  0.4690760000000 1.0
C      1  0.5940750000000  0.5800040000000  0.5151040000000 1.0
C      1  0.5439590000000  0.4196610000000  0.5037180000000 1.0
C      1  0.4878240000000  0.4436890000000  0.4554510000000 1.0
C      1  0.5566600000000  0.5673400000000  0.5479650000000 1.0
C      1  0.4587770000000  0.5576540000000  0.4202340000000 1.0
C      1  0.3985540000000  0.5258380000000  0.5682820000000 1.0
C      1  0.4392100000000  0.4563050000000  0.5266900000000 1.0
C      1  0.5331440000000  0.4326070000000  0.4494780000000 1.0
C      1  0.4787420000000  0.5535690000000  0.6024530000000 1.0
C      1  0.4489640000000  0.5692480000000  0.5220120000000 1.0
C      1  0.5826590000000  0.5514350000000  0.5114460000000 1.0
C      1  0.6083710000000  0.5147950000000  0.5399290000000 1.0
C      1  0.5607150000000  0.5133400000000  0.5342920000000 1.0
C      1  0.5985830000000  0.3999500000000  0.4423200000000 1.0
C      1  0.4725290000000  0.5801650000000  0.4796250000000 1.0
C      1  0.4763120000000  0.4677720000000  0.6081020000000 1.0
C      1  0.5186980000000  0.5552860000000  0.3876350000000 1.0
C      1  0.4687890000000  0.5490970000000  0.5259440000000 1.0
C      1  0.5757120000000  0.5319290000000  0.4269140000000 1.0
C      1  0.5052860000000  0.6149980000000  0.5314970000000 1.0
C      1  0.4476620000000  0.5726960000000  0.4925030000000 1.0
C      1  0.5334730000000  0.5245480000000  0.5445530000000 1.0
C      1  0.5246760000000  0.4567480000000  0.6083590000000 1.0
C      1  0.5362860000000  0.3928600000000  0.4322810000000 1.0
C      1  0.5536950000000  0.5138890000000  0.6016160000000 1.0
C      1  0.3996090000000  0.4354130000000  0.5456930000000 1.0
C      1  0.5151430000000  0.4601330000000  0.5529330000000 1.0
C      1  0.4375450000000  0.4544930000000  0.4092330000000 1.0
C      1  0.5212200000000  0.5628190000000  0.4835140000000 1.0
C      1  0.4339570000000  0.5474990000000  0.4118440000000 1.0
C      1  0.5252730000000  0.4758160000000  0.4372040000000 1.0
C      1  0.4990450000000  0.5029840000000  0.4979960000000 1.0
C      1  0.4118980000000  0.4708800000000  0.6157510000000 1.0
C      1  0.4020950000000  0.5084950000000  0.4827310000000 1.0
C      1  0.4268180000000  0.4674340000000  0.4778870000000 1.0
C      1  0.4053390000000  0.5531170000000  0.5735010000000 1.0
C      1  0.4251360000000  0.4844790000000  0.5959300000000 1.0
C      1  0.4655980000000  0.4129580000000  0.5099650000000 1.0
C      1  0.5280790000000  0.5259060000000  0.6043930000000 1.0
C      1  0.6213460000000  0.4986200000000  0.5197720000000 1.0
C      1  0.5494500000000  0.4669680000000  0.6055950000000 1.0
C      1  0.4584610000000  0.6176920000000  0.5687560000000 1.0
C      1  0.5526170000000  0.3953440000000  0.4586440000000 1.0
C      1  0.4645900000000  0.5111670000000  0.5995390000000 1.0
C      1  0.4457550000000  0.3721370000000  0.5539820000000 1.0
C      1  0.4889640000000  0.5406870000000  0.6277600000000 1.0
C      1  0.5782890000000  0.4101410000000  0.4579030000000 1.0
C      1  0.4909370000000  0.5516460000000  0.3861410000000 1.0
C      1  0.4694130000000  0.3855440000000  0.5511880000000 1.0
C      1  0.4697190000000  0.3881720000000  0.4200620000000 1.0
C      1  0.4410150000000  0.4830400000000  0.4097200000000 1.0
C      1  0.5406290000000  0.3958710000000  0.4853170000000 1.0
C      1  0.4292650000000  0.4960120000000  0.4794450000000 1.0
C      1  0.3914200000000  0.5068080000000  0.4552200000000 1.0
C      1  0.5308570000000  0.6044480000000  0.5377410000000 1.0
C      1  0.4789090000000  0.5024320000000  0.5173040000000 1.0
C      1  0.5492520000000  0.4866800000000  0.4824220000000 1.0
C      1  0.5896710000000  0.4601520000000  0.4842020000000 1.0
C      1  0.5009830000000  0.4447270000000  0.3858440000000 1.0
C      1  0.4112410000000  0.3415350000000  0.4670890000000 1.0
C      1  0.5143190000000  0.5564090000000  0.5443190000000 1.0
C      1  0.4147980000000  0.4618370000000  0.4515880000000 1.0
C      1  0.5315970000000  0.5471090000000  0.5061070000000 1.0
C      1  0.5390410000000  0.4514940000000  0.4306280000000 1.0
C      1  0.4972650000000  0.5788690000000  0.4967800000000 1.0
C      1  0.5743860000000  0.6010910000000  0.5106690000000 1.0
C      1  0.5468950000000  0.6091650000000  0.5125800000000 1.0
C      1  0.4156840000000  0.4578250000000  0.5422720000000 1.0
C      1  0.4845640000000  0.4961840000000  0.3905070000000 1.0
C      1  0.3921790000000  0.5251680000000  0.5388320000000 1.0
C      1  0.5846760000000  0.5429410000000  0.4830310000000 1.0
C      1  0.5783600000000  0.6327200000000  0.4526210000000 1.0
C      1  0.4663490000000  0.5754680000000  0.5901770000000 1.0
C      1  0.5508910000000  0.4680980000000  0.3858320000000 1.0
C      1  0.4725790000000  0.6237950000000  0.4974900000000 1.0
C      1  0.5811380000000  0.5577160000000  0.4163370000000 1.0
C      1  0.4455630000000  0.6240070000000  0.5004000000000 1.0
C      1  0.4187810000000  0.4989290000000  0.4182480000000 1.0
C      1  0.4606340000000  0.5227890000000  0.5213790000000 1.0
C      1  0.5282940000000  0.4673870000000  0.4879640000000 1.0
C      1  0.6035690000000  0.5777460000000  0.5618090000000 1.0
C      1  0.4764540000000  0.5919500000000  0.4540070000000 1.0
C      1  0.4485920000000  0.3973360000000  0.4341000000000 1.0
C      1  0.5163590000000  0.5086390000000  0.5599190000000 1.0
C      1  0.4560360000000  0.4307660000000  0.4904450000000 1.0
C      1  0.4632230000000  0.4324640000000  0.4634140000000 1.0
C      1  0.4335980000000  0.5557420000000  0.4745410000000 1.0
C      1  0.4758660000000  0.5022490000000  0.4391570000000 1.0
C      1  0.5172740000000  0.3891920000000  0.5552160000000 1.0
C      1  0.4099740000000  0.5041490000000  0.5308200000000 1.0
C      1  0.5996270000000  0.5204120000000  0.4729300000000 1.0
C      1  0.5704660000000  0.4452540000000  0.5580770000000 1.0
C      1  0.5296470000000  0.4819490000000  0.3756080000000 1.0
C      1  0.5312040000000  0.5791060000000  0.5510390000000 1.0
C      1  0.6173630000000  0.4571730000000  0.5505420000000 1.0
C      1  0.3955920000000  0.5357960000000  0.4921140000000 1.0
C      1  0.3994110000000  0.5343490000000  0.4446800000000 1.0
C      1  0.5085340000000  0.5214200000000  0.5834070000000 1.0
C      1  0.4677580000000  0.4921700000000  0.4136190000000 1.0
C      1  0.5253630000000  0.5394070000000  0.4353430000000 1.0
C      1  0.4762680000000  0.5133190000000  0.6277250000000 1.0
C      1  0.4507350000000  0.5086780000000  0.4640820000000 1.0
C      1  0.5219170000000  0.5203980000000  0.4990590000000 1.0
C      1  0.5457440000000  0.4465460000000  0.4036210000000 1.0
C      1  0.4026510000000  0.4855420000000  0.4391890000000 1.0
C      1  0.4539740000000  0.4845790000000  0.5957900000000 1.0
C      1  0.4812490000000  0.5299020000000  0.5853410000000 1.0
C      1  0.5018880000000  0.4382580000000  0.5689830000000 1.0
C      1  0.5401580000000  0.5136760000000  0.4788130000000 1.0
C      1  0.5374050000000  0.5482270000000  0.4615290000000 1.0
C      1  0.5659570000000  0.4885590000000  0.5968260000000 1.0
C      1  0.4941390000000  0.5604980000000  0.5249590000000 1.0
C      1  0.5526830000000  0.4218460000000  0.5567390000000 1.0
C      1  0.4121010000000  0.5716100000000  0.5526920000000 1.0
C      1  0.4157420000000  0.5281440000000  0.4210300000000 1.0
C      1  0.5241690000000  0.4155990000000  0.5671130000000 1.0
C      1  0.5860460000000  0.5284450000000  0.5301000000000 1.0
C      1  0.4278080000000  0.4434120000000  0.4339380000000 1.0
C      1  0.4764130000000  0.4347550000000  0.5518280000000 1.0
C      1  0.4890920000000  0.4031030000000  0.4063040000000 1.0
C      1  0.5330070000000  0.4555050000000  0.5326480000000 1.0
C      1  0.5333770000000  0.5495320000000  0.6477180000000 1.0
C      1  0.6140410000000  0.4740150000000  0.4791730000000 1.0
C      1  0.5396610000000  0.5844720000000  0.4198770000000 1.0
C      1  0.4383810000000  0.4514810000000  0.4986330000000 1.0
C      1  0.5780150000000  0.5698010000000  0.5659320000000 1.0
C      1  0.4930550000000  0.5921410000000  0.4310150000000 1.0
C      1  0.5252600000000  0.4289460000000  0.3943920000000 1.0
C      1  0.6280060000000  0.4727160000000  0.5308020000000 1.0
C      1  0.5185330000000  0.4042560000000  0.4102430000000 1.0
C      1  0.5896980000000  0.4842190000000  0.5803380000000 1.0
C      1  0.5274330000000  0.5598040000000  0.4136650000000 1.0
C      1  0.5275340000000  0.6148110000000  0.4892190000000 1.0
C      1  0.4701750000000  0.5459300000000  0.4435650000000 1.0
C      1  0.5315330000000  0.3755070000000  0.5042590000000 1.0
C      1  0.4550420000000  0.5904320000000  0.5687260000000 1.0
C      1  0.3968590000000  0.5722770000000  0.5277770000000 1.0
C      1  0.5465880000000  0.4943690000000  0.4343060000000 1.0
C      1  0.4993430000000  0.6099510000000  0.5024560000000 1.0
C      1  0.3901430000000  0.4116540000000  0.5386260000000 1.0
C      1  0.5632290000000  0.6106970000000  0.4578730000000 1.0
C      1  0.4440220000000  0.4228910000000  0.4448350000000 1.0
C      1  0.5715720000000  0.4788830000000  0.4975230000000 1.0
C      1  0.4794730000000  0.4832620000000  0.5377410000000 1.0
C      1  0.4791560000000  0.4272430000000  0.3923590000000 1.0
C      1  0.6153750000000  0.5009480000000  0.4901950000000 1.0
C      1  0.5515190000000  0.4081220000000  0.5304610000000 1.0
C      1  0.5585440000000  0.4639460000000  0.5400240000000 1.0
C      1  0.5030920000000  0.4850210000000  0.5528500000000 1.0
C      1  0.5543300000000  0.5572990000000  0.5200150000000 1.0
C      1  0.4392140000000  0.5788230000000  0.5477160000000 1.0
C      1  0.6124150000000  0.5830270000000  0.5366500000000 1.0
C      1  0.5213080000000  0.5999920000000  0.4363480000000 1.0
C      1  0.3876470000000  0.3894200000000  0.5243720000000 1.0
C      1  0.4095010000000  0.4836210000000  0.5504140000000 1.0
C      1  0.4920530000000  0.5273620000000  0.4397050000000 1.0
C      1  0.5832990000000  0.4346170000000  0.4727230000000 1.0
C      1  0.5664160000000  0.5577680000000  0.4660370000000 1.0
C      1  0.4937450000000  0.3751910000000  0.5617590000000 1.0
C      1  0.4512950000000  0.5368920000000  0.4628350000000 1.0
C      1  0.6046660000000  0.5051600000000  0.5670560000000 1.0
C      1  0.3916370000000  0.3704600000000  0.5062680000000 1.0
C      1  0.4840840000000  0.5238360000000  0.3812100000000 1.0
C      1  0.5675460000000  0.5814310000000  0.4142360000000 1.0
C      1  0.4829220000000  0.4851510000000  0.6320800000000 1.0
C      1  0.3901460000000  0.5455940000000  0.5185540000000 1.0
C      1  0.4019990000000  0.5958200000000  0.5122510000000 1.0
C      1  0.5671160000000  0.4858330000000  0.5252220000000 1.0
C      1  0.5320170000000  0.4458480000000  0.5059590000000 1.0
C      1  0.4786990000000  0.5703540000000  0.4053900000000 1.0
C      1  0.5025980000000  0.4743030000000  0.3819290000000 1.0
C      1  0.4003510000000  0.3548850000000  0.4866590000000 1.0
C      1  0.4098220000000  0.4983040000000  0.5758590000000 1.0
C      1  0.4206460000000  0.6141930000000  0.5048390000000 1.0
C      1  0.5734680000000  0.5847130000000  0.4610650000000 1.0
C      1  0.5943520000000  0.4578160000000  0.5678250000000 1.0
C      1  0.4705280000000  0.4104530000000  0.5377260000000 1.0
C      1  0.5744960000000  0.4888210000000  0.4418010000000 1.0
C      1  0.4944030000000  0.3529660000000  0.5776180000000 1.0
END
