TITL C-599892-9790-127 0.0234376971666376 125000 -495.480328396246 0 0 83 (C1) n - 1
REM
REM in /home/nfs/bkarasulu/CARBON/AIRSS/Generating-Clusters/TERSOFF/Only-C1/FIRE-HFTN
REM
REM
REM
REM
REM
REM ./C.cell (11c1c37f851c82e70ff6c80c92926a4b)
REM AIRSS Version 0.9.1 bugfix July 2018 build 013d7b7c2542+ Fri, 06 Jul 2018 19:26:36 +0100
REM compiler GCC version 9.2.1 20190827 (Red Hat 9.2.1-1)
REM options -cpp -mtune=generic -march=x86-64 -g -O0 -fpre-include=/usr/include/finclude/math-vector-fortran.h
REM seed -618168439 -523629476 -880015819 349276114 1125058063 1414181590 -1084848450 214007544 -612959635 -1609715683 -1771283504 -1480160106 -1289861554 1997585537 1561919573 617724587 -462502191 -305298836 -700309536 -59328384 -1664635493 -1133027829 1726562990 775045656 1626647859 -1167805689 1685039632 -1097786378 -1699703642 -67656407 -2063618072 -1577508712 -264640494
REM
CELL 1.54180   50.00000   50.00000   50.00000   90.00000   90.00000   90.00000
LATT -1
SFAC C  
C      1  0.4519420000000  0.5314240000000  0.4424890000000 1.0
C      1  0.5285730000000  0.5744180000000  0.5126930000000 1.0
C      1  0.5083230000000  0.4840360000000  0.4892360000000 1.0
C      1  0.5173290000000  0.4720690000000  0.5341530000000 1.0
C      1  0.5183890000000  0.5663210000000  0.5377610000000 1.0
C      1  0.5656660000000  0.4722850000000  0.5651600000000 1.0
C      1  0.5001050000000  0.5617310000000  0.6453830000000 1.0
C      1  0.4989130000000  0.5548210000000  0.6198350000000 1.0
C      1  0.4925930000000  0.5803380000000  0.4402040000000 1.0
C      1  0.4841930000000  0.5014510000000  0.5656980000000 1.0
C      1  0.5191390000000  0.5303700000000  0.5830250000000 1.0
C      1  0.5012810000000  0.5685290000000  0.6705240000000 1.0
C      1  0.4265250000000  0.4944350000000  0.5086070000000 1.0
C      1  0.4436880000000  0.4316710000000  0.4757620000000 1.0
C      1  0.4849190000000  0.5223440000000  0.4760530000000 1.0
C      1  0.4996780000000  0.5171580000000  0.4292740000000 1.0
C      1  0.5035840000000  0.4056680000000  0.5182650000000 1.0
C      1  0.5255880000000  0.5556680000000  0.4914750000000 1.0
C      1  0.5302210000000  0.5269270000000  0.4951120000000 1.0
C      1  0.4975730000000  0.4777000000000  0.5144580000000 1.0
C      1  0.5581040000000  0.5527470000000  0.4561750000000 1.0
C      1  0.4989450000000  0.4921470000000  0.4155800000000 1.0
C      1  0.4628290000000  0.4970700000000  0.3831360000000 1.0
C      1  0.4978010000000  0.5473820000000  0.5928190000000 1.0
C      1  0.4174240000000  0.4413890000000  0.4700890000000 1.0
C      1  0.4742680000000  0.4834690000000  0.4038750000000 1.0
C      1  0.5194770000000  0.4713630000000  0.5890470000000 1.0
C      1  0.4099250000000  0.4881540000000  0.4853370000000 1.0
C      1  0.5246820000000  0.4466220000000  0.4278210000000 1.0
C      1  0.5405390000000  0.5639160000000  0.5558040000000 1.0
C      1  0.5095370000000  0.5113110000000  0.4843840000000 1.0
C      1  0.4754690000000  0.5573820000000  0.5773410000000 1.0
C      1  0.5730510000000  0.4824530000000  0.5411090000000 1.0
C      1  0.4704600000000  0.5753750000000  0.4870680000000 1.0
C      1  0.4019710000000  0.4598050000000  0.4850260000000 1.0
C      1  0.5456860000000  0.4677150000000  0.5829670000000 1.0
C      1  0.5567340000000  0.5823030000000  0.5116560000000 1.0
C      1  0.5254840000000  0.4445760000000  0.5326450000000 1.0
C      1  0.4807780000000  0.5841960000000  0.4639590000000 1.0
C      1  0.4697940000000  0.4795250000000  0.5171450000000 1.0
C      1  0.4317800000000  0.5429210000000  0.4564790000000 1.0
C      1  0.4616720000000  0.4249340000000  0.4548520000000 1.0
C      1  0.4586190000000  0.5618810000000  0.5563770000000 1.0
C      1  0.5368870000000  0.4345420000000  0.5067370000000 1.0
C      1  0.4516250000000  0.4573200000000  0.5207580000000 1.0
C      1  0.5285890000000  0.4952260000000  0.5476130000000 1.0
C      1  0.4992410000000  0.5448030000000  0.5386670000000 1.0
C      1  0.4814580000000  0.3803710000000  0.4550940000000 1.0
C      1  0.5542850000000  0.5164500000000  0.5090310000000 1.0
C      1  0.5081090000000  0.4189350000000  0.4684480000000 1.0
C      1  0.5192570000000  0.5381520000000  0.4258610000000 1.0
C      1  0.4541170000000  0.5029150000000  0.5086250000000 1.0
C      1  0.4627240000000  0.4601150000000  0.4144130000000 1.0
C      1  0.5589990000000  0.4461960000000  0.4943810000000 1.0
C      1  0.4651820000000  0.5261220000000  0.4966330000000 1.0
C      1  0.5550470000000  0.5393690000000  0.5510480000000 1.0
C      1  0.5073040000000  0.5641140000000  0.4245600000000 1.0
C      1  0.4874740000000  0.5220380000000  0.5481150000000 1.0
C      1  0.4502970000000  0.5603590000000  0.5305070000000 1.0
C      1  0.5366190000000  0.5189760000000  0.5624410000000 1.0
C      1  0.4535600000000  0.5542430000000  0.5010470000000 1.0
C      1  0.4960880000000  0.4832510000000  0.5820230000000 1.0
C      1  0.5348600000000  0.5658210000000  0.4670330000000 1.0
C      1  0.4021120000000  0.4538670000000  0.5138590000000 1.0
C      1  0.5169560000000  0.4424740000000  0.4548140000000 1.0
C      1  0.4294190000000  0.5527320000000  0.4818170000000 1.0
C      1  0.4530820000000  0.4357850000000  0.5023500000000 1.0
C      1  0.4599880000000  0.4393480000000  0.4308000000000 1.0
C      1  0.5189270000000  0.4723310000000  0.4174010000000 1.0
C      1  0.5471720000000  0.5375460000000  0.4341100000000 1.0
C      1  0.5147940000000  0.4658100000000  0.4698730000000 1.0
C      1  0.5668570000000  0.5374500000000  0.5242890000000 1.0
C      1  0.5180890000000  0.4149670000000  0.4948280000000 1.0
C      1  0.5369350000000  0.4268570000000  0.4126020000000 1.0
C      1  0.5477370000000  0.4074390000000  0.3989880000000 1.0
C      1  0.5665210000000  0.4908800000000  0.5142580000000 1.0
C      1  0.5080540000000  0.4223860000000  0.5400350000000 1.0
C      1  0.4836810000000  0.4072500000000  0.4594640000000 1.0
C      1  0.4246270000000  0.4683890000000  0.5247350000000 1.0
C      1  0.4784250000000  0.5230460000000  0.4482520000000 1.0
C      1  0.5781280000000  0.5534820000000  0.4775040000000 1.0
C      1  0.5742160000000  0.5597270000000  0.5063490000000 1.0
C      1  0.5693030000000  0.4709200000000  0.4947780000000 1.0
END
