TITL C-599897-7526-1297 0.956976724204886 125000 -198.55105433676 0 0 34 (C1) n - 1
REM
REM in /home/nfs/bkarasulu/CARBON/AIRSS/Generating-Clusters/TERSOFF/Only-C1/FIRE-HFTN
REM
REM
REM
REM
REM
REM ./C.cell (11c1c37f851c82e70ff6c80c92926a4b)
REM AIRSS Version 0.9.1 bugfix July 2018 build 013d7b7c2542+ Fri, 06 Jul 2018 19:26:36 +0100
REM compiler GCC version 9.2.1 20190827 (Red Hat 9.2.1-1)
REM options -cpp -mtune=generic -march=x86-64 -g -O0 -fpre-include=/usr/include/finclude/math-vector-fortran.h
REM seed -376708454 -1591743597 -1867012293 1574116802 -1428050125 -2040560282 1827865841 977604469 1782018405 709076087 -253675603 992319079 -786185741 333605159 1239459249 -1882104448 -793359439 1976425485 2072582874 513337750 1020948450 -1330794060 959168566 -1551291594 -1129368167 750203671 -1521775667 417224497 -1240653996 2147217312 1207876280 1557361824 -1593590988
REM
CELL 1.54180   50.00000   50.00000   50.00000   90.00000   90.00000   90.00000
LATT -1
SFAC C  
C      1  0.5570650000000  0.5101400000000  0.4716650000000 1.0
C      1  0.4931180000000  0.5581960000000  0.6206640000000 1.0
C      1  0.4841940000000  0.5294800000000  0.4475100000000 1.0
C      1  0.4941440000000  0.4810370000000  0.5212540000000 1.0
C      1  0.4606920000000  0.4879050000000  0.4599560000000 1.0
C      1  0.5221800000000  0.5538810000000  0.4983210000000 1.0
C      1  0.4958380000000  0.4778950000000  0.5484370000000 1.0
C      1  0.5597610000000  0.5103420000000  0.5002380000000 1.0
C      1  0.4381780000000  0.4347180000000  0.5204980000000 1.0
C      1  0.4611580000000  0.4949030000000  0.4875070000000 1.0
C      1  0.4994760000000  0.4269560000000  0.4711330000000 1.0
C      1  0.5237750000000  0.4742460000000  0.4815590000000 1.0
C      1  0.4485640000000  0.3666730000000  0.4671120000000 1.0
C      1  0.4705150000000  0.5052280000000  0.4413970000000 1.0
C      1  0.5440930000000  0.5555280000000  0.4802450000000 1.0
C      1  0.5173820000000  0.4879830000000  0.5063510000000 1.0
C      1  0.4631580000000  0.5230390000000  0.4908220000000 1.0
C      1  0.5130480000000  0.4493090000000  0.4753460000000 1.0
C      1  0.4833270000000  0.4060750000000  0.4688340000000 1.0
C      1  0.5424380000000  0.4869500000000  0.4640840000000 1.0
C      1  0.5013880000000  0.5534150000000  0.5959390000000 1.0
C      1  0.4966190000000  0.5575980000000  0.4870420000000 1.0
C      1  0.5500130000000  0.5356440000000  0.4605530000000 1.0
C      1  0.5342100000000  0.5370580000000  0.4372470000000 1.0
C      1  0.5075930000000  0.5363650000000  0.4335990000000 1.0
C      1  0.5096340000000  0.5485820000000  0.5712240000000 1.0
C      1  0.5176080000000  0.5432250000000  0.5465430000000 1.0
C      1  0.4849840000000  0.5628970000000  0.6449830000000 1.0
C      1  0.4790740000000  0.5398450000000  0.4741990000000 1.0
C      1  0.4525980000000  0.4557460000000  0.5151080000000 1.0
C      1  0.5245410000000  0.5358980000000  0.5206610000000 1.0
C      1  0.4659430000000  0.3860940000000  0.4677930000000 1.0
C      1  0.4690170000000  0.4772100000000  0.5080630000000 1.0
C      1  0.5346730000000  0.5099390000000  0.5141110000000 1.0
END
