TITL C-599890-3321-781 11.6806555402105 125000 -576.939430432966 0 0 94 (C1) n - 1
REM
REM in /home/nfs/bkarasulu/CARBON/AIRSS/Generating-Clusters/TERSOFF/Only-C1/FIRE-HFTN
REM
REM
REM
REM
REM
REM ./C.cell (11c1c37f851c82e70ff6c80c92926a4b)
REM AIRSS Version 0.9.1 bugfix July 2018 build 013d7b7c2542+ Fri, 06 Jul 2018 19:26:36 +0100
REM compiler GCC version 9.2.1 20190827 (Red Hat 9.2.1-1)
REM options -cpp -mtune=generic -march=x86-64 -g -O0 -fpre-include=/usr/include/finclude/math-vector-fortran.h
REM seed -1900809758 797434146 1747433170 -283391524 1003499151 -2012450477 1396829446 -1588920739 531445285 294394141 109110786 -1986224273 -2002946220 -1357032089 -2049599246 1135867927 1834615946 -1956976522 439896995 -94189400 -1726368067 -684672721 -7027360 -1337858549 -1781138871 826258224 -1755463378 -1824699359 300183074 -1761871829 -1863838250 1833094743 1266262598
REM
CELL 1.54180   50.00000   50.00000   50.00000   90.00000   90.00000   90.00000
LATT -1
SFAC C  
C      1  0.4679200000000  0.5320220000000  0.4887210000000 1.0
C      1  0.5781600000000  0.5105750000000  0.4734860000000 1.0
C      1  0.5292490000000  0.4063100000000  0.4899200000000 1.0
C      1  0.5133540000000  0.4631360000000  0.4563810000000 1.0
C      1  0.4769610000000  0.4383310000000  0.5752430000000 1.0
C      1  0.4506740000000  0.5295280000000  0.4039410000000 1.0
C      1  0.4435950000000  0.5231530000000  0.4745800000000 1.0
C      1  0.4319100000000  0.3794130000000  0.4983940000000 1.0
C      1  0.4916020000000  0.4635110000000  0.4739700000000 1.0
C      1  0.4690440000000  0.4817720000000  0.5679150000000 1.0
C      1  0.5972630000000  0.5646590000000  0.4285020000000 1.0
C      1  0.5786860000000  0.4285070000000  0.4436100000000 1.0
C      1  0.6400070000000  0.6186060000000  0.3478820000000 1.0
C      1  0.4418240000000  0.5390730000000  0.4505580000000 1.0
C      1  0.4279990000000  0.5014190000000  0.5367100000000 1.0
C      1  0.4142710000000  0.4753340000000  0.4863810000000 1.0
C      1  0.4066070000000  0.4585120000000  0.5357130000000 1.0
C      1  0.4429340000000  0.4693810000000  0.5687090000000 1.0
C      1  0.5358510000000  0.5385530000000  0.5573790000000 1.0
C      1  0.4472170000000  0.4409310000000  0.5744870000000 1.0
C      1  0.5759490000000  0.4663100000000  0.4964970000000 1.0
C      1  0.5859830000000  0.5514970000000  0.4485280000000 1.0
C      1  0.5312260000000  0.5047000000000  0.5023940000000 1.0
C      1  0.5103360000000  0.4793270000000  0.5916710000000 1.0
C      1  0.4049200000000  0.4313910000000  0.4653640000000 1.0
C      1  0.5113240000000  0.5667660000000  0.5207470000000 1.0
C      1  0.4694890000000  0.5811570000000  0.4657040000000 1.0
C      1  0.5168730000000  0.5294020000000  0.5758520000000 1.0
C      1  0.4707050000000  0.4872740000000  0.5166950000000 1.0
C      1  0.4440720000000  0.4969930000000  0.5134640000000 1.0
C      1  0.4479790000000  0.5674880000000  0.5605890000000 1.0
C      1  0.4760750000000  0.5394750000000  0.4056990000000 1.0
C      1  0.5615040000000  0.5245270000000  0.5567010000000 1.0
C      1  0.4336960000000  0.5289760000000  0.4252620000000 1.0
C      1  0.4316170000000  0.4995460000000  0.4874040000000 1.0
C      1  0.5044490000000  0.6102890000000  0.5803110000000 1.0
C      1  0.5561300000000  0.5527470000000  0.4875180000000 1.0
C      1  0.5882200000000  0.5081660000000  0.5190700000000 1.0
C      1  0.4577390000000  0.3749140000000  0.4930880000000 1.0
C      1  0.4702880000000  0.4470000000000  0.4678190000000 1.0
C      1  0.4093440000000  0.3961840000000  0.5005460000000 1.0
C      1  0.3987320000000  0.4689950000000  0.5101420000000 1.0
C      1  0.4882710000000  0.5939220000000  0.5671860000000 1.0
C      1  0.4709250000000  0.4236040000000  0.5292440000000 1.0
C      1  0.6505060000000  0.6318800000000  0.3280520000000 1.0
C      1  0.4548520000000  0.4300690000000  0.5088330000000 1.0
C      1  0.4284510000000  0.5497310000000  0.5573270000000 1.0
C      1  0.5968140000000  0.4160400000000  0.4296420000000 1.0
C      1  0.4032860000000  0.4095640000000  0.5246720000000 1.0
C      1  0.5367810000000  0.4537190000000  0.4480600000000 1.0
C      1  0.4874670000000  0.5495980000000  0.4312970000000 1.0
C      1  0.3990160000000  0.4077150000000  0.4768520000000 1.0
C      1  0.4630270000000  0.5599100000000  0.4480860000000 1.0
C      1  0.4483610000000  0.4407460000000  0.4835330000000 1.0
C      1  0.5734030000000  0.5287860000000  0.5308390000000 1.0
C      1  0.5086900000000  0.5078820000000  0.5897140000000 1.0
C      1  0.6186620000000  0.5916170000000  0.3882010000000 1.0
C      1  0.5302570000000  0.5728140000000  0.4492400000000 1.0
C      1  0.5731480000000  0.5381770000000  0.4694540000000 1.0
C      1  0.4836310000000  0.3795710000000  0.4883630000000 1.0
C      1  0.6293330000000  0.6051100000000  0.3680450000000 1.0
C      1  0.4737940000000  0.5749870000000  0.5527540000000 1.0
C      1  0.4232090000000  0.4507870000000  0.4745310000000 1.0
C      1  0.4092870000000  0.4304580000000  0.5425260000000 1.0
C      1  0.5598230000000  0.4814440000000  0.5864050000000 1.0
C      1  0.4845980000000  0.5625180000000  0.5296940000000 1.0
C      1  0.5065910000000  0.5042640000000  0.4915650000000 1.0
C      1  0.5363290000000  0.4316520000000  0.5293040000000 1.0
C      1  0.5109320000000  0.5680980000000  0.4308520000000 1.0
C      1  0.4224900000000  0.4773270000000  0.5508700000000 1.0
C      1  0.5134690000000  0.5776280000000  0.4942080000000 1.0
C      1  0.4897860000000  0.4818490000000  0.4958440000000 1.0
C      1  0.5160100000000  0.4281750000000  0.5463590000000 1.0
C      1  0.5595580000000  0.4416150000000  0.4589060000000 1.0
C      1  0.4878340000000  0.4649470000000  0.5826020000000 1.0
C      1  0.5334250000000  0.5537690000000  0.5326480000000 1.0
C      1  0.5367060000000  0.4697370000000  0.5936660000000 1.0
C      1  0.4213170000000  0.5263770000000  0.5468740000000 1.0
C      1  0.4686060000000  0.5469850000000  0.5124180000000 1.0
C      1  0.5440170000000  0.4269560000000  0.5026470000000 1.0
C      1  0.4792370000000  0.4904230000000  0.5432610000000 1.0
C      1  0.5682710000000  0.5035260000000  0.5738310000000 1.0
C      1  0.4899740000000  0.5879950000000  0.4818960000000 1.0
C      1  0.5568830000000  0.5476470000000  0.5156900000000 1.0
C      1  0.5078680000000  0.3906480000000  0.4864680000000 1.0
C      1  0.4883760000000  0.4270610000000  0.5513430000000 1.0
C      1  0.6079900000000  0.5781250000000  0.4083580000000 1.0
C      1  0.5829950000000  0.4935490000000  0.4955480000000 1.0
C      1  0.4928260000000  0.5237160000000  0.4769570000000 1.0
C      1  0.5209580000000  0.6259700000000  0.5930040000000 1.0
C      1  0.5615600000000  0.4438120000000  0.4874290000000 1.0
C      1  0.5350730000000  0.5694360000000  0.4770150000000 1.0
C      1  0.4972260000000  0.5274230000000  0.4495180000000 1.0
C      1  0.4263220000000  0.4247900000000  0.5648200000000 1.0
END
