TITL C-599895-9959-174 1.12005854369101e-05 125000 -317.868996874852 0 0 52 (C1) n - 1
REM
REM in /home/nfs/bkarasulu/CARBON/AIRSS/Generating-Clusters/TERSOFF/Only-C1/FIRE-HFTN
REM
REM
REM
REM
REM
REM ./C.cell (11c1c37f851c82e70ff6c80c92926a4b)
REM AIRSS Version 0.9.1 bugfix July 2018 build 013d7b7c2542+ Fri, 06 Jul 2018 19:26:36 +0100
REM compiler GCC version 9.2.1 20190827 (Red Hat 9.2.1-1)
REM options -cpp -mtune=generic -march=x86-64 -g -O0 -fpre-include=/usr/include/finclude/math-vector-fortran.h
REM seed 1773183603 139132580 -451597238 -8498100 -347110376 1633561157 -1635582451 360327840 -1141778696 -1481487178 -1435433064 543176090 -1958668087 -572890648 -1599197738 -792165686 -714733272 166789067 1798988490 -1905554523 231109001 1785084017 845919247 -1928714541 -115050758 2080919126 -1485548021 413544806 1118979806 1641921587 642732817 1251257133 -1057806136
REM
CELL 1.54180   50.00000   50.00000   50.00000   90.00000   90.00000   90.00000
LATT -1
SFAC C  
C      1  0.4756480000000  0.5502230000000  0.4877670000000 1.0
C      1  0.4110750000000  0.4747760000000  0.4793540000000 1.0
C      1  0.5459560000000  0.5154270000000  0.5287780000000 1.0
C      1  0.5272580000000  0.5529500000000  0.5064470000000 1.0
C      1  0.5557140000000  0.4687350000000  0.5390720000000 1.0
C      1  0.5514690000000  0.5367650000000  0.5107300000000 1.0
C      1  0.4725110000000  0.4681060000000  0.5086460000000 1.0
C      1  0.5098450000000  0.4402470000000  0.4999450000000 1.0
C      1  0.5097050000000  0.4856890000000  0.5667550000000 1.0
C      1  0.4908650000000  0.4458180000000  0.5449740000000 1.0
C      1  0.4350250000000  0.5318340000000  0.4514180000000 1.0
C      1  0.5626610000000  0.4928390000000  0.5252480000000 1.0
C      1  0.4517770000000  0.5639420000000  0.4820500000000 1.0
C      1  0.5695110000000  0.4474880000000  0.4969300000000 1.0
C      1  0.5322760000000  0.4663460000000  0.5578490000000 1.0
C      1  0.5215020000000  0.5465300000000  0.4767510000000 1.0
C      1  0.4313320000000  0.4906360000000  0.4891400000000 1.0
C      1  0.5416750000000  0.5156040000000  0.4411860000000 1.0
C      1  0.5388190000000  0.4713170000000  0.4667160000000 1.0
C      1  0.4514340000000  0.5262350000000  0.5534220000000 1.0
C      1  0.4944090000000  0.5437740000000  0.4669950000000 1.0
C      1  0.4927700000000  0.5097300000000  0.5192280000000 1.0
C      1  0.4327190000000  0.5553020000000  0.4648290000000 1.0
C      1  0.4967690000000  0.5108910000000  0.4273330000000 1.0
C      1  0.5187170000000  0.5106180000000  0.5318100000000 1.0
C      1  0.5615120000000  0.5221270000000  0.4866460000000 1.0
C      1  0.4556950000000  0.4928350000000  0.4733460000000 1.0
C      1  0.4938170000000  0.4823580000000  0.4260500000000 1.0
C      1  0.4037140000000  0.5161150000000  0.5196180000000 1.0
C      1  0.5683970000000  0.4949210000000  0.4961430000000 1.0
C      1  0.5074220000000  0.4612200000000  0.4717770000000 1.0
C      1  0.4277310000000  0.5036310000000  0.5147050000000 1.0
C      1  0.4829050000000  0.5246760000000  0.4479160000000 1.0
C      1  0.5001720000000  0.5415500000000  0.5572570000000 1.0
C      1  0.5440040000000  0.4876260000000  0.4443180000000 1.0
C      1  0.4730690000000  0.4887870000000  0.5305160000000 1.0
C      1  0.4771790000000  0.4769110000000  0.4828660000000 1.0
C      1  0.5222170000000  0.5219630000000  0.4218110000000 1.0
C      1  0.5619050000000  0.4704980000000  0.4829110000000 1.0
C      1  0.5121820000000  0.5567990000000  0.5328570000000 1.0
C      1  0.4852700000000  0.4731780000000  0.5544900000000 1.0
C      1  0.4854400000000  0.4442240000000  0.5162030000000 1.0
C      1  0.5437780000000  0.5306400000000  0.4652910000000 1.0
C      1  0.5299910000000  0.4341920000000  0.5207360000000 1.0
C      1  0.4794320000000  0.5325360000000  0.5089310000000 1.0
C      1  0.4986970000000  0.4605400000000  0.4417850000000 1.0
C      1  0.4479310000000  0.5045760000000  0.5350620000000 1.0
C      1  0.4718630000000  0.5421510000000  0.5617230000000 1.0
C      1  0.5565780000000  0.4447790000000  0.5215950000000 1.0
C      1  0.4570320000000  0.5142000000000  0.4546820000000 1.0
C      1  0.5190240000000  0.4411220000000  0.5475920000000 1.0
C      1  0.5116040000000  0.5140240000000  0.5597990000000 1.0
END
