TITL C-599897-7526-847 0.14757911709673 125000 -684.473491914473 0 0 113 (C1) n - 1
REM
REM in /home/nfs/bkarasulu/CARBON/AIRSS/Generating-Clusters/TERSOFF/Only-C1/FIRE-HFTN
REM
REM
REM
REM
REM
REM ./C.cell (11c1c37f851c82e70ff6c80c92926a4b)
REM AIRSS Version 0.9.1 bugfix July 2018 build 013d7b7c2542+ Fri, 06 Jul 2018 19:26:36 +0100
REM compiler GCC version 9.2.1 20190827 (Red Hat 9.2.1-1)
REM options -cpp -mtune=generic -march=x86-64 -g -O0 -fpre-include=/usr/include/finclude/math-vector-fortran.h
REM seed -251161017 1032921054 -2089573630 -1413829970 -1759198139 551586654 -1279552347 117243141 836832212 1588140535 408538860 -2078832471 691737173 1995309230 208207645 -1101713082 1461797657 -725906008 -843824588 341000337 -77922963 -221493274 -606135597 -343931260 -1945842444 -2004210268 2112447720 -80357530 450669772 1362228966 -1635318064 -1485875112 -1847792021
REM
CELL 1.54180   50.00000   50.00000   50.00000   90.00000   90.00000   90.00000
LATT -1
SFAC C  
C      1  0.4955490000000  0.4810010000000  0.3970480000000 1.0
C      1  0.5247420000000  0.4898070000000  0.6255220000000 1.0
C      1  0.5270150000000  0.4540970000000  0.3777740000000 1.0
C      1  0.4433080000000  0.4493280000000  0.4934390000000 1.0
C      1  0.4630730000000  0.5699060000000  0.6365430000000 1.0
C      1  0.5623130000000  0.4480680000000  0.4090170000000 1.0
C      1  0.5523010000000  0.4860010000000  0.6301620000000 1.0
C      1  0.5202070000000  0.4174800000000  0.5243300000000 1.0
C      1  0.5344740000000  0.4422840000000  0.4033260000000 1.0
C      1  0.4733060000000  0.5876300000000  0.6174820000000 1.0
C      1  0.4719450000000  0.5024430000000  0.6093140000000 1.0
C      1  0.4727070000000  0.5167250000000  0.4153390000000 1.0
C      1  0.5316630000000  0.5934190000000  0.5692050000000 1.0
C      1  0.5596700000000  0.4481470000000  0.5268170000000 1.0
C      1  0.5610600000000  0.4699790000000  0.6512480000000 1.0
C      1  0.4223880000000  0.4726180000000  0.4356890000000 1.0
C      1  0.4441410000000  0.5785030000000  0.6551460000000 1.0
C      1  0.4202000000000  0.5441440000000  0.4905780000000 1.0
C      1  0.4979690000000  0.5825590000000  0.4943600000000 1.0
C      1  0.5689100000000  0.4549620000000  0.6710480000000 1.0
C      1  0.4345660000000  0.4681370000000  0.5114880000000 1.0
C      1  0.4938430000000  0.4751370000000  0.4990380000000 1.0
C      1  0.5222200000000  0.4770790000000  0.5397830000000 1.0
C      1  0.4142060000000  0.5240980000000  0.4458180000000 1.0
C      1  0.5474840000000  0.4055970000000  0.4613950000000 1.0
C      1  0.4719990000000  0.4874060000000  0.4836120000000 1.0
C      1  0.5743220000000  0.4590880000000  0.5042260000000 1.0
C      1  0.5706110000000  0.4986060000000  0.6131820000000 1.0
C      1  0.4261520000000  0.5866220000000  0.6728120000000 1.0
C      1  0.4608870000000  0.5777970000000  0.4477960000000 1.0
C      1  0.4607560000000  0.4177700000000  0.5612200000000 1.0
C      1  0.4997430000000  0.4946400000000  0.4475800000000 1.0
C      1  0.5797850000000  0.5157130000000  0.5951020000000 1.0
C      1  0.4984900000000  0.4756530000000  0.4249750000000 1.0
C      1  0.5673070000000  0.4127670000000  0.4818160000000 1.0
C      1  0.5745410000000  0.4412530000000  0.4816960000000 1.0
C      1  0.5680410000000  0.5074400000000  0.4159190000000 1.0
C      1  0.4857850000000  0.4999760000000  0.3769180000000 1.0
C      1  0.4780440000000  0.5675410000000  0.4008410000000 1.0
C      1  0.5459680000000  0.4657860000000  0.5435560000000 1.0
C      1  0.5315590000000  0.5099450000000  0.3794740000000 1.0
C      1  0.5146660000000  0.4389470000000  0.3585620000000 1.0
C      1  0.4977950000000  0.5307070000000  0.4145490000000 1.0
C      1  0.4760640000000  0.5554810000000  0.5353080000000 1.0
C      1  0.5433910000000  0.5181960000000  0.4053310000000 1.0
C      1  0.4647180000000  0.4434790000000  0.5715120000000 1.0
C      1  0.5162700000000  0.5305310000000  0.5093010000000 1.0
C      1  0.4925150000000  0.5874730000000  0.4158380000000 1.0
C      1  0.5090080000000  0.5999090000000  0.5814160000000 1.0
C      1  0.4267560000000  0.3832920000000  0.5849760000000 1.0
C      1  0.4878750000000  0.5874830000000  0.4444600000000 1.0
C      1  0.4887850000000  0.5977220000000  0.5984580000000 1.0
C      1  0.5620070000000  0.5071130000000  0.5129870000000 1.0
C      1  0.5533990000000  0.5789920000000  0.5642970000000 1.0
C      1  0.4877810000000  0.5731300000000  0.5179500000000 1.0
C      1  0.5317170000000  0.4497760000000  0.4655480000000 1.0
C      1  0.4929890000000  0.4151320000000  0.5172460000000 1.0
C      1  0.4837400000000  0.5195670000000  0.6286690000000 1.0
C      1  0.4946420000000  0.5454890000000  0.3896720000000 1.0
C      1  0.5797860000000  0.5367140000000  0.5788730000000 1.0
C      1  0.5745270000000  0.5058720000000  0.4439340000000 1.0
C      1  0.4719570000000  0.4949810000000  0.4564710000000 1.0
C      1  0.5096540000000  0.5111260000000  0.6367220000000 1.0
C      1  0.4103780000000  0.4966030000000  0.4389270000000 1.0
C      1  0.4524020000000  0.5597390000000  0.4268230000000 1.0
C      1  0.5101770000000  0.4745560000000  0.6065130000000 1.0
C      1  0.4617530000000  0.5093130000000  0.3896580000000 1.0
C      1  0.5147000000000  0.4622650000000  0.4841240000000 1.0
C      1  0.4588950000000  0.5135400000000  0.4392350000000 1.0
C      1  0.4474700000000  0.5522530000000  0.4891020000000 1.0
C      1  0.4974970000000  0.5287020000000  0.4880000000000 1.0
C      1  0.4394840000000  0.5348170000000  0.4370140000000 1.0
C      1  0.4918280000000  0.4480520000000  0.4320120000000 1.0
C      1  0.4367090000000  0.5106920000000  0.3796710000000 1.0
C      1  0.5630690000000  0.4035730000000  0.5081540000000 1.0
C      1  0.4747670000000  0.4695260000000  0.5721180000000 1.0
C      1  0.5268020000000  0.5365930000000  0.4500820000000 1.0
C      1  0.4566530000000  0.5065100000000  0.4972260000000 1.0
C      1  0.5058010000000  0.5811550000000  0.4664550000000 1.0
C      1  0.5339540000000  0.4817800000000  0.3725530000000 1.0
C      1  0.4966610000000  0.4786080000000  0.5282630000000 1.0
C      1  0.5481840000000  0.4214840000000  0.5243880000000 1.0
C      1  0.5247950000000  0.5306030000000  0.4228940000000 1.0
C      1  0.5698920000000  0.4498040000000  0.4355500000000 1.0
C      1  0.4572470000000  0.5042930000000  0.5415470000000 1.0
C      1  0.5782360000000  0.4646270000000  0.3923890000000 1.0
C      1  0.5268870000000  0.5631510000000  0.4596820000000 1.0
C      1  0.4764140000000  0.4843300000000  0.5480020000000 1.0
C      1  0.5826300000000  0.4907730000000  0.3980780000000 1.0
C      1  0.3904450000000  0.6027360000000  0.7078780000000 1.0
C      1  0.5279500000000  0.4240680000000  0.4508860000000 1.0
C      1  0.5103680000000  0.5176550000000  0.4638000000000 1.0
C      1  0.5704970000000  0.5589940000000  0.5678310000000 1.0
C      1  0.4748530000000  0.4105110000000  0.5381750000000 1.0
C      1  0.4421200000000  0.4951210000000  0.5184960000000 1.0
C      1  0.4822380000000  0.4207230000000  0.4915520000000 1.0
C      1  0.4667560000000  0.4437910000000  0.4480240000000 1.0
C      1  0.5742400000000  0.4877680000000  0.4963720000000 1.0
C      1  0.4081510000000  0.5947460000000  0.6904910000000 1.0
C      1  0.4638130000000  0.4366420000000  0.4767760000000 1.0
C      1  0.5408860000000  0.5230950000000  0.5167360000000 1.0
C      1  0.5789080000000  0.4970250000000  0.4692590000000 1.0
C      1  0.5160950000000  0.4322640000000  0.4256890000000 1.0
C      1  0.4425120000000  0.4546940000000  0.4367780000000 1.0
C      1  0.5049390000000  0.5228340000000  0.3717360000000 1.0
C      1  0.4720880000000  0.5434380000000  0.6366800000000 1.0
C      1  0.4846260000000  0.4808930000000  0.5958850000000 1.0
C      1  0.4432250000000  0.3999350000000  0.5735300000000 1.0
C      1  0.4513500000000  0.5752760000000  0.4737710000000 1.0
C      1  0.4049890000000  0.5342090000000  0.4705170000000 1.0
C      1  0.4679680000000  0.5321590000000  0.4921290000000 1.0
C      1  0.5599020000000  0.4535910000000  0.4609280000000 1.0
C      1  0.4645060000000  0.5322340000000  0.5439120000000 1.0
END
