TITL C-599894-471-1075 0.821050400648732 125000 -777.628648417978 0 0 127 (C1) n - 1
REM
REM in /home/nfs/bkarasulu/CARBON/AIRSS/Generating-Clusters/TERSOFF/Only-C1/FIRE-HFTN
REM
REM
REM
REM
REM
REM ./C.cell (11c1c37f851c82e70ff6c80c92926a4b)
REM AIRSS Version 0.9.1 bugfix July 2018 build 013d7b7c2542+ Fri, 06 Jul 2018 19:26:36 +0100
REM compiler GCC version 9.2.1 20190827 (Red Hat 9.2.1-1)
REM options -cpp -mtune=generic -march=x86-64 -g -O0 -fpre-include=/usr/include/finclude/math-vector-fortran.h
REM seed 363869396 -517648984 -1639347664 -422498960 1647488103 550658226 846243602 -2025037371 -476948279 -1800537540 -24142139 1522216504 -1138635853 1617469376 -1583934544 -1331380329 -332285157 -299684653 1641177087 620060770 -1748612091 792519687 -670127514 163151914 -14526866 1117199886 140205272 100177579 727549319 -778733129 -1133014987 -545241319 -1551925585
REM
CELL 1.54180   50.00000   50.00000   50.00000   90.00000   90.00000   90.00000
LATT -1
SFAC C  
C      1  0.4916550000000  0.4280190000000  0.5312020000000 1.0
C      1  0.4863800000000  0.4961460000000  0.4712610000000 1.0
C      1  0.4502350000000  0.5031060000000  0.5382860000000 1.0
C      1  0.5634300000000  0.4895790000000  0.4524660000000 1.0
C      1  0.4969970000000  0.6031920000000  0.5215640000000 1.0
C      1  0.4909880000000  0.5199180000000  0.5550740000000 1.0
C      1  0.5644660000000  0.5133110000000  0.5053980000000 1.0
C      1  0.5323990000000  0.4946950000000  0.4467740000000 1.0
C      1  0.3653580000000  0.4726180000000  0.5717740000000 1.0
C      1  0.5225650000000  0.5242990000000  0.4421090000000 1.0
C      1  0.4290960000000  0.5121510000000  0.4458220000000 1.0
C      1  0.4364590000000  0.4502920000000  0.4484300000000 1.0
C      1  0.4817170000000  0.5225380000000  0.3594390000000 1.0
C      1  0.4211680000000  0.5627170000000  0.5539220000000 1.0
C      1  0.4618370000000  0.5465920000000  0.5812800000000 1.0
C      1  0.4484820000000  0.5889620000000  0.3310960000000 1.0
C      1  0.4481550000000  0.6204600000000  0.4886520000000 1.0
C      1  0.5122360000000  0.4719500000000  0.5828830000000 1.0
C      1  0.5055200000000  0.5422310000000  0.4830640000000 1.0
C      1  0.4709510000000  0.5271440000000  0.5999670000000 1.0
C      1  0.5539630000000  0.5056790000000  0.5920880000000 1.0
C      1  0.5572880000000  0.4581240000000  0.5696220000000 1.0
C      1  0.4122800000000  0.5221600000000  0.4637540000000 1.0
C      1  0.4137590000000  0.5612100000000  0.4977520000000 1.0
C      1  0.4919570000000  0.4754840000000  0.5411850000000 1.0
C      1  0.4206470000000  0.4567900000000  0.4989610000000 1.0
C      1  0.5018710000000  0.4065690000000  0.4472170000000 1.0
C      1  0.5884180000000  0.5340370000000  0.4491170000000 1.0
C      1  0.4503600000000  0.5795920000000  0.4671380000000 1.0
C      1  0.5865220000000  0.5051020000000  0.4895580000000 1.0
C      1  0.5368110000000  0.4368070000000  0.5647700000000 1.0
C      1  0.4707170000000  0.5445470000000  0.3496030000000 1.0
C      1  0.5526740000000  0.5512140000000  0.4781540000000 1.0
C      1  0.4077290000000  0.5021580000000  0.5620790000000 1.0
C      1  0.6067590000000  0.5365010000000  0.4292010000000 1.0
C      1  0.5397520000000  0.5530010000000  0.5913530000000 1.0
C      1  0.5182660000000  0.4232700000000  0.4294150000000 1.0
C      1  0.5691740000000  0.5320370000000  0.5539760000000 1.0
C      1  0.4596050000000  0.5667330000000  0.3403020000000 1.0
C      1  0.4154120000000  0.5624200000000  0.5260210000000 1.0
C      1  0.4424890000000  0.4609320000000  0.4022430000000 1.0
C      1  0.5140040000000  0.4109330000000  0.5259580000000 1.0
C      1  0.5303540000000  0.4997780000000  0.5395130000000 1.0
C      1  0.4825090000000  0.5876310000000  0.5028470000000 1.0
C      1  0.4701780000000  0.4311000000000  0.5502570000000 1.0
C      1  0.5777040000000  0.5036100000000  0.5528850000000 1.0
C      1  0.5687090000000  0.5998070000000  0.5485480000000 1.0
C      1  0.5357560000000  0.4440280000000  0.4379600000000 1.0
C      1  0.6076860000000  0.4372390000000  0.5488170000000 1.0
C      1  0.5112700000000  0.4427440000000  0.5798310000000 1.0
C      1  0.4770240000000  0.5037960000000  0.4450850000000 1.0
C      1  0.4420150000000  0.4646780000000  0.5144850000000 1.0
C      1  0.5072540000000  0.4921970000000  0.6021990000000 1.0
C      1  0.4543880000000  0.4356910000000  0.3978830000000 1.0
C      1  0.4481230000000  0.4691270000000  0.6366140000000 1.0
C      1  0.4755380000000  0.4975790000000  0.5487460000000 1.0
C      1  0.3862320000000  0.4875340000000  0.5671500000000 1.0
C      1  0.4641110000000  0.4854550000000  0.6240880000000 1.0
C      1  0.4934090000000  0.5255590000000  0.4343020000000 1.0
C      1  0.5083910000000  0.4637050000000  0.4063640000000 1.0
C      1  0.4368600000000  0.5415550000000  0.5657940000000 1.0
C      1  0.5950000000000  0.4342530000000  0.4936710000000 1.0
C      1  0.4756780000000  0.4056000000000  0.4338090000000 1.0
C      1  0.5121240000000  0.3979230000000  0.4998660000000 1.0
C      1  0.5554170000000  0.4406690000000  0.4571550000000 1.0
C      1  0.4813900000000  0.5368180000000  0.4974260000000 1.0
C      1  0.5015000000000  0.4356190000000  0.4083440000000 1.0
C      1  0.5873200000000  0.4200920000000  0.5452280000000 1.0
C      1  0.5055170000000  0.4115430000000  0.4752080000000 1.0
C      1  0.5280160000000  0.5413830000000  0.4661130000000 1.0
C      1  0.4306460000000  0.4752970000000  0.3823470000000 1.0
C      1  0.4806120000000  0.5639340000000  0.5665230000000 1.0
C      1  0.5711090000000  0.4197500000000  0.5003270000000 1.0
C      1  0.5165530000000  0.4806740000000  0.5555910000000 1.0
C      1  0.4375420000000  0.6108250000000  0.3220430000000 1.0
C      1  0.4808580000000  0.5018430000000  0.6088210000000 1.0
C      1  0.5605040000000  0.5422420000000  0.5051230000000 1.0
C      1  0.4237710000000  0.5819150000000  0.4810070000000 1.0
C      1  0.5118830000000  0.4572980000000  0.5004880000000 1.0
C      1  0.5384730000000  0.4193240000000  0.5403580000000 1.0
C      1  0.6166520000000  0.4776300000000  0.5192010000000 1.0
C      1  0.4063290000000  0.5377150000000  0.4844800000000 1.0
C      1  0.5593140000000  0.5336410000000  0.5814150000000 1.0
C      1  0.4224570000000  0.6100760000000  0.4882030000000 1.0
C      1  0.4614670000000  0.5657280000000  0.4454970000000 1.0
C      1  0.4959350000000  0.4549990000000  0.5227520000000 1.0
C      1  0.4793170000000  0.5501930000000  0.4326960000000 1.0
C      1  0.4313110000000  0.5153470000000  0.5551700000000 1.0
C      1  0.4752710000000  0.5609470000000  0.5120120000000 1.0
C      1  0.5047980000000  0.5809270000000  0.5671490000000 1.0
C      1  0.4433510000000  0.4697940000000  0.4293290000000 1.0
C      1  0.5253710000000  0.5470220000000  0.5332180000000 1.0
C      1  0.5652610000000  0.4857480000000  0.5733240000000 1.0
C      1  0.4520290000000  0.4927200000000  0.5112420000000 1.0
C      1  0.6017130000000  0.4822410000000  0.4959050000000 1.0
C      1  0.4714910000000  0.5606480000000  0.5394240000000 1.0
C      1  0.5251900000000  0.5377140000000  0.6108440000000 1.0
C      1  0.4493620000000  0.4472130000000  0.5372640000000 1.0
C      1  0.4375050000000  0.4243580000000  0.4547220000000 1.0
C      1  0.5739180000000  0.5557700000000  0.4599490000000 1.0
C      1  0.4715690000000  0.5083450000000  0.4938940000000 1.0
C      1  0.5057460000000  0.4394130000000  0.4801380000000 1.0
C      1  0.4759880000000  0.4227220000000  0.4099750000000 1.0
C      1  0.5293530000000  0.5091660000000  0.6075580000000 1.0
C      1  0.5935460000000  0.4594640000000  0.4807910000000 1.0
C      1  0.5547570000000  0.5524230000000  0.5336300000000 1.0
C      1  0.5150550000000  0.4900620000000  0.4717740000000 1.0
C      1  0.5156780000000  0.5238220000000  0.5434800000000 1.0
C      1  0.5532190000000  0.5777660000000  0.5518090000000 1.0
C      1  0.5553850000000  0.4200850000000  0.4768030000000 1.0
C      1  0.5425150000000  0.4959720000000  0.5137590000000 1.0
C      1  0.5816270000000  0.5095200000000  0.4613920000000 1.0
C      1  0.5265040000000  0.4704770000000  0.4280730000000 1.0
C      1  0.5005080000000  0.4812060000000  0.3864370000000 1.0
C      1  0.5725380000000  0.4629260000000  0.4610000000000 1.0
C      1  0.5647430000000  0.4169500000000  0.5281600000000 1.0
C      1  0.4846470000000  0.4320470000000  0.5755420000000 1.0
C      1  0.5325260000000  0.5735140000000  0.5730280000000 1.0
C      1  0.4516750000000  0.4010080000000  0.4480660000000 1.0
C      1  0.4505520000000  0.4959410000000  0.4377100000000 1.0
C      1  0.6186690000000  0.4596520000000  0.5390220000000 1.0
C      1  0.4430310000000  0.3760520000000  0.4547160000000 1.0
C      1  0.4669000000000  0.5991190000000  0.4824450000000 1.0
C      1  0.4919450000000  0.5011160000000  0.3712120000000 1.0
C      1  0.5029460000000  0.6021940000000  0.5478860000000 1.0
C      1  0.5268000000000  0.4805760000000  0.4955220000000 1.0
C      1  0.4115670000000  0.5829980000000  0.5696410000000 1.0
END
