TITL C-599890-3321-1026 3.29117436181649 125000 -697.182862186916 0 0 114 (C1) n - 1
REM
REM in /home/nfs/bkarasulu/CARBON/AIRSS/Generating-Clusters/TERSOFF/Only-C1/FIRE-HFTN
REM
REM
REM
REM
REM
REM ./C.cell (11c1c37f851c82e70ff6c80c92926a4b)
REM AIRSS Version 0.9.1 bugfix July 2018 build 013d7b7c2542+ Fri, 06 Jul 2018 19:26:36 +0100
REM compiler GCC version 9.2.1 20190827 (Red Hat 9.2.1-1)
REM options -cpp -mtune=generic -march=x86-64 -g -O0 -fpre-include=/usr/include/finclude/math-vector-fortran.h
REM seed 271843206 2013584677 856998444 -1056703968 -1217245725 375181077 635833330 1635733360 -1508394477 -2114424454 -2091836808 -1285037835 -4994577 748164996 -1221631757 -1602641241 330928388 -1717946207 -2011386475 1096328400 -1454104341 -984972000 -1058191586 295091895 -788241803 -22489277 -2114031236 -1498101279 -838030735 -717476794 1496391849 -725595735 -1363779111
REM
CELL 1.54180   50.00000   50.00000   50.00000   90.00000   90.00000   90.00000
LATT -1
SFAC C  
C      1  0.5369080000000  0.5214830000000  0.4897090000000 1.0
C      1  0.4523140000000  0.4471940000000  0.4327440000000 1.0
C      1  0.4968150000000  0.4321510000000  0.5586020000000 1.0
C      1  0.5555480000000  0.5638510000000  0.4730140000000 1.0
C      1  0.4492480000000  0.5870370000000  0.4494160000000 1.0
C      1  0.5796920000000  0.3635100000000  0.3951470000000 1.0
C      1  0.4077140000000  0.5694490000000  0.4701950000000 1.0
C      1  0.4973630000000  0.5881020000000  0.4331550000000 1.0
C      1  0.5131680000000  0.4521960000000  0.5687790000000 1.0
C      1  0.5731920000000  0.5016640000000  0.5205470000000 1.0
C      1  0.4283920000000  0.5668470000000  0.4499610000000 1.0
C      1  0.4868160000000  0.5213760000000  0.5919640000000 1.0
C      1  0.4295720000000  0.4831350000000  0.4801330000000 1.0
C      1  0.4411260000000  0.5263100000000  0.5675760000000 1.0
C      1  0.5591630000000  0.4298100000000  0.4365930000000 1.0
C      1  0.4078470000000  0.4737490000000  0.4365670000000 1.0
C      1  0.4271170000000  0.5079090000000  0.5499460000000 1.0
C      1  0.4359580000000  0.5532810000000  0.5609140000000 1.0
C      1  0.4857810000000  0.5882210000000  0.5633410000000 1.0
C      1  0.5594970000000  0.5662240000000  0.5558340000000 1.0
C      1  0.5729590000000  0.3852570000000  0.4087100000000 1.0
C      1  0.5360390000000  0.5692850000000  0.5393710000000 1.0
C      1  0.5032330000000  0.4699410000000  0.5886020000000 1.0
C      1  0.5723700000000  0.5206900000000  0.5675520000000 1.0
C      1  0.5131210000000  0.5541900000000  0.5454300000000 1.0
C      1  0.5941010000000  0.4857380000000  0.4802480000000 1.0
C      1  0.4359110000000  0.4621090000000  0.5698240000000 1.0
C      1  0.4687120000000  0.5948930000000  0.5151580000000 1.0
C      1  0.4578300000000  0.5229530000000  0.5908500000000 1.0
C      1  0.5321200000000  0.4196550000000  0.4982400000000 1.0
C      1  0.4003080000000  0.5327620000000  0.5087480000000 1.0
C      1  0.5830010000000  0.5750690000000  0.5422800000000 1.0
C      1  0.6120780000000  0.5076890000000  0.4808870000000 1.0
C      1  0.4711650000000  0.4294510000000  0.5173590000000 1.0
C      1  0.5801360000000  0.4785590000000  0.5044760000000 1.0
C      1  0.5583350000000  0.5216110000000  0.4466590000000 1.0
C      1  0.4736890000000  0.6050800000000  0.4889810000000 1.0
C      1  0.4214670000000  0.4656250000000  0.5245710000000 1.0
C      1  0.5639520000000  0.5734150000000  0.4983740000000 1.0
C      1  0.5126710000000  0.4030140000000  0.5098270000000 1.0
C      1  0.5635540000000  0.4315260000000  0.4642700000000 1.0
C      1  0.4381400000000  0.4657580000000  0.5014650000000 1.0
C      1  0.4704610000000  0.5130120000000  0.4161160000000 1.0
C      1  0.5379410000000  0.4899840000000  0.5569730000000 1.0
C      1  0.5346720000000  0.4623090000000  0.5535140000000 1.0
C      1  0.6142860000000  0.5336410000000  0.4877940000000 1.0
C      1  0.6065190000000  0.2768690000000  0.3411110000000 1.0
C      1  0.4595750000000  0.5274940000000  0.4871210000000 1.0
C      1  0.5662290000000  0.4069940000000  0.4222680000000 1.0
C      1  0.5576170000000  0.4980120000000  0.5753670000000 1.0
C      1  0.5998940000000  0.2982630000000  0.3544540000000 1.0
C      1  0.4794950000000  0.4545910000000  0.4769900000000 1.0
C      1  0.3984040000000  0.4507050000000  0.5245500000000 1.0
C      1  0.6086040000000  0.5315880000000  0.5345280000000 1.0
C      1  0.4844640000000  0.5194740000000  0.4971400000000 1.0
C      1  0.4041400000000  0.5963050000000  0.4792250000000 1.0
C      1  0.4284670000000  0.4574420000000  0.4270030000000 1.0
C      1  0.4321890000000  0.5443690000000  0.4336270000000 1.0
C      1  0.4506540000000  0.6057370000000  0.4715420000000 1.0
C      1  0.5545590000000  0.4351800000000  0.4904420000000 1.0
C      1  0.5619730000000  0.4945170000000  0.4402350000000 1.0
C      1  0.4334040000000  0.5260070000000  0.6390290000000 1.0
C      1  0.4980890000000  0.5634700000000  0.5681790000000 1.0
C      1  0.5299420000000  0.5088600000000  0.5372780000000 1.0
C      1  0.4483890000000  0.5267570000000  0.4218530000000 1.0
C      1  0.5415670000000  0.5810680000000  0.5145710000000 1.0
C      1  0.5647230000000  0.4541210000000  0.5095480000000 1.0
C      1  0.6067210000000  0.5476890000000  0.5109290000000 1.0
C      1  0.5341770000000  0.5428240000000  0.5916130000000 1.0
C      1  0.4100230000000  0.5199480000000  0.5302300000000 1.0
C      1  0.5092440000000  0.5186850000000  0.4842320000000 1.0
C      1  0.5519530000000  0.5358040000000  0.4699630000000 1.0
C      1  0.4060980000000  0.4778920000000  0.4647500000000 1.0
C      1  0.5390000000000  0.5812760000000  0.4581590000000 1.0
C      1  0.5876800000000  0.5687510000000  0.5141930000000 1.0
C      1  0.4506390000000  0.5727220000000  0.5159020000000 1.0
C      1  0.4719140000000  0.4317100000000  0.5456910000000 1.0
C      1  0.4273350000000  0.4653150000000  0.5960500000000 1.0
C      1  0.5527480000000  0.4510330000000  0.5353060000000 1.0
C      1  0.5427820000000  0.4795120000000  0.4255930000000 1.0
C      1  0.4709680000000  0.4464770000000  0.4516350000000 1.0
C      1  0.4446480000000  0.5230070000000  0.6157100000000 1.0
C      1  0.4995620000000  0.6043940000000  0.4775940000000 1.0
C      1  0.5470330000000  0.5115090000000  0.5146200000000 1.0
C      1  0.5473950000000  0.4518890000000  0.4238930000000 1.0
C      1  0.4176790000000  0.4639510000000  0.6202200000000 1.0
C      1  0.4705300000000  0.3892080000000  0.4902140000000 1.0
C      1  0.5818400000000  0.4813270000000  0.4553170000000 1.0
C      1  0.5050010000000  0.5441030000000  0.5887000000000 1.0
C      1  0.4859110000000  0.5191270000000  0.5251900000000 1.0
C      1  0.5135500000000  0.5927640000000  0.4557810000000 1.0
C      1  0.4287410000000  0.4795820000000  0.5486680000000 1.0
C      1  0.5583500000000  0.5450780000000  0.5749780000000 1.0
C      1  0.4362290000000  0.5690820000000  0.5395360000000 1.0
C      1  0.5931590000000  0.3200160000000  0.3680210000000 1.0
C      1  0.4970190000000  0.4951370000000  0.5952160000000 1.0
C      1  0.5187510000000  0.4909350000000  0.4168840000000 1.0
C      1  0.5041760000000  0.4657480000000  0.4803260000000 1.0
C      1  0.4945290000000  0.5017350000000  0.4147540000000 1.0
C      1  0.3991470000000  0.5483320000000  0.4868950000000 1.0
C      1  0.3902750000000  0.4857620000000  0.4194120000000 1.0
C      1  0.4846820000000  0.4070350000000  0.5055060000000 1.0
C      1  0.3814290000000  0.4778370000000  0.4767170000000 1.0
C      1  0.4706390000000  0.5862400000000  0.4312380000000 1.0
C      1  0.5867150000000  0.5158050000000  0.5425610000000 1.0
C      1  0.4796380000000  0.6014040000000  0.5404240000000 1.0
C      1  0.4428090000000  0.5076450000000  0.4770670000000 1.0
C      1  0.4622550000000  0.4502250000000  0.4995200000000 1.0
C      1  0.5207530000000  0.3821370000000  0.5256990000000 1.0
C      1  0.4514260000000  0.5526960000000  0.4963110000000 1.0
C      1  0.5088640000000  0.5270960000000  0.5386540000000 1.0
C      1  0.4249480000000  0.6138120000000  0.4805390000000 1.0
C      1  0.4502310000000  0.4394420000000  0.5615310000000 1.0
C      1  0.5864260000000  0.3417630000000  0.3815840000000 1.0
END
