TITL C-599890-3321-1479 0.0125438754795793 125000 -662.416265051254 0 0 110 (C1) n - 1
REM
REM in /home/nfs/bkarasulu/CARBON/AIRSS/Generating-Clusters/TERSOFF/Only-C1/FIRE-HFTN
REM
REM
REM
REM
REM
REM ./C.cell (11c1c37f851c82e70ff6c80c92926a4b)
REM AIRSS Version 0.9.1 bugfix July 2018 build 013d7b7c2542+ Fri, 06 Jul 2018 19:26:36 +0100
REM compiler GCC version 9.2.1 20190827 (Red Hat 9.2.1-1)
REM options -cpp -mtune=generic -march=x86-64 -g -O0 -fpre-include=/usr/include/finclude/math-vector-fortran.h
REM seed 1903948744 1993770244 -1402765425 -627897971 2093550423 861085769 -1853664351 -509628071 -1734459829 1573190147 382415961 225793245 1580368360 -1003589403 -585650462 -1563330813 -448005464 -247633423 -1373818460 1135789507 1667431865 -1752309603 1651517680 1302675203 777513889 1845725840 -1318189508 1977498397 27160730 -1485238838 642782254 -728022555 1960994191
REM
CELL 1.54180   50.00000   50.00000   50.00000   90.00000   90.00000   90.00000
LATT -1
SFAC C  
C      1  0.5416150000000  0.4783720000000  0.5700350000000 1.0
C      1  0.4182550000000  0.5086920000000  0.5209220000000 1.0
C      1  0.4288770000000  0.4657430000000  0.5770710000000 1.0
C      1  0.4713110000000  0.4456240000000  0.4161890000000 1.0
C      1  0.5992850000000  0.5232770000000  0.3814170000000 1.0
C      1  0.5192020000000  0.5561390000000  0.4139800000000 1.0
C      1  0.4935880000000  0.5553140000000  0.4283170000000 1.0
C      1  0.4725240000000  0.4688540000000  0.3735080000000 1.0
C      1  0.4539940000000  0.4759250000000  0.4657400000000 1.0
C      1  0.4925070000000  0.4415470000000  0.5965160000000 1.0
C      1  0.4715340000000  0.4887940000000  0.5436500000000 1.0
C      1  0.5431280000000  0.5117200000000  0.4739680000000 1.0
C      1  0.4771980000000  0.6048300000000  0.4974460000000 1.0
C      1  0.6321850000000  0.4291160000000  0.5063730000000 1.0
C      1  0.5344140000000  0.4252420000000  0.4973840000000 1.0
C      1  0.4926120000000  0.5147180000000  0.4940170000000 1.0
C      1  0.4429630000000  0.5104040000000  0.5865040000000 1.0
C      1  0.4090310000000  0.4854600000000  0.5676880000000 1.0
C      1  0.5313920000000  0.5472500000000  0.5360150000000 1.0
C      1  0.5373860000000  0.5341890000000  0.5992510000000 1.0
C      1  0.4734230000000  0.4601570000000  0.5031840000000 1.0
C      1  0.4310560000000  0.4874020000000  0.4780760000000 1.0
C      1  0.4310070000000  0.5874220000000  0.4997870000000 1.0
C      1  0.4302550000000  0.4845680000000  0.5085570000000 1.0
C      1  0.4710110000000  0.5165130000000  0.5499930000000 1.0
C      1  0.5190820000000  0.4439610000000  0.5123930000000 1.0
C      1  0.5771380000000  0.4794560000000  0.5305970000000 1.0
C      1  0.4325490000000  0.5602040000000  0.5076010000000 1.0
C      1  0.4878270000000  0.4118640000000  0.4820200000000 1.0
C      1  0.5609830000000  0.4872860000000  0.4779820000000 1.0
C      1  0.5352030000000  0.5758110000000  0.4281330000000 1.0
C      1  0.5281740000000  0.5900750000000  0.4766760000000 1.0
C      1  0.4898330000000  0.5899950000000  0.5411960000000 1.0
C      1  0.4196930000000  0.5268400000000  0.5426790000000 1.0
C      1  0.5083100000000  0.4939290000000  0.5058530000000 1.0
C      1  0.5957470000000  0.5231620000000  0.5433000000000 1.0
C      1  0.5741830000000  0.5469630000000  0.4865670000000 1.0
C      1  0.4077970000000  0.4940570000000  0.4641680000000 1.0
C      1  0.5175890000000  0.4833540000000  0.5558890000000 1.0
C      1  0.5738310000000  0.4548730000000  0.5457360000000 1.0
C      1  0.5852460000000  0.5069450000000  0.3961060000000 1.0
C      1  0.4411920000000  0.5718110000000  0.5527760000000 1.0
C      1  0.4908670000000  0.4914220000000  0.4124740000000 1.0
C      1  0.4152040000000  0.4593400000000  0.5165260000000 1.0
C      1  0.5218420000000  0.5111730000000  0.4533550000000 1.0
C      1  0.4200450000000  0.4415780000000  0.5362660000000 1.0
C      1  0.4796760000000  0.4213700000000  0.5350770000000 1.0
C      1  0.4389220000000  0.5434930000000  0.4626870000000 1.0
C      1  0.4669860000000  0.5226380000000  0.5774470000000 1.0
C      1  0.4587370000000  0.4782930000000  0.5201040000000 1.0
C      1  0.5065960000000  0.4322190000000  0.5348290000000 1.0
C      1  0.4196180000000  0.5130430000000  0.5679580000000 1.0
C      1  0.5605840000000  0.5003950000000  0.5710570000000 1.0
C      1  0.4798830000000  0.4856280000000  0.4572690000000 1.0
C      1  0.5549560000000  0.4537370000000  0.5653550000000 1.0
C      1  0.4439280000000  0.4825100000000  0.5960600000000 1.0
C      1  0.4686150000000  0.4290710000000  0.4373070000000 1.0
C      1  0.5703960000000  0.4910360000000  0.4112130000000 1.0
C      1  0.4934090000000  0.5064280000000  0.4390720000000 1.0
C      1  0.5188100000000  0.5778700000000  0.5004320000000 1.0
C      1  0.5555000000000  0.4398780000000  0.4601670000000 1.0
C      1  0.4722480000000  0.5325440000000  0.5017890000000 1.0
C      1  0.5817450000000  0.4473850000000  0.4980280000000 1.0
C      1  0.4695750000000  0.4274650000000  0.4655940000000 1.0
C      1  0.5032310000000  0.4654680000000  0.4971030000000 1.0
C      1  0.4506290000000  0.6048120000000  0.4937660000000 1.0
C      1  0.6564340000000  0.4207010000000  0.5109290000000 1.0
C      1  0.4671310000000  0.4694260000000  0.3480180000000 1.0
C      1  0.3843770000000  0.4966010000000  0.4530130000000 1.0
C      1  0.5477770000000  0.5367620000000  0.4890270000000 1.0
C      1  0.4908780000000  0.4742860000000  0.5597820000000 1.0
C      1  0.5283190000000  0.4297280000000  0.4531520000000 1.0
C      1  0.6044180000000  0.5406680000000  0.5251400000000 1.0
C      1  0.4775420000000  0.4074240000000  0.5094230000000 1.0
C      1  0.5016420000000  0.4674710000000  0.4657310000000 1.0
C      1  0.5206580000000  0.5880300000000  0.4500330000000 1.0
C      1  0.5744680000000  0.4757040000000  0.5020790000000 1.0
C      1  0.5148530000000  0.4532950000000  0.4445380000000 1.0
C      1  0.5106510000000  0.5833620000000  0.5586530000000 1.0
C      1  0.5165720000000  0.4151770000000  0.4757960000000 1.0
C      1  0.5617960000000  0.4682750000000  0.4549140000000 1.0
C      1  0.4487990000000  0.5437510000000  0.4896000000000 1.0
C      1  0.5607020000000  0.4321720000000  0.4874150000000 1.0
C      1  0.5312410000000  0.5524670000000  0.5079310000000 1.0
C      1  0.6075370000000  0.4377350000000  0.5019010000000 1.0
C      1  0.4887800000000  0.5351390000000  0.5899400000000 1.0
C      1  0.4642810000000  0.4346060000000  0.5565620000000 1.0
C      1  0.4141810000000  0.5551700000000  0.4584490000000 1.0
C      1  0.4512460000000  0.5326930000000  0.4395100000000 1.0
C      1  0.4792240000000  0.5324930000000  0.4360070000000 1.0
C      1  0.4935020000000  0.5789680000000  0.4448040000000 1.0
C      1  0.5963060000000  0.5497070000000  0.5013170000000 1.0
C      1  0.4826050000000  0.4504220000000  0.5727050000000 1.0
C      1  0.5285140000000  0.4666230000000  0.4232190000000 1.0
C      1  0.5546170000000  0.4763490000000  0.4284900000000 1.0
C      1  0.5780530000000  0.5021950000000  0.5481150000000 1.0
C      1  0.5209990000000  0.4962710000000  0.5307800000000 1.0
C      1  0.4962530000000  0.5911460000000  0.5132240000000 1.0
C      1  0.4368110000000  0.4440590000000  0.5590300000000 1.0
C      1  0.4731670000000  0.5353780000000  0.5298710000000 1.0
C      1  0.4356010000000  0.5231130000000  0.4190450000000 1.0
C      1  0.4599930000000  0.4504990000000  0.4792560000000 1.0
C      1  0.5579710000000  0.5187060000000  0.5919260000000 1.0
C      1  0.5213750000000  0.5574690000000  0.5605380000000 1.0
C      1  0.4281490000000  0.5534660000000  0.5355100000000 1.0
C      1  0.4532350000000  0.4748570000000  0.6204600000000 1.0
C      1  0.4634490000000  0.5869110000000  0.5509760000000 1.0
C      1  0.5261330000000  0.5423750000000  0.3916750000000 1.0
C      1  0.5153580000000  0.5431280000000  0.5844570000000 1.0
C      1  0.4782690000000  0.4685710000000  0.4008590000000 1.0
END
