TITL C-599896-8500-944 0.156410106106173 125000 -143.693342699262 0 0 25 (C1) n - 1
REM
REM in /home/nfs/bkarasulu/CARBON/AIRSS/Generating-Clusters/TERSOFF/Only-C1/FIRE-HFTN
REM
REM
REM
REM
REM
REM ./C.cell (11c1c37f851c82e70ff6c80c92926a4b)
REM AIRSS Version 0.9.1 bugfix July 2018 build 013d7b7c2542+ Fri, 06 Jul 2018 19:26:36 +0100
REM compiler GCC version 9.2.1 20190827 (Red Hat 9.2.1-1)
REM options -cpp -mtune=generic -march=x86-64 -g -O0 -fpre-include=/usr/include/finclude/math-vector-fortran.h
REM seed -1250137946 1151847515 -1202312339 -1167486538 1319242628 -1352788045 -1402765194 -1053246632 -534614903 -462777152 738379237 1325156816 -1857914446 2105179723 -322505683 2011983668 -1731313744 -1306821524 918724773 1820401204 -1262242742 1040362550 -482480565 -1649991962 1216871625 -993556059 1904332496 -1316728618 -1172857497 -560046513 243718709 1003179317 1343339309
REM
CELL 1.54180   50.00000   50.00000   50.00000   90.00000   90.00000   90.00000
LATT -1
SFAC C  
C      1  0.5594830000000  0.4764010000000  0.5255410000000 1.0
C      1  0.4454600000000  0.5594700000000  0.4403530000000 1.0
C      1  0.5070690000000  0.5511870000000  0.5214140000000 1.0
C      1  0.5238220000000  0.5253650000000  0.5600290000000 1.0
C      1  0.5160290000000  0.4952850000000  0.4162030000000 1.0
C      1  0.4842160000000  0.4699760000000  0.5487630000000 1.0
C      1  0.5253570000000  0.5470150000000  0.5412990000000 1.0
C      1  0.5272610000000  0.4716990000000  0.4854530000000 1.0
C      1  0.4951670000000  0.4966690000000  0.4338460000000 1.0
C      1  0.4797100000000  0.4711920000000  0.5223300000000 1.0
C      1  0.4908840000000  0.4757730000000  0.4526280000000 1.0
C      1  0.5460370000000  0.5084870000000  0.5626500000000 1.0
C      1  0.4922650000000  0.4875150000000  0.5675910000000 1.0
C      1  0.5477500000000  0.4704500000000  0.5023870000000 1.0
C      1  0.4614700000000  0.5392460000000  0.4365760000000 1.0
C      1  0.4768400000000  0.5288080000000  0.5491090000000 1.0
C      1  0.4778420000000  0.5186050000000  0.4337820000000 1.0
C      1  0.4636990000000  0.4313790000000  0.4383500000000 1.0
C      1  0.4784330000000  0.5155040000000  0.5027860000000 1.0
C      1  0.4970150000000  0.5151540000000  0.5643900000000 1.0
C      1  0.4768710000000  0.4528240000000  0.4451120000000 1.0
C      1  0.4841780000000  0.4879290000000  0.5000170000000 1.0
C      1  0.5591570000000  0.4900560000000  0.5484370000000 1.0
C      1  0.5007960000000  0.4784070000000  0.4790010000000 1.0
C      1  0.4831910000000  0.5356020000000  0.5219510000000 1.0
END
