TITL C-599894-471-1361 23.0698942872874 125000 -555.409552647932 0 0 93 (C1) n - 1
REM
REM in /home/nfs/bkarasulu/CARBON/AIRSS/Generating-Clusters/TERSOFF/Only-C1/FIRE-HFTN
REM
REM
REM
REM
REM
REM ./C.cell (11c1c37f851c82e70ff6c80c92926a4b)
REM AIRSS Version 0.9.1 bugfix July 2018 build 013d7b7c2542+ Fri, 06 Jul 2018 19:26:36 +0100
REM compiler GCC version 9.2.1 20190827 (Red Hat 9.2.1-1)
REM options -cpp -mtune=generic -march=x86-64 -g -O0 -fpre-include=/usr/include/finclude/math-vector-fortran.h
REM seed 329344976 -1590827131 1815061359 1372392885 -179484233 1231491295 1255688236 1636420670 1340039271 1824800338 -92578550 -1909789121 -389307984 -601644857 -1852971672 -1153806770 930731508 -526990474 1022157911 -605204871 1352816728 1232336759 -1853262254 -396438863 2009098977 -1632088346 479084402 -839496683 1711400358 1047537399 -985701400 2070985332 -320334544
REM
CELL 1.54180   50.00000   50.00000   50.00000   90.00000   90.00000   90.00000
LATT -1
SFAC C  
C      1  0.5616420000000  0.4772130000000  0.4582950000000 1.0
C      1  0.4779780000000  0.4975410000000  0.4789170000000 1.0
C      1  0.4586880000000  0.4499620000000  0.3973280000000 1.0
C      1  0.5104940000000  0.4144370000000  0.5541870000000 1.0
C      1  0.4118240000000  0.5414530000000  0.4900440000000 1.0
C      1  0.6070860000000  0.6380030000000  0.4571120000000 1.0
C      1  0.4796680000000  0.4548600000000  0.5145520000000 1.0
C      1  0.4808650000000  0.4127190000000  0.5573810000000 1.0
C      1  0.4338220000000  0.5077380000000  0.4707240000000 1.0
C      1  0.5192930000000  0.4914720000000  0.4611350000000 1.0
C      1  0.5743490000000  0.4680750000000  0.4833270000000 1.0
C      1  0.5177290000000  0.4388870000000  0.5690620000000 1.0
C      1  0.5668530000000  0.4818500000000  0.5078970000000 1.0
C      1  0.4518410000000  0.5903470000000  0.4947480000000 1.0
C      1  0.4992790000000  0.5805600000000  0.4263460000000 1.0
C      1  0.5487030000000  0.5300490000000  0.4385180000000 1.0
C      1  0.4921660000000  0.4491520000000  0.5810520000000 1.0
C      1  0.5799190000000  0.5937020000000  0.4674850000000 1.0
C      1  0.4578790000000  0.4362100000000  0.4735250000000 1.0
C      1  0.6039050000000  0.4700000000000  0.5371770000000 1.0
C      1  0.5622050000000  0.5040810000000  0.4447680000000 1.0
C      1  0.4744920000000  0.4556980000000  0.4172390000000 1.0
C      1  0.4275790000000  0.5029370000000  0.5320120000000 1.0
C      1  0.4665790000000  0.4784430000000  0.5225590000000 1.0
C      1  0.5043450000000  0.4240360000000  0.4621690000000 1.0
C      1  0.4153960000000  0.4759200000000  0.5300570000000 1.0
C      1  0.5137940000000  0.4476430000000  0.4487660000000 1.0
C      1  0.5045360000000  0.5305370000000  0.5400650000000 1.0
C      1  0.5262350000000  0.4040840000000  0.5324820000000 1.0
C      1  0.5655310000000  0.5704500000000  0.4734240000000 1.0
C      1  0.4546370000000  0.4960890000000  0.5418620000000 1.0
C      1  0.4718640000000  0.5368480000000  0.4326480000000 1.0
C      1  0.5068470000000  0.5411670000000  0.5904270000000 1.0
C      1  0.5124870000000  0.3950980000000  0.5075310000000 1.0
C      1  0.5567390000000  0.5660640000000  0.5005250000000 1.0
C      1  0.5231800000000  0.5371210000000  0.4825240000000 1.0
C      1  0.4326870000000  0.4501060000000  0.4693210000000 1.0
C      1  0.5378160000000  0.5046670000000  0.5888160000000 1.0
C      1  0.6204590000000  0.6598060000000  0.4520650000000 1.0
C      1  0.5411850000000  0.4928760000000  0.5071060000000 1.0
C      1  0.4239530000000  0.5887590000000  0.4964310000000 1.0
C      1  0.4165270000000  0.4404300000000  0.4940540000000 1.0
C      1  0.4761690000000  0.4207770000000  0.4589120000000 1.0
C      1  0.4094170000000  0.4678250000000  0.5029610000000 1.0
C      1  0.5626900000000  0.4979300000000  0.5763510000000 1.0
C      1  0.4890100000000  0.5706060000000  0.5193640000000 1.0
C      1  0.4631090000000  0.4839710000000  0.5676560000000 1.0
C      1  0.4222180000000  0.5331910000000  0.4631050000000 1.0
C      1  0.5596880000000  0.5524050000000  0.4524630000000 1.0
C      1  0.5280850000000  0.5279960000000  0.6005210000000 1.0
C      1  0.4177650000000  0.5241990000000  0.5140690000000 1.0
C      1  0.5450220000000  0.4238080000000  0.5202700000000 1.0
C      1  0.4895480000000  0.4898850000000  0.4525600000000 1.0
C      1  0.5720790000000  0.5739440000000  0.5217580000000 1.0
C      1  0.5225990000000  0.5345750000000  0.4245650000000 1.0
C      1  0.4347080000000  0.4270420000000  0.5121890000000 1.0
C      1  0.4962410000000  0.5367250000000  0.5661730000000 1.0
C      1  0.4833890000000  0.5092410000000  0.4299650000000 1.0
C      1  0.5211550000000  0.4820240000000  0.5262460000000 1.0
C      1  0.5606630000000  0.4749610000000  0.5581480000000 1.0
C      1  0.5321560000000  0.5527190000000  0.5044910000000 1.0
C      1  0.4902900000000  0.4786020000000  0.5794280000000 1.0
C      1  0.5030660000000  0.5049830000000  0.5270920000000 1.0
C      1  0.5243740000000  0.5076100000000  0.4857940000000 1.0
C      1  0.4769210000000  0.6350240000000  0.4778610000000 1.0
C      1  0.4675060000000  0.5673860000000  0.5008710000000 1.0
C      1  0.5086090000000  0.4573560000000  0.5163340000000 1.0
C      1  0.4684260000000  0.4355720000000  0.5709260000000 1.0
C      1  0.5707050000000  0.4246270000000  0.5085720000000 1.0
C      1  0.4963120000000  0.5046910000000  0.4989040000000 1.0
C      1  0.5252600000000  0.4383690000000  0.5038970000000 1.0
C      1  0.4983680000000  0.5535550000000  0.4282690000000 1.0
C      1  0.5114940000000  0.5539270000000  0.5244950000000 1.0
C      1  0.4433600000000  0.5426380000000  0.4424220000000 1.0
C      1  0.4252960000000  0.4285090000000  0.5384530000000 1.0
C      1  0.4486190000000  0.4573420000000  0.5671420000000 1.0
C      1  0.4906100000000  0.4628610000000  0.4387730000000 1.0
C      1  0.5082810000000  0.5112540000000  0.4145210000000 1.0
C      1  0.4977990000000  0.5456760000000  0.4728380000000 1.0
C      1  0.4619300000000  0.4349710000000  0.5029300000000 1.0
C      1  0.4247430000000  0.4820980000000  0.4745450000000 1.0
C      1  0.5770100000000  0.4751230000000  0.5343470000000 1.0
C      1  0.5138010000000  0.4166330000000  0.4875190000000 1.0
C      1  0.5934890000000  0.6158360000000  0.4622430000000 1.0
C      1  0.5344470000000  0.4672260000000  0.4550320000000 1.0
C      1  0.5186090000000  0.4851040000000  0.5793960000000 1.0
C      1  0.5807780000000  0.4407790000000  0.4889550000000 1.0
C      1  0.4708860000000  0.5442790000000  0.4837290000000 1.0
C      1  0.4641930000000  0.6139320000000  0.4863610000000 1.0
C      1  0.4257410000000  0.4548730000000  0.5495210000000 1.0
C      1  0.5350900000000  0.4622180000000  0.5668460000000 1.0
C      1  0.4588300000000  0.5173310000000  0.4802900000000 1.0
C      1  0.4063920000000  0.5687010000000  0.4942610000000 1.0
END
