TITL C-599894-471-311 -0.0481092732665906 125000 -716.636829511515 0 0 116 (C1) n - 1
REM
REM in /home/nfs/bkarasulu/CARBON/AIRSS/Generating-Clusters/TERSOFF/Only-C1/FIRE-HFTN
REM
REM
REM
REM
REM
REM ./C.cell (11c1c37f851c82e70ff6c80c92926a4b)
REM AIRSS Version 0.9.1 bugfix July 2018 build 013d7b7c2542+ Fri, 06 Jul 2018 19:26:36 +0100
REM compiler GCC version 9.2.1 20190827 (Red Hat 9.2.1-1)
REM options -cpp -mtune=generic -march=x86-64 -g -O0 -fpre-include=/usr/include/finclude/math-vector-fortran.h
REM seed 517400517 -1814958765 -812772430 1746812780 -1148539643 119688229 1721556690 -743559013 287114171 361678817 -709897373 -5902722 -1373686832 1960862750 307550215 -1962181945 908330338 203061670 -1485035770 1408096967 1458492751 56921758 1224448601 -610148751 1714246557 -1128197795 -590706148 523414914 843488729 1525824582 -1209330992 -1451320392 1886296731
REM
CELL 1.54180   50.00000   50.00000   50.00000   90.00000   90.00000   90.00000
LATT -1
SFAC C  
C      1  0.4469710000000  0.4966160000000  0.4228340000000 1.0
C      1  0.4644950000000  0.5905030000000  0.4551610000000 1.0
C      1  0.6089860000000  0.4791730000000  0.4948160000000 1.0
C      1  0.5507910000000  0.4898880000000  0.5999300000000 1.0
C      1  0.5275220000000  0.5228480000000  0.5701570000000 1.0
C      1  0.5804190000000  0.4929840000000  0.4473760000000 1.0
C      1  0.5076950000000  0.5266660000000  0.4439250000000 1.0
C      1  0.4298450000000  0.4497880000000  0.4636290000000 1.0
C      1  0.4171980000000  0.5393790000000  0.5413660000000 1.0
C      1  0.5029330000000  0.5314770000000  0.5146760000000 1.0
C      1  0.4993670000000  0.3991440000000  0.5100780000000 1.0
C      1  0.5538150000000  0.5608180000000  0.4496780000000 1.0
C      1  0.5899160000000  0.4587560000000  0.4921000000000 1.0
C      1  0.5168040000000  0.5693180000000  0.4850780000000 1.0
C      1  0.4867120000000  0.4584250000000  0.5049250000000 1.0
C      1  0.5939140000000  0.5647850000000  0.4822680000000 1.0
C      1  0.4370060000000  0.4211990000000  0.5266660000000 1.0
C      1  0.4238090000000  0.5453630000000  0.5681860000000 1.0
C      1  0.4708800000000  0.5845270000000  0.5059900000000 1.0
C      1  0.4238110000000  0.4631240000000  0.5551410000000 1.0
C      1  0.4813750000000  0.5176680000000  0.5259850000000 1.0
C      1  0.4579710000000  0.5170200000000  0.5109060000000 1.0
C      1  0.6025950000000  0.4973930000000  0.5452870000000 1.0
C      1  0.5180860000000  0.4879340000000  0.4648430000000 1.0
C      1  0.4858280000000  0.4492090000000  0.5552200000000 1.0
C      1  0.5000370000000  0.5869850000000  0.5052120000000 1.0
C      1  0.5243970000000  0.4714410000000  0.4060870000000 1.0
C      1  0.5327620000000  0.5089270000000  0.5454030000000 1.0
C      1  0.5392190000000  0.4467510000000  0.4947060000000 1.0
C      1  0.5476520000000  0.5240340000000  0.5021490000000 1.0
C      1  0.4893570000000  0.5086280000000  0.4026610000000 1.0
C      1  0.5675420000000  0.5619510000000  0.5444990000000 1.0
C      1  0.5426340000000  0.5143960000000  0.5925200000000 1.0
C      1  0.4419630000000  0.4510270000000  0.5747740000000 1.0
C      1  0.4164270000000  0.5415540000000  0.4354140000000 1.0
C      1  0.4847420000000  0.4107510000000  0.4888810000000 1.0
C      1  0.5586190000000  0.4391210000000  0.5443260000000 1.0
C      1  0.4290600000000  0.4787810000000  0.4653760000000 1.0
C      1  0.4147270000000  0.4894580000000  0.5490070000000 1.0
C      1  0.4343710000000  0.4161950000000  0.4990550000000 1.0
C      1  0.4872450000000  0.4933120000000  0.5386990000000 1.0
C      1  0.6119480000000  0.5542990000000  0.4991400000000 1.0
C      1  0.5816410000000  0.4508240000000  0.5268970000000 1.0
C      1  0.5109590000000  0.5837810000000  0.5533990000000 1.0
C      1  0.4763020000000  0.4789350000000  0.5955210000000 1.0
C      1  0.5132390000000  0.4943180000000  0.3973280000000 1.0
C      1  0.4691600000000  0.4601290000000  0.5764110000000 1.0
C      1  0.6018810000000  0.5043200000000  0.4878720000000 1.0
C      1  0.5458450000000  0.4215220000000  0.5058750000000 1.0
C      1  0.5315330000000  0.5121410000000  0.4565790000000 1.0
C      1  0.6168620000000  0.5381930000000  0.5201420000000 1.0
C      1  0.4015540000000  0.5355390000000  0.4574470000000 1.0
C      1  0.5963850000000  0.4715270000000  0.5408960000000 1.0
C      1  0.4852910000000  0.4211530000000  0.5488720000000 1.0
C      1  0.4751800000000  0.4448110000000  0.4030720000000 1.0
C      1  0.4514250000000  0.4904720000000  0.5026630000000 1.0
C      1  0.4905040000000  0.5312410000000  0.4204320000000 1.0
C      1  0.5798380000000  0.4649610000000  0.4577880000000 1.0
C      1  0.4682450000000  0.5507260000000  0.4225690000000 1.0
C      1  0.5006860000000  0.5424890000000  0.4882750000000 1.0
C      1  0.5041380000000  0.5392840000000  0.5754460000000 1.0
C      1  0.4567150000000  0.4126410000000  0.4812690000000 1.0
C      1  0.4265970000000  0.5491200000000  0.4955930000000 1.0
C      1  0.5668510000000  0.5676840000000  0.4752390000000 1.0
C      1  0.5288760000000  0.5242910000000  0.5222690000000 1.0
C      1  0.5644170000000  0.5400960000000  0.4319670000000 1.0
C      1  0.4797890000000  0.4401520000000  0.4519200000000 1.0
C      1  0.4246500000000  0.4881640000000  0.4923270000000 1.0
C      1  0.4494930000000  0.5339800000000  0.4891900000000 1.0
C      1  0.4729670000000  0.5761380000000  0.4341870000000 1.0
C      1  0.5355180000000  0.4438170000000  0.4457860000000 1.0
C      1  0.4877560000000  0.5282590000000  0.5956750000000 1.0
C      1  0.5240310000000  0.4427220000000  0.4716930000000 1.0
C      1  0.4652400000000  0.4929440000000  0.4019550000000 1.0
C      1  0.4591820000000  0.5920330000000  0.4813700000000 1.0
C      1  0.5634220000000  0.4463840000000  0.4451790000000 1.0
C      1  0.5532430000000  0.5179330000000  0.4757200000000 1.0
C      1  0.4045890000000  0.5327760000000  0.4856910000000 1.0
C      1  0.4962040000000  0.4366800000000  0.4774470000000 1.0
C      1  0.4792270000000  0.5041780000000  0.6032570000000 1.0
C      1  0.5380250000000  0.4700380000000  0.5121480000000 1.0
C      1  0.4438770000000  0.4996360000000  0.4505500000000 1.0
C      1  0.4563960000000  0.4132220000000  0.5479250000000 1.0
C      1  0.4576860000000  0.5227320000000  0.4642170000000 1.0
C      1  0.5836560000000  0.5423500000000  0.5531930000000 1.0
C      1  0.4943050000000  0.5628240000000  0.5620680000000 1.0
C      1  0.5092000000000  0.4108980000000  0.5349450000000 1.0
C      1  0.5553910000000  0.5728310000000  0.5233280000000 1.0
C      1  0.5735310000000  0.5138690000000  0.4276610000000 1.0
C      1  0.5384840000000  0.4811840000000  0.5394880000000 1.0
C      1  0.4920370000000  0.4934560000000  0.4744780000000 1.0
C      1  0.4531870000000  0.4328370000000  0.4589280000000 1.0
C      1  0.4159050000000  0.4337410000000  0.4840480000000 1.0
C      1  0.5118890000000  0.5957780000000  0.5292930000000 1.0
C      1  0.5468600000000  0.5718540000000  0.4966630000000 1.0
C      1  0.4094660000000  0.5125170000000  0.5322490000000 1.0
C      1  0.4745090000000  0.4786530000000  0.4908060000000 1.0
C      1  0.5507470000000  0.4671390000000  0.5856880000000 1.0
C      1  0.4466460000000  0.5587140000000  0.5740010000000 1.0
C      1  0.4399640000000  0.5446780000000  0.4220880000000 1.0
C      1  0.4876880000000  0.5233440000000  0.4674040000000 1.0
C      1  0.6027950000000  0.5253900000000  0.5412140000000 1.0
C      1  0.4664580000000  0.5660260000000  0.5549120000000 1.0
C      1  0.4294110000000  0.5582350000000  0.5222920000000 1.0
C      1  0.4657620000000  0.4669570000000  0.3909190000000 1.0
C      1  0.4198910000000  0.4428950000000  0.5352470000000 1.0
C      1  0.5255640000000  0.5696350000000  0.4547570000000 1.0
C      1  0.5796630000000  0.5088790000000  0.4714880000000 1.0
C      1  0.5185970000000  0.4504850000000  0.4241090000000 1.0
C      1  0.4556640000000  0.5717670000000  0.5280590000000 1.0
C      1  0.4911340000000  0.4425330000000  0.4261800000000 1.0
C      1  0.5473000000000  0.4615870000000  0.5586030000000 1.0
C      1  0.5385650000000  0.4195800000000  0.5335930000000 1.0
C      1  0.4429540000000  0.4218910000000  0.5727280000000 1.0
C      1  0.4894490000000  0.4656290000000  0.5326300000000 1.0
C      1  0.4064610000000  0.5082450000000  0.5027540000000 1.0
END
