TITL C-599891-72-1229 9.89871645810855e-05 125000 -300.42720818727 0 0 51 (C1) n - 1
REM
REM in /home/nfs/bkarasulu/CARBON/AIRSS/Generating-Clusters/TERSOFF/Only-C1/FIRE-HFTN
REM
REM
REM
REM
REM
REM ./C.cell (11c1c37f851c82e70ff6c80c92926a4b)
REM AIRSS Version 0.9.1 bugfix July 2018 build 013d7b7c2542+ Fri, 06 Jul 2018 19:26:36 +0100
REM compiler GCC version 9.2.1 20190827 (Red Hat 9.2.1-1)
REM options -cpp -mtune=generic -march=x86-64 -g -O0 -fpre-include=/usr/include/finclude/math-vector-fortran.h
REM seed -187051210 1256159319 542834447 -1943929284 -15077269 1615586969 -1513542592 -2041576284 980834672 21108409 -157374733 -621673299 -547149472 1328248836 -2080676395 -767748499 -813657825 1684930211 161251626 547040219 -1632847981 -1823539724 1958338441 -1074548082 -1676073800 1091674193 -1921444292 1646796926 605989873 -493489688 1305271833 -382195882 385558718
REM
CELL 1.54180   50.00000   50.00000   50.00000   90.00000   90.00000   90.00000
LATT -1
SFAC C  
C      1  0.4996580000000  0.4745710000000  0.4393480000000 1.0
C      1  0.5117630000000  0.4433480000000  0.4988610000000 1.0
C      1  0.4986690000000  0.5346890000000  0.4617130000000 1.0
C      1  0.5038880000000  0.4395870000000  0.5622140000000 1.0
C      1  0.4816360000000  0.4912580000000  0.4803270000000 1.0
C      1  0.4793750000000  0.4722830000000  0.4589510000000 1.0
C      1  0.4597630000000  0.4043540000000  0.5095190000000 1.0
C      1  0.3958500000000  0.5591180000000  0.4843660000000 1.0
C      1  0.4579410000000  0.4897400000000  0.5204860000000 1.0
C      1  0.5638600000000  0.5124470000000  0.4605580000000 1.0
C      1  0.4638040000000  0.4763980000000  0.5659710000000 1.0
C      1  0.5589090000000  0.5557010000000  0.4798880000000 1.0
C      1  0.5336880000000  0.5050010000000  0.5067170000000 1.0
C      1  0.5127950000000  0.4575770000000  0.5434560000000 1.0
C      1  0.4486130000000  0.4570510000000  0.5548390000000 1.0
C      1  0.5123300000000  0.5585180000000  0.4554250000000 1.0
C      1  0.4802220000000  0.4805180000000  0.5071680000000 1.0
C      1  0.5325290000000  0.4573480000000  0.4868920000000 1.0
C      1  0.5609730000000  0.4836530000000  0.5438180000000 1.0
C      1  0.5026540000000  0.5063920000000  0.5482660000000 1.0
C      1  0.4048640000000  0.5368680000000  0.4719370000000 1.0
C      1  0.5052410000000  0.5433110000000  0.5188270000000 1.0
C      1  0.4585950000000  0.5554410000000  0.5003220000000 1.0
C      1  0.4111240000000  0.5754920000000  0.4995110000000 1.0
C      1  0.4372920000000  0.5730830000000  0.5053470000000 1.0
C      1  0.5418720000000  0.4947090000000  0.4589450000000 1.0
C      1  0.4835010000000  0.5576230000000  0.5129690000000 1.0
C      1  0.4853950000000  0.3996830000000  0.5028470000000 1.0
C      1  0.5243440000000  0.4859020000000  0.4385980000000 1.0
C      1  0.4987230000000  0.4602810000000  0.5180990000000 1.0
C      1  0.4298660000000  0.5268990000000  0.4718330000000 1.0
C      1  0.6005210000000  0.5133690000000  0.5382310000000 1.0
C      1  0.4788270000000  0.5191040000000  0.4742450000000 1.0
C      1  0.4835060000000  0.4946770000000  0.5632430000000 1.0
C      1  0.5748350000000  0.5046220000000  0.5303770000000 1.0
C      1  0.6028910000000  0.5336810000000  0.5564450000000 1.0
C      1  0.5365030000000  0.5648980000000  0.4683180000000 1.0
C      1  0.4411310000000  0.4419590000000  0.5338130000000 1.0
C      1  0.6227200000000  0.5014640000000  0.5274850000000 1.0
C      1  0.5342570000000  0.4853410000000  0.4851060000000 1.0
C      1  0.5016580000000  0.5759670000000  0.4364190000000 1.0
C      1  0.4452820000000  0.4417050000000  0.4837540000000 1.0
C      1  0.5144060000000  0.5172770000000  0.5246660000000 1.0
C      1  0.5606610000000  0.5160020000000  0.5085410000000 1.0
C      1  0.5388790000000  0.4686210000000  0.5467350000000 1.0
C      1  0.4455460000000  0.4288260000000  0.5091020000000 1.0
C      1  0.4552680000000  0.5332180000000  0.4821450000000 1.0
C      1  0.4593560000000  0.4528870000000  0.4636050000000 1.0
C      1  0.5675520000000  0.5291560000000  0.4838370000000 1.0
C      1  0.5055830000000  0.4162640000000  0.4968790000000 1.0
C      1  0.4908820000000  0.5921230000000  0.4190400000000 1.0
END
