TITL C-599897-7526-226 0.0122481086651388 125000 -426.619762094195 0 0 70 (C1) n - 1
REM
REM in /home/nfs/bkarasulu/CARBON/AIRSS/Generating-Clusters/TERSOFF/Only-C1/FIRE-HFTN
REM
REM
REM
REM
REM
REM ./C.cell (11c1c37f851c82e70ff6c80c92926a4b)
REM AIRSS Version 0.9.1 bugfix July 2018 build 013d7b7c2542+ Fri, 06 Jul 2018 19:26:36 +0100
REM compiler GCC version 9.2.1 20190827 (Red Hat 9.2.1-1)
REM options -cpp -mtune=generic -march=x86-64 -g -O0 -fpre-include=/usr/include/finclude/math-vector-fortran.h
REM seed -538002117 251773477 -668862612 1175550175 -1740612731 -233365409 530384858 1215974468 1600888454 647606915 -675015370 -1176063041 686323103 278597661 1872201862 -728335286 -238457391 754113052 369438273 -1426904708 27103699 2051741965 2085694165 1802405572 754274675 450010029 763072857 1751450747 1566345847 -205392501 -134907428 -483032174 2099382089
REM
CELL 1.54180   50.00000   50.00000   50.00000   90.00000   90.00000   90.00000
LATT -1
SFAC C  
C      1  0.5421200000000  0.5001310000000  0.5091930000000 1.0
C      1  0.4741930000000  0.4914390000000  0.6379690000000 1.0
C      1  0.5015680000000  0.5125660000000  0.4413970000000 1.0
C      1  0.5326300000000  0.5277550000000  0.5083560000000 1.0
C      1  0.5032140000000  0.4779180000000  0.6021700000000 1.0
C      1  0.4586250000000  0.4515200000000  0.4855790000000 1.0
C      1  0.4969410000000  0.5744530000000  0.4567070000000 1.0
C      1  0.4530870000000  0.5128370000000  0.4737940000000 1.0
C      1  0.5476510000000  0.5272880000000  0.4278630000000 1.0
C      1  0.4632960000000  0.5792760000000  0.4907490000000 1.0
C      1  0.4870050000000  0.4358880000000  0.4449300000000 1.0
C      1  0.4225750000000  0.4810930000000  0.4990790000000 1.0
C      1  0.4982810000000  0.4987520000000  0.5079720000000 1.0
C      1  0.4924460000000  0.4614300000000  0.4313230000000 1.0
C      1  0.5601420000000  0.4703130000000  0.4579360000000 1.0
C      1  0.4756430000000  0.4304400000000  0.4933340000000 1.0
C      1  0.4823010000000  0.4897730000000  0.4366370000000 1.0
C      1  0.4806020000000  0.4916410000000  0.6113820000000 1.0
C      1  0.5621520000000  0.5623460000000  0.5337920000000 1.0
C      1  0.4613430000000  0.4524520000000  0.5524690000000 1.0
C      1  0.5464210000000  0.4443430000000  0.5477300000000 1.0
C      1  0.5067250000000  0.5239060000000  0.4946920000000 1.0
C      1  0.4070720000000  0.4764880000000  0.5223100000000 1.0
C      1  0.5694410000000  0.5157990000000  0.4417050000000 1.0
C      1  0.4369280000000  0.5781670000000  0.5010610000000 1.0
C      1  0.5321860000000  0.4649880000000  0.4553870000000 1.0
C      1  0.4781840000000  0.4881690000000  0.5239620000000 1.0
C      1  0.5225060000000  0.4648830000000  0.5894580000000 1.0
C      1  0.4315730000000  0.5644470000000  0.5239680000000 1.0
C      1  0.5875390000000  0.5651620000000  0.4932360000000 1.0
C      1  0.5417010000000  0.5464950000000  0.5267890000000 1.0
C      1  0.4402410000000  0.5041230000000  0.4988950000000 1.0
C      1  0.5182340000000  0.4177770000000  0.4831190000000 1.0
C      1  0.4130270000000  0.4646290000000  0.5457300000000 1.0
C      1  0.4800950000000  0.4601230000000  0.5326980000000 1.0
C      1  0.4350350000000  0.4545130000000  0.5573050000000 1.0
C      1  0.5448650000000  0.4417610000000  0.5198170000000 1.0
C      1  0.4310520000000  0.4574570000000  0.4850310000000 1.0
C      1  0.4969080000000  0.5261980000000  0.4673050000000 1.0
C      1  0.4847430000000  0.5803350000000  0.5108350000000 1.0
C      1  0.4553170000000  0.5056190000000  0.5237250000000 1.0
C      1  0.4772130000000  0.4708260000000  0.4757220000000 1.0
C      1  0.5109550000000  0.5843650000000  0.5004370000000 1.0
C      1  0.4924810000000  0.4220400000000  0.4701800000000 1.0
C      1  0.5238870000000  0.5129300000000  0.4234450000000 1.0
C      1  0.4543860000000  0.5165030000000  0.5712000000000 1.0
C      1  0.5721970000000  0.4874350000000  0.4384060000000 1.0
C      1  0.5378400000000  0.4530270000000  0.5713190000000 1.0
C      1  0.4776310000000  0.5668590000000  0.5349020000000 1.0
C      1  0.4530740000000  0.5524000000000  0.5382550000000 1.0
C      1  0.5198340000000  0.5768400000000  0.4741350000000 1.0
C      1  0.5279000000000  0.4869700000000  0.4118200000000 1.0
C      1  0.5205140000000  0.4308870000000  0.5092400000000 1.0
C      1  0.5816990000000  0.5018730000000  0.4860300000000 1.0
C      1  0.5717320000000  0.4743120000000  0.4840350000000 1.0
C      1  0.5834380000000  0.5704060000000  0.5193710000000 1.0
C      1  0.4690200000000  0.5367590000000  0.4684890000000 1.0
C      1  0.5759220000000  0.5245370000000  0.4682950000000 1.0
C      1  0.4650590000000  0.4905710000000  0.4595800000000 1.0
C      1  0.4925220000000  0.4387810000000  0.5166050000000 1.0
C      1  0.4132050000000  0.4418420000000  0.4714750000000 1.0
C      1  0.5127000000000  0.4696250000000  0.4768940000000 1.0
C      1  0.4646130000000  0.5055390000000  0.5930770000000 1.0
C      1  0.5702840000000  0.5519410000000  0.4751030000000 1.0
C      1  0.5454550000000  0.5653800000000  0.4693910000000 1.0
C      1  0.4713490000000  0.5652780000000  0.4672540000000 1.0
C      1  0.5210070000000  0.4652680000000  0.4286910000000 1.0
C      1  0.5646020000000  0.4550930000000  0.5038160000000 1.0
C      1  0.4527300000000  0.5248300000000  0.5445630000000 1.0
C      1  0.5211420000000  0.4821930000000  0.5008770000000 1.0
END
