TITL C-599892-9790-150 -3307.19491495154 125000 -756.732234669159 0 0 124 (C1) n - 1
REM
REM in /home/nfs/bkarasulu/CARBON/AIRSS/Generating-Clusters/TERSOFF/Only-C1/FIRE-HFTN
REM
REM
REM
REM
REM
REM ./C.cell (11c1c37f851c82e70ff6c80c92926a4b)
REM AIRSS Version 0.9.1 bugfix July 2018 build 013d7b7c2542+ Fri, 06 Jul 2018 19:26:36 +0100
REM compiler GCC version 9.2.1 20190827 (Red Hat 9.2.1-1)
REM options -cpp -mtune=generic -march=x86-64 -g -O0 -fpre-include=/usr/include/finclude/math-vector-fortran.h
REM seed -20240403 1872037468 -1460409547 -1211235622 -1552754149 -1997607683 -490700442 -128313735 901914022 1901086613 -148068170 1897479350 1937113325 -1136993350 147349742 -1121640913 -422593653 -1858998419 -512481965 1166334788 93672282 -341400060 -1926706499 537459864 -789287266 -1347044306 1781459293 1555374881 -2147002558 -1603881486 1793762390 801644172 -2117650203
REM
CELL 1.54180   50.00000   50.00000   50.00000   90.00000   90.00000   90.00000
LATT -1
SFAC C  
C      1  0.5034520000000  0.5857600000000  0.4535100000000 1.0
C      1  0.5018850000000  0.5753470000000  0.5756140000000 1.0
C      1  0.4988100000000  0.4450640000000  0.4618420000000 1.0
C      1  0.4816240000000  0.4565860000000  0.4007390000000 1.0
C      1  0.5533750000000  0.4361980000000  0.5310560000000 1.0
C      1  0.4404040000000  0.4242670000000  0.5096090000000 1.0
C      1  0.4493580000000  0.5268780000000  0.5364070000000 1.0
C      1  0.5495240000000  0.5917420000000  0.5240700000000 1.0
C      1  0.5949500000000  0.5183680000000  0.5010550000000 1.0
C      1  0.4342830000000  0.4345250000000  0.4633000000000 1.0
C      1  0.5029680000000  0.4013930000000  0.4398510000000 1.0
C      1  0.5298450000000  0.4191530000000  0.5330570000000 1.0
C      1  0.3893400000000  0.5365980000000  0.4878190000000 1.0
C      1  0.5302780000000  0.5348870000000  0.4800840000000 1.0
C      1  0.4810510000000  0.4317860000000  0.5371680000000 1.0
C      1  0.4961670000000  0.5539000000000  0.5906670000000 1.0
C      1  0.4349370000000  0.4624290000000  0.4698040000000 1.0
C      1  0.5896270000000  0.4552000000000  0.4972490000000 1.0
C      1  0.5037240000000  0.5894330000000  0.5511420000000 1.0
C      1  0.4828050000000  0.5057780000000  0.5977590000000 1.0
C      1  0.4251390000000  0.5674060000000  0.5407530000000 1.0
C      1  0.4692300000000  0.4581410000000  0.3759450000000 1.0
C      1  0.5254160000000  0.5604110000000  0.4897900000000 1.0
C      1  0.5961840000000  0.5164110000000  0.4534140000000 1.0
C      1  0.4420700000000  0.4799270000000  0.5871150000000 1.0
C      1  0.4214320000000  0.4676230000000  0.4949760000000 1.0
C      1  0.4614360000000  0.4150730000000  0.5262960000000 1.0
C      1  0.5278780000000  0.4752970000000  0.4035860000000 1.0
C      1  0.5308720000000  0.4791070000000  0.5322520000000 1.0
C      1  0.5654470000000  0.5509930000000  0.4352230000000 1.0
C      1  0.3893640000000  0.5103030000000  0.4923410000000 1.0
C      1  0.4398470000000  0.4602760000000  0.5421380000000 1.0
C      1  0.5491620000000  0.4839300000000  0.4202090000000 1.0
C      1  0.4430260000000  0.5552140000000  0.4189360000000 1.0
C      1  0.4295370000000  0.5402520000000  0.5999880000000 1.0
C      1  0.4588700000000  0.5951480000000  0.5223880000000 1.0
C      1  0.5441400000000  0.5488230000000  0.4186640000000 1.0
C      1  0.4894900000000  0.5470870000000  0.5174970000000 1.0
C      1  0.5856510000000  0.5444070000000  0.4544240000000 1.0
C      1  0.3691880000000  0.5105870000000  0.5709200000000 1.0
C      1  0.4906950000000  0.5759240000000  0.4322530000000 1.0
C      1  0.4415420000000  0.4149340000000  0.4824700000000 1.0
C      1  0.5058480000000  0.4442900000000  0.5736260000000 1.0
C      1  0.4324140000000  0.5441700000000  0.4414260000000 1.0
C      1  0.4367650000000  0.5781590000000  0.5171700000000 1.0
C      1  0.4826950000000  0.4653550000000  0.4756080000000 1.0
C      1  0.5383250000000  0.5219130000000  0.5504160000000 1.0
C      1  0.4918920000000  0.5044510000000  0.5393450000000 1.0
C      1  0.4926340000000  0.4736920000000  0.5015930000000 1.0
C      1  0.5398300000000  0.4937090000000  0.4451600000000 1.0
C      1  0.4661650000000  0.5413220000000  0.4089150000000 1.0
C      1  0.5226710000000  0.4415970000000  0.5954790000000 1.0
C      1  0.5763360000000  0.4883290000000  0.4151700000000 1.0
C      1  0.6126080000000  0.4463310000000  0.6919720000000 1.0
C      1  0.3896280000000  0.5834660000000  0.4736840000000 1.0
C      1  0.4587390000000  0.4767460000000  0.4623580000000 1.0
C      1  0.5140050000000  0.5052970000000  0.4447020000000 1.0
C      1  0.5581500000000  0.4419500000000  0.6348070000000 1.0
C      1  0.4172850000000  0.5344390000000  0.5754820000000 1.0
C      1  0.5266460000000  0.4466280000000  0.4679640000000 1.0
C      1  0.4800730000000  0.5995560000000  0.5385870000000 1.0
C      1  0.5763140000000  0.4432190000000  0.6540590000000 1.0
C      1  0.4911060000000  0.4266820000000  0.4414910000000 1.0
C      1  0.5073390000000  0.4282560000000  0.5490880000000 1.0
C      1  0.5423290000000  0.3343980000000  0.4254290000000 1.0
C      1  0.4024410000000  0.5613370000000  0.4846870000000 1.0
C      1  0.5868490000000  0.5873340000000  0.4869070000000 1.0
C      1  0.5240360000000  0.3984200000000  0.5148360000000 1.0
C      1  0.5678160000000  0.5184390000000  0.5093110000000 1.0
C      1  0.3922560000000  0.5222650000000  0.5741750000000 1.0
C      1  0.6065440000000  0.6064060000000  0.4845820000000 1.0
C      1  0.5491400000000  0.5148600000000  0.4879870000000 1.0
C      1  0.4574060000000  0.4605840000000  0.3528500000000 1.0
C      1  0.5139840000000  0.5611130000000  0.5155700000000 1.0
C      1  0.5744410000000  0.4380110000000  0.5118140000000 1.0
C      1  0.5483730000000  0.4904400000000  0.4720210000000 1.0
C      1  0.4701870000000  0.4596590000000  0.5440410000000 1.0
C      1  0.5424930000000  0.6035800000000  0.4781590000000 1.0
C      1  0.5945900000000  0.4447470000000  0.6731980000000 1.0
C      1  0.6053120000000  0.4733520000000  0.4815640000000 1.0
C      1  0.4297740000000  0.5628060000000  0.4933320000000 1.0
C      1  0.5061580000000  0.3860780000000  0.4991850000000 1.0
C      1  0.4782350000000  0.5288640000000  0.5367330000000 1.0
C      1  0.5929160000000  0.5606290000000  0.4780650000000 1.0
C      1  0.5162850000000  0.3792770000000  0.4338820000000 1.0
C      1  0.5232500000000  0.5835300000000  0.4730580000000 1.0
C      1  0.5598160000000  0.5265640000000  0.5349120000000 1.0
C      1  0.5000150000000  0.4758940000000  0.4100360000000 1.0
C      1  0.4929960000000  0.4919700000000  0.4329650000000 1.0
C      1  0.4309640000000  0.5421520000000  0.5519680000000 1.0
C      1  0.4008980000000  0.4865680000000  0.4962020000000 1.0
C      1  0.5947840000000  0.5021160000000  0.4290820000000 1.0
C      1  0.4705230000000  0.4820290000000  0.5887770000000 1.0
C      1  0.4474460000000  0.5377220000000  0.4868840000000 1.0
C      1  0.5195680000000  0.5019310000000  0.5447250000000 1.0
C      1  0.4770420000000  0.4357940000000  0.4189590000000 1.0
C      1  0.3783670000000  0.6044080000000  0.4630180000000 1.0
C      1  0.4590990000000  0.3933150000000  0.4781510000000 1.0
C      1  0.4638280000000  0.5003530000000  0.4409590000000 1.0
C      1  0.4796750000000  0.5336770000000  0.6013460000000 1.0
C      1  0.5188380000000  0.5464990000000  0.4089940000000 1.0
C      1  0.5294390000000  0.3566960000000  0.4294640000000 1.0
C      1  0.4584320000000  0.5133200000000  0.4134370000000 1.0
C      1  0.4280570000000  0.4703810000000  0.5658060000000 1.0
C      1  0.5371560000000  0.4673730000000  0.4839780000000 1.0
C      1  0.4748680000000  0.5472580000000  0.4932320000000 1.0
C      1  0.5401580000000  0.4412350000000  0.6153650000000 1.0
C      1  0.4457580000000  0.5266360000000  0.4591860000000 1.0
C      1  0.4403630000000  0.5195270000000  0.5101140000000 1.0
C      1  0.6003590000000  0.5015920000000  0.4784440000000 1.0
C      1  0.4804670000000  0.4812720000000  0.5261610000000 1.0
C      1  0.5615410000000  0.5954430000000  0.4980230000000 1.0
C      1  0.5490230000000  0.4613000000000  0.5436640000000 1.0
C      1  0.4299380000000  0.4505780000000  0.5168230000000 1.0
C      1  0.5211090000000  0.4727390000000  0.5062900000000 1.0
C      1  0.4541250000000  0.5415100000000  0.6103280000000 1.0
C      1  0.4835410000000  0.4629560000000  0.5720000000000 1.0
C      1  0.6054480000000  0.5444720000000  0.4981670000000 1.0
C      1  0.6273290000000  0.4629330000000  0.4687120000000 1.0
C      1  0.4917330000000  0.5540380000000  0.4140470000000 1.0
C      1  0.5241700000000  0.5812230000000  0.5328190000000 1.0
C      1  0.5430050000000  0.6279900000000  0.4661190000000 1.0
C      1  0.4827250000000  0.3835830000000  0.4864560000000 1.0
C      1  0.5110870000000  0.5267050000000  0.4615200000000 1.0
END
