TITL C-599897-7526-1085 -0.0104708934516757 125000 -636.437322577429 0 0 106 (C1) n - 1
REM
REM in /home/nfs/bkarasulu/CARBON/AIRSS/Generating-Clusters/TERSOFF/Only-C1/FIRE-HFTN
REM
REM
REM
REM
REM
REM ./C.cell (11c1c37f851c82e70ff6c80c92926a4b)
REM AIRSS Version 0.9.1 bugfix July 2018 build 013d7b7c2542+ Fri, 06 Jul 2018 19:26:36 +0100
REM compiler GCC version 9.2.1 20190827 (Red Hat 9.2.1-1)
REM options -cpp -mtune=generic -march=x86-64 -g -O0 -fpre-include=/usr/include/finclude/math-vector-fortran.h
REM seed 1520590352 1592876860 902776458 -1492914960 644945397 -449364924 617921619 -1953662753 -167141089 -765552948 -954650159 -2130192263 -1428834873 1375342560 -301618039 1042266096 -1156838382 -789875875 1134484871 -563601472 355599626 -490802069 1525176725 187805388 -1660177284 1151241906 -1281816471 -876945720 -1704155160 -652320304 674774317 306652603 855677800
REM
CELL 1.54180   50.00000   50.00000   50.00000   90.00000   90.00000   90.00000
LATT -1
SFAC C  
C      1  0.4624090000000  0.4703150000000  0.5195040000000 1.0
C      1  0.5332500000000  0.4556960000000  0.5233180000000 1.0
C      1  0.4521380000000  0.5267660000000  0.4283800000000 1.0
C      1  0.5446660000000  0.5139990000000  0.5294380000000 1.0
C      1  0.3910380000000  0.5128210000000  0.6050490000000 1.0
C      1  0.4608210000000  0.4598520000000  0.5724520000000 1.0
C      1  0.5606590000000  0.4872360000000  0.4524500000000 1.0
C      1  0.5521930000000  0.3802760000000  0.5195120000000 1.0
C      1  0.4950660000000  0.5478330000000  0.5322380000000 1.0
C      1  0.5859550000000  0.4904500000000  0.4644090000000 1.0
C      1  0.5007750000000  0.3404500000000  0.4850750000000 1.0
C      1  0.3976150000000  0.4467230000000  0.5253390000000 1.0
C      1  0.5185000000000  0.4963930000000  0.4311820000000 1.0
C      1  0.5542620000000  0.5279810000000  0.5072160000000 1.0
C      1  0.5174470000000  0.5471620000000  0.3963910000000 1.0
C      1  0.4706780000000  0.4726020000000  0.4759650000000 1.0
C      1  0.5268420000000  0.4959910000000  0.5721210000000 1.0
C      1  0.6786090000000  0.4797540000000  0.5326740000000 1.0
C      1  0.4014800000000  0.5005490000000  0.5840200000000 1.0
C      1  0.4653550000000  0.5522150000000  0.5244450000000 1.0
C      1  0.6278250000000  0.4846720000000  0.5183640000000 1.0
C      1  0.4890190000000  0.3868420000000  0.4892540000000 1.0
C      1  0.4797490000000  0.5493160000000  0.4569760000000 1.0
C      1  0.4774100000000  0.4123920000000  0.4886780000000 1.0
C      1  0.6005070000000  0.5184780000000  0.5814160000000 1.0
C      1  0.4917090000000  0.5932430000000  0.5135940000000 1.0
C      1  0.5244180000000  0.5124800000000  0.5492450000000 1.0
C      1  0.4541740000000  0.4945120000000  0.4743540000000 1.0
C      1  0.5350270000000  0.5461120000000  0.4979010000000 1.0
C      1  0.5308820000000  0.3709610000000  0.5068140000000 1.0
C      1  0.5449920000000  0.5838970000000  0.5223450000000 1.0
C      1  0.4020390000000  0.5363130000000  0.5040050000000 1.0
C      1  0.4126070000000  0.4881070000000  0.5614190000000 1.0
C      1  0.3879040000000  0.4725140000000  0.5205320000000 1.0
C      1  0.5039510000000  0.4883880000000  0.5864850000000 1.0
C      1  0.5262910000000  0.4562360000000  0.4767470000000 1.0
C      1  0.4591260000000  0.6055610000000  0.4705350000000 1.0
C      1  0.4693600000000  0.4343520000000  0.5626010000000 1.0
C      1  0.5311790000000  0.5978820000000  0.4533870000000 1.0
C      1  0.5165770000000  0.5879770000000  0.5289850000000 1.0
C      1  0.4354440000000  0.4714630000000  0.5659910000000 1.0
C      1  0.5446970000000  0.5071790000000  0.4391960000000 1.0
C      1  0.4803920000000  0.4757000000000  0.5853330000000 1.0
C      1  0.6009230000000  0.4881370000000  0.5123710000000 1.0
C      1  0.4944910000000  0.4265040000000  0.4388480000000 1.0
C      1  0.4665890000000  0.5773950000000  0.5089790000000 1.0
C      1  0.5492100000000  0.5367120000000  0.4365280000000 1.0
C      1  0.4923910000000  0.5244600000000  0.4642940000000 1.0
C      1  0.4957720000000  0.5213650000000  0.4919390000000 1.0
C      1  0.4385280000000  0.4745730000000  0.4251240000000 1.0
C      1  0.7035680000000  0.4773950000000  0.5398260000000 1.0
C      1  0.4610920000000  0.4995900000000  0.5222350000000 1.0
C      1  0.5806930000000  0.5174270000000  0.5620240000000 1.0
C      1  0.5724130000000  0.3910050000000  0.5319900000000 1.0
C      1  0.5105600000000  0.4711330000000  0.4201410000000 1.0
C      1  0.4887150000000  0.5067510000000  0.5163520000000 1.0
C      1  0.5532620000000  0.5877740000000  0.4950250000000 1.0
C      1  0.5602420000000  0.5559280000000  0.4561990000000 1.0
C      1  0.4793780000000  0.5236180000000  0.4184900000000 1.0
C      1  0.3989680000000  0.5190760000000  0.5241920000000 1.0
C      1  0.5498230000000  0.5814220000000  0.4669110000000 1.0
C      1  0.4376380000000  0.5030510000000  0.4239600000000 1.0
C      1  0.5814150000000  0.5455730000000  0.4721050000000 1.0
C      1  0.5391700000000  0.5475430000000  0.4121780000000 1.0
C      1  0.4675610000000  0.4226790000000  0.5140580000000 1.0
C      1  0.4223130000000  0.4381240000000  0.5207330000000 1.0
C      1  0.5608990000000  0.4612590000000  0.5160700000000 1.0
C      1  0.4824400000000  0.6134970000000  0.4589900000000 1.0
C      1  0.4142160000000  0.5493940000000  0.4841670000000 1.0
C      1  0.4623730000000  0.4595270000000  0.4312640000000 1.0
C      1  0.5475530000000  0.4772150000000  0.5659000000000 1.0
C      1  0.5033200000000  0.5963970000000  0.4505240000000 1.0
C      1  0.4488630000000  0.4449060000000  0.5166750000000 1.0
C      1  0.5080070000000  0.5454020000000  0.5034940000000 1.0
C      1  0.5073170000000  0.5690140000000  0.5488500000000 1.0
C      1  0.5134940000000  0.4587570000000  0.5020730000000 1.0
C      1  0.5920400000000  0.5021340000000  0.4893750000000 1.0
C      1  0.4900340000000  0.4513390000000  0.4225560000000 1.0
C      1  0.5787250000000  0.5267920000000  0.4929720000000 1.0
C      1  0.4515120000000  0.5463140000000  0.4509650000000 1.0
C      1  0.5714820000000  0.5436310000000  0.5519860000000 1.0
C      1  0.3790640000000  0.4714330000000  0.4690450000000 1.0
C      1  0.4779910000000  0.4263550000000  0.4633240000000 1.0
C      1  0.4853650000000  0.4667880000000  0.5002200000000 1.0
C      1  0.5719480000000  0.4899060000000  0.5543710000000 1.0
C      1  0.3995550000000  0.4935060000000  0.5360780000000 1.0
C      1  0.5067970000000  0.3657170000000  0.4935890000000 1.0
C      1  0.4941560000000  0.5703640000000  0.4464220000000 1.0
C      1  0.3922220000000  0.4640590000000  0.4470560000000 1.0
C      1  0.3807630000000  0.5249360000000  0.6257200000000 1.0
C      1  0.4500080000000  0.5268880000000  0.5259270000000 1.0
C      1  0.3765410000000  0.4765780000000  0.4951290000000 1.0
C      1  0.4758410000000  0.4184890000000  0.5413430000000 1.0
C      1  0.4967060000000  0.5122650000000  0.4389030000000 1.0
C      1  0.4512520000000  0.5821690000000  0.4848650000000 1.0
C      1  0.5460470000000  0.4645200000000  0.4608720000000 1.0
C      1  0.4134760000000  0.4627890000000  0.4309230000000 1.0
C      1  0.5801570000000  0.4780850000000  0.5289360000000 1.0
C      1  0.4638250000000  0.4512560000000  0.4594230000000 1.0
C      1  0.5082820000000  0.5707080000000  0.5758590000000 1.0
C      1  0.5349890000000  0.4550460000000  0.5518890000000 1.0
C      1  0.4995190000000  0.5195760000000  0.5399340000000 1.0
C      1  0.6532300000000  0.4821580000000  0.5254160000000 1.0
C      1  0.5611560000000  0.5663500000000  0.5400570000000 1.0
C      1  0.4924510000000  0.5371830000000  0.3976560000000 1.0
C      1  0.4366340000000  0.5604220000000  0.4713440000000 1.0
END
