TITL C-599893-4344-940 -0.00137169028939158 125000 -529.915681215742 0 0 88 (C1) n - 1
REM
REM in /home/nfs/bkarasulu/CARBON/AIRSS/Generating-Clusters/TERSOFF/Only-C1/FIRE-HFTN
REM
REM
REM
REM
REM
REM ./C.cell (11c1c37f851c82e70ff6c80c92926a4b)
REM AIRSS Version 0.9.1 bugfix July 2018 build 013d7b7c2542+ Fri, 06 Jul 2018 19:26:36 +0100
REM compiler GCC version 9.2.1 20190827 (Red Hat 9.2.1-1)
REM options -cpp -mtune=generic -march=x86-64 -g -O0 -fpre-include=/usr/include/finclude/math-vector-fortran.h
REM seed -420453419 -914887463 -108948947 328276705 -392878788 1408711151 1880445958 -1439025144 -1227405805 -1347393496 1212938232 -1387182439 -1302578537 -1299060651 -948465946 -1552894345 -1717505812 77218998 -226784655 -1115697500 -2093701487 1382069455 -1473650170 -176383463 691979707 1260827542 -164623260 1257072472 1729457556 358337052 196625029 123087206 1225696620
REM
CELL 1.54180   50.00000   50.00000   50.00000   90.00000   90.00000   90.00000
LATT -1
SFAC C  
C      1  0.4909400000000  0.4188560000000  0.4864690000000 1.0
C      1  0.5314860000000  0.5172990000000  0.4238260000000 1.0
C      1  0.4613150000000  0.5021080000000  0.4127730000000 1.0
C      1  0.5831360000000  0.5521860000000  0.4363510000000 1.0
C      1  0.5047820000000  0.3958920000000  0.4956030000000 1.0
C      1  0.5335360000000  0.4760330000000  0.4650500000000 1.0
C      1  0.5231090000000  0.5793930000000  0.4691810000000 1.0
C      1  0.4993030000000  0.6197470000000  0.4424930000000 1.0
C      1  0.4625570000000  0.4861670000000  0.4358290000000 1.0
C      1  0.4810140000000  0.4274960000000  0.5385130000000 1.0
C      1  0.4435860000000  0.4763710000000  0.4971040000000 1.0
C      1  0.4226050000000  0.5352020000000  0.5074480000000 1.0
C      1  0.4257360000000  0.5338740000000  0.5356220000000 1.0
C      1  0.4536250000000  0.4577250000000  0.5809840000000 1.0
C      1  0.5304200000000  0.4944070000000  0.5409860000000 1.0
C      1  0.5377640000000  0.5848100000000  0.5421240000000 1.0
C      1  0.4773370000000  0.4348660000000  0.4224900000000 1.0
C      1  0.4652370000000  0.5283570000000  0.4086890000000 1.0
C      1  0.4910530000000  0.4430330000000  0.5579280000000 1.0
C      1  0.5247140000000  0.5705870000000  0.5609190000000 1.0
C      1  0.4582890000000  0.4304350000000  0.5215380000000 1.0
C      1  0.4962410000000  0.4494620000000  0.4096050000000 1.0
C      1  0.5593340000000  0.4820200000000  0.4668520000000 1.0
C      1  0.4804510000000  0.4939560000000  0.5664730000000 1.0
C      1  0.4186940000000  0.4784080000000  0.5102830000000 1.0
C      1  0.4682960000000  0.5178540000000  0.4887660000000 1.0
C      1  0.5276510000000  0.4014830000000  0.5109990000000 1.0
C      1  0.5900940000000  0.5144610000000  0.4861790000000 1.0
C      1  0.5113400000000  0.6007030000000  0.4555870000000 1.0
C      1  0.4509920000000  0.4369620000000  0.4692990000000 1.0
C      1  0.4964730000000  0.3700430000000  0.4897380000000 1.0
C      1  0.4032310000000  0.5168460000000  0.4660920000000 1.0
C      1  0.4292300000000  0.4898900000000  0.5561300000000 1.0
C      1  0.4359620000000  0.4623570000000  0.5587330000000 1.0
C      1  0.4170030000000  0.4999590000000  0.4501140000000 1.0
C      1  0.4404930000000  0.5158450000000  0.5516370000000 1.0
C      1  0.5778990000000  0.5617370000000  0.4844510000000 1.0
C      1  0.4879370000000  0.3460870000000  0.4840480000000 1.0
C      1  0.4413900000000  0.4634430000000  0.4718290000000 1.0
C      1  0.4912480000000  0.4809780000000  0.5141680000000 1.0
C      1  0.4373860000000  0.4436640000000  0.5365560000000 1.0
C      1  0.5043470000000  0.4655170000000  0.5974880000000 1.0
C      1  0.5936330000000  0.5288980000000  0.4279270000000 1.0
C      1  0.5302510000000  0.4501720000000  0.5233940000000 1.0
C      1  0.4859680000000  0.5413000000000  0.5514410000000 1.0
C      1  0.5822530000000  0.4978070000000  0.4649140000000 1.0
C      1  0.5207670000000  0.5770610000000  0.4975650000000 1.0
C      1  0.5495450000000  0.4696590000000  0.6087650000000 1.0
C      1  0.5301420000000  0.4785900000000  0.5890390000000 1.0
C      1  0.5045480000000  0.4386940000000  0.4717100000000 1.0
C      1  0.4505900000000  0.5987200000000  0.5225120000000 1.0
C      1  0.4869090000000  0.4785950000000  0.4487810000000 1.0
C      1  0.5948690000000  0.5409420000000  0.4943020000000 1.0
C      1  0.5102500000000  0.5467850000000  0.5665380000000 1.0
C      1  0.5372020000000  0.4538550000000  0.6280240000000 1.0
C      1  0.4828190000000  0.4651220000000  0.5772220000000 1.0
C      1  0.4470190000000  0.5356040000000  0.4936540000000 1.0
C      1  0.5306690000000  0.4985790000000  0.5693140000000 1.0
C      1  0.5237470000000  0.5387680000000  0.4409190000000 1.0
C      1  0.4605110000000  0.4294710000000  0.4431260000000 1.0
C      1  0.3976720000000  0.4951930000000  0.5078740000000 1.0
C      1  0.5241410000000  0.5249110000000  0.5773930000000 1.0
C      1  0.5081160000000  0.4647730000000  0.4617570000000 1.0
C      1  0.4637190000000  0.4259000000000  0.4930200000000 1.0
C      1  0.4956700000000  0.5390370000000  0.4461810000000 1.0
C      1  0.5377580000000  0.5156400000000  0.5242730000000 1.0
C      1  0.5066970000000  0.5551790000000  0.5091260000000 1.0
C      1  0.5162040000000  0.4741730000000  0.5267490000000 1.0
C      1  0.5666950000000  0.5595550000000  0.4580040000000 1.0
C      1  0.5130680000000  0.4704480000000  0.4060940000000 1.0
C      1  0.4688930000000  0.5183620000000  0.5570880000000 1.0
C      1  0.5225970000000  0.5320870000000  0.5099180000000 1.0
C      1  0.4863480000000  0.5263600000000  0.4692720000000 1.0
C      1  0.5102230000000  0.4512890000000  0.6219410000000 1.0
C      1  0.4383470000000  0.4814150000000  0.4500070000000 1.0
C      1  0.6160850000000  0.5469010000000  0.5114030000000 1.0
C      1  0.5383420000000  0.5593380000000  0.4547840000000 1.0
C      1  0.5679290000000  0.5810760000000  0.5025280000000 1.0
C      1  0.4658180000000  0.5776860000000  0.5247330000000 1.0
C      1  0.4783740000000  0.5453090000000  0.4249080000000 1.0
C      1  0.4845750000000  0.5571990000000  0.5273110000000 1.0
C      1  0.5253900000000  0.4939670000000  0.4114630000000 1.0
C      1  0.5369890000000  0.4245460000000  0.5208730000000 1.0
C      1  0.4679940000000  0.4917160000000  0.5013670000000 1.0
C      1  0.5427120000000  0.5855400000000  0.5142720000000 1.0
C      1  0.4021650000000  0.5197400000000  0.4943670000000 1.0
C      1  0.6356290000000  0.5528930000000  0.5275670000000 1.0
C      1  0.5929220000000  0.5046270000000  0.4396320000000 1.0
END
