TITL C-599897-7526-1374 6.8274779225384e-05 125000 -426.991326729076 0 0 71 (C1) n - 1
REM
REM in /home/nfs/bkarasulu/CARBON/AIRSS/Generating-Clusters/TERSOFF/Only-C1/FIRE-HFTN
REM
REM
REM
REM
REM
REM ./C.cell (11c1c37f851c82e70ff6c80c92926a4b)
REM AIRSS Version 0.9.1 bugfix July 2018 build 013d7b7c2542+ Fri, 06 Jul 2018 19:26:36 +0100
REM compiler GCC version 9.2.1 20190827 (Red Hat 9.2.1-1)
REM options -cpp -mtune=generic -march=x86-64 -g -O0 -fpre-include=/usr/include/finclude/math-vector-fortran.h
REM seed 1648886125 1256470879 -1391226490 698975016 -1662283571 -348267563 1939442917 -1004683870 1444101128 398688292 -2021825946 605538521 1731324081 1862225150 1749038020 -529066843 1794864191 730336976 1418403482 1912345090 -1401239985 1338102895 -560384533 -515114016 -1339359251 1072695560 -1258046181 -751496858 -1042107191 579353916 39712141 1472044983 494327039
REM
CELL 1.54180   50.00000   50.00000   50.00000   90.00000   90.00000   90.00000
LATT -1
SFAC C  
C      1  0.5775390000000  0.4761880000000  0.4764580000000 1.0
C      1  0.4581490000000  0.4937920000000  0.4216320000000 1.0
C      1  0.4934840000000  0.5729850000000  0.4228100000000 1.0
C      1  0.5124050000000  0.5546230000000  0.4279150000000 1.0
C      1  0.4939880000000  0.4746980000000  0.5616860000000 1.0
C      1  0.5378500000000  0.4997230000000  0.5790960000000 1.0
C      1  0.4769770000000  0.4733010000000  0.4253520000000 1.0
C      1  0.5297420000000  0.5826710000000  0.5217680000000 1.0
C      1  0.5590990000000  0.4702580000000  0.5220390000000 1.0
C      1  0.5522950000000  0.5416510000000  0.5904640000000 1.0
C      1  0.5280380000000  0.5288970000000  0.5347140000000 1.0
C      1  0.5192360000000  0.5119770000000  0.5148710000000 1.0
C      1  0.5171520000000  0.4820450000000  0.5749320000000 1.0
C      1  0.5757440000000  0.5614670000000  0.5091830000000 1.0
C      1  0.5588150000000  0.4645430000000  0.4929350000000 1.0
C      1  0.5696040000000  0.4941300000000  0.5351470000000 1.0
C      1  0.5876930000000  0.5369790000000  0.5084860000000 1.0
C      1  0.4790120000000  0.4697360000000  0.4804070000000 1.0
C      1  0.5270970000000  0.4446680000000  0.4557100000000 1.0
C      1  0.4819940000000  0.4953250000000  0.4915780000000 1.0
C      1  0.4795010000000  0.4425710000000  0.4938780000000 1.0
C      1  0.4613420000000  0.5185880000000  0.4341820000000 1.0
C      1  0.4984660000000  0.4389920000000  0.4532850000000 1.0
C      1  0.4789410000000  0.5452340000000  0.4897190000000 1.0
C      1  0.5534270000000  0.5674900000000  0.5255990000000 1.0
C      1  0.5637100000000  0.5348760000000  0.5647170000000 1.0
C      1  0.5404900000000  0.4444640000000  0.4815320000000 1.0
C      1  0.4687530000000  0.5203930000000  0.5505840000000 1.0
C      1  0.4534690000000  0.4753100000000  0.5353080000000 1.0
C      1  0.4987930000000  0.4711020000000  0.4073010000000 1.0
C      1  0.4409910000000  0.5372240000000  0.4417660000000 1.0
C      1  0.4259840000000  0.5306790000000  0.4647880000000 1.0
C      1  0.4260540000000  0.5425460000000  0.5566790000000 1.0
C      1  0.4782790000000  0.4921030000000  0.5421740000000 1.0
C      1  0.4449570000000  0.5633700000000  0.4320330000000 1.0
C      1  0.4855980000000  0.5209100000000  0.4491980000000 1.0
C      1  0.5372280000000  0.4602240000000  0.4339620000000 1.0
C      1  0.5313720000000  0.5157160000000  0.4896420000000 1.0
C      1  0.5024450000000  0.5746180000000  0.5251960000000 1.0
C      1  0.5455230000000  0.4506120000000  0.5375850000000 1.0
C      1  0.4183960000000  0.4867880000000  0.4837800000000 1.0
C      1  0.4809900000000  0.5201080000000  0.4772910000000 1.0
C      1  0.4835050000000  0.4647460000000  0.4515740000000 1.0
C      1  0.5028070000000  0.5331700000000  0.5861390000000 1.0
C      1  0.5486500000000  0.5459590000000  0.5432330000000 1.0
C      1  0.5609640000000  0.5048160000000  0.5612120000000 1.0
C      1  0.4790570000000  0.4276050000000  0.5178570000000 1.0
C      1  0.4865310000000  0.5395100000000  0.5635630000000 1.0
C      1  0.4335990000000  0.5229620000000  0.5134680000000 1.0
C      1  0.5319320000000  0.4251690000000  0.5006570000000 1.0
C      1  0.4877740000000  0.5668320000000  0.5025270000000 1.0
C      1  0.4927110000000  0.5637060000000  0.5496390000000 1.0
C      1  0.4915520000000  0.4467460000000  0.5589440000000 1.0
C      1  0.4314930000000  0.4388700000000  0.4755860000000 1.0
C      1  0.5244290000000  0.4790920000000  0.4168910000000 1.0
C      1  0.5262270000000  0.5068580000000  0.4215960000000 1.0
C      1  0.4508040000000  0.4224820000000  0.4649140000000 1.0
C      1  0.4669870000000  0.5768860000000  0.4245270000000 1.0
C      1  0.5851320000000  0.5122890000000  0.5192170000000 1.0
C      1  0.4603040000000  0.4082420000000  0.5226360000000 1.0
C      1  0.4996030000000  0.4320680000000  0.5365900000000 1.0
C      1  0.4947790000000  0.4976720000000  0.5169140000000 1.0
C      1  0.4428790000000  0.5286410000000  0.5399090000000 1.0
C      1  0.5264870000000  0.4321110000000  0.5276380000000 1.0
C      1  0.4365480000000  0.4620370000000  0.5192990000000 1.0
C      1  0.4244690000000  0.5142600000000  0.4878170000000 1.0
C      1  0.4792770000000  0.4245640000000  0.4697210000000 1.0
C      1  0.5290540000000  0.5245010000000  0.5927620000000 1.0
C      1  0.5143680000000  0.5273530000000  0.4399450000000 1.0
C      1  0.5310460000000  0.5260750000000  0.4650610000000 1.0
C      1  0.4264090000000  0.4612070000000  0.4927850000000 1.0
END
