TITL C-599891-72-1198 36.3516225560172 125000 -163.671880946186 0 0 29 (C1) n - 1
REM
REM in /home/nfs/bkarasulu/CARBON/AIRSS/Generating-Clusters/TERSOFF/Only-C1/FIRE-HFTN
REM
REM
REM
REM
REM
REM ./C.cell (11c1c37f851c82e70ff6c80c92926a4b)
REM AIRSS Version 0.9.1 bugfix July 2018 build 013d7b7c2542+ Fri, 06 Jul 2018 19:26:36 +0100
REM compiler GCC version 9.2.1 20190827 (Red Hat 9.2.1-1)
REM options -cpp -mtune=generic -march=x86-64 -g -O0 -fpre-include=/usr/include/finclude/math-vector-fortran.h
REM seed 2126449468 543027118 694327961 1172094016 1962794095 -1391080391 -451447279 -976112883 1206840344 -1629841343 -1893494571 -1936219345 1221687808 -360384308 -1027619743 -2007688729 371801694 758015048 1210330798 -1349796065 -592633387 711484729 404670941 -888439182 -1663104109 -1470030975 -1555074565 -1269528207 658337887 -57332850 699904182 -387317422 1628556758
REM
CELL 1.54180   50.00000   50.00000   50.00000   90.00000   90.00000   90.00000
LATT -1
SFAC C  
C      1  0.5266140000000  0.4889820000000  0.5874650000000 1.0
C      1  0.6455980000000  0.5685040000000  0.5846910000000 1.0
C      1  0.3443360000000  0.4601540000000  0.2763650000000 1.0
C      1  0.6390880000000  0.5430170000000  0.5877950000000 1.0
C      1  0.6319700000000  0.5161730000000  0.5910470000000 1.0
C      1  0.6049600000000  0.5089960000000  0.5901570000000 1.0
C      1  0.3857020000000  0.4830760000000  0.3307390000000 1.0
C      1  0.4621960000000  0.4862840000000  0.4700900000000 1.0
C      1  0.4876910000000  0.4873520000000  0.5165420000000 1.0
C      1  0.5130000000000  0.4826430000000  0.6110150000000 1.0
C      1  0.4494470000000  0.4857490000000  0.4468640000000 1.0
C      1  0.3729570000000  0.4825410000000  0.3075240000000 1.0
C      1  0.5000900000000  0.4766320000000  0.6333490000000 1.0
C      1  0.3594900000000  0.4819760000000  0.2829910000000 1.0
C      1  0.6584750000000  0.6191050000000  0.5785230000000 1.0
C      1  0.4744630000000  0.4647000000000  0.6776790000000 1.0
C      1  0.5131790000000  0.4884190000000  0.5629840000000 1.0
C      1  0.5793140000000  0.5024280000000  0.5892780000000 1.0
C      1  0.4366990000000  0.4852150000000  0.4236390000000 1.0
C      1  0.4112010000000  0.4841450000000  0.3771890000000 1.0
C      1  0.4871700000000  0.4706170000000  0.6556980000000 1.0
C      1  0.5536630000000  0.4958830000000  0.5883950000000 1.0
C      1  0.4749440000000  0.4868180000000  0.4933160000000 1.0
C      1  0.5004380000000  0.4878860000000  0.5397680000000 1.0
C      1  0.6512110000000  0.4971490000000  0.5950530000000 1.0
C      1  0.3984510000000  0.4836110000000  0.3539640000000 1.0
C      1  0.6520900000000  0.5940140000000  0.5815810000000 1.0
C      1  0.3616150000000  0.5032510000000  0.2658860000000 1.0
C      1  0.4239500000000  0.4846800000000  0.4004140000000 1.0
END
