TITL C-599897-7526-808 -0.00021183432735438 125000 -665.955017670329 0 0 109 (C1) n - 1
REM
REM in /home/nfs/bkarasulu/CARBON/AIRSS/Generating-Clusters/TERSOFF/Only-C1/FIRE-HFTN
REM
REM
REM
REM
REM
REM ./C.cell (11c1c37f851c82e70ff6c80c92926a4b)
REM AIRSS Version 0.9.1 bugfix July 2018 build 013d7b7c2542+ Fri, 06 Jul 2018 19:26:36 +0100
REM compiler GCC version 9.2.1 20190827 (Red Hat 9.2.1-1)
REM options -cpp -mtune=generic -march=x86-64 -g -O0 -fpre-include=/usr/include/finclude/math-vector-fortran.h
REM seed 1021510762 244985270 -1350279056 481141681 -1316953889 1947942865 201074980 1557032055 1238390592 1051907144 258667772 -2127737255 -4993279 -2126311593 -1007299133 -1956457669 1106729856 1575596051 -83337330 -900765486 -1948739217 -756906956 1046480524 -1098208565 -2000299047 1699530126 702396325 27797106 -1543192464 -1052477634 2138753674 -1970467376 -2095475781
REM
CELL 1.54180   50.00000   50.00000   50.00000   90.00000   90.00000   90.00000
LATT -1
SFAC C  
C      1  0.4893060000000  0.6149290000000  0.4694260000000 1.0
C      1  0.5670720000000  0.4398260000000  0.5805990000000 1.0
C      1  0.4913040000000  0.5270960000000  0.5580210000000 1.0
C      1  0.4929670000000  0.4595070000000  0.4178720000000 1.0
C      1  0.4666630000000  0.4566350000000  0.5974220000000 1.0
C      1  0.4778800000000  0.6126240000000  0.4248770000000 1.0
C      1  0.5329600000000  0.6127350000000  0.4851460000000 1.0
C      1  0.5055240000000  0.6128780000000  0.4928580000000 1.0
C      1  0.5126340000000  0.5445100000000  0.5095920000000 1.0
C      1  0.4343270000000  0.5400890000000  0.4768980000000 1.0
C      1  0.5215240000000  0.5667830000000  0.5637320000000 1.0
C      1  0.5594730000000  0.4279250000000  0.4961160000000 1.0
C      1  0.5008740000000  0.6164450000000  0.4420650000000 1.0
C      1  0.4560200000000  0.4209980000000  0.5390250000000 1.0
C      1  0.5229990000000  0.5707250000000  0.5146890000000 1.0
C      1  0.4302960000000  0.4207190000000  0.4587000000000 1.0
C      1  0.5507550000000  0.5606290000000  0.5628550000000 1.0
C      1  0.4364070000000  0.3925650000000  0.5022260000000 1.0
C      1  0.4752070000000  0.4689600000000  0.4809680000000 1.0
C      1  0.5672930000000  0.5883370000000  0.4579500000000 1.0
C      1  0.4120580000000  0.5329170000000  0.4613040000000 1.0
C      1  0.5212040000000  0.4973030000000  0.5167000000000 1.0
C      1  0.3831230000000  0.4917040000000  0.4948820000000 1.0
C      1  0.5017700000000  0.5008280000000  0.5597480000000 1.0
C      1  0.5719080000000  0.5888840000000  0.5033720000000 1.0
C      1  0.5828530000000  0.5221360000000  0.5603520000000 1.0
C      1  0.5082940000000  0.5845310000000  0.5350750000000 1.0
C      1  0.5556540000000  0.4647680000000  0.5741400000000 1.0
C      1  0.4922300000000  0.4915020000000  0.4818550000000 1.0
C      1  0.5750940000000  0.4088950000000  0.5418120000000 1.0
C      1  0.5677710000000  0.4782570000000  0.5519370000000 1.0
C      1  0.4637920000000  0.6002710000000  0.5153090000000 1.0
C      1  0.4058770000000  0.4621460000000  0.4638030000000 1.0
C      1  0.4506580000000  0.5095550000000  0.5340310000000 1.0
C      1  0.4399710000000  0.5664040000000  0.4855260000000 1.0
C      1  0.4833890000000  0.4415330000000  0.5806200000000 1.0
C      1  0.4899620000000  0.3764480000000  0.4519820000000 1.0
C      1  0.4428630000000  0.5783620000000  0.5525400000000 1.0
C      1  0.4529000000000  0.5541410000000  0.5480060000000 1.0
C      1  0.5196790000000  0.5249520000000  0.5936350000000 1.0
C      1  0.4858620000000  0.5354090000000  0.5098950000000 1.0
C      1  0.4074370000000  0.5007030000000  0.4252230000000 1.0
C      1  0.4449880000000  0.3979560000000  0.5271440000000 1.0
C      1  0.4779540000000  0.5168840000000  0.4883920000000 1.0
C      1  0.5305100000000  0.5235600000000  0.5163020000000 1.0
C      1  0.5088100000000  0.4843650000000  0.5379390000000 1.0
C      1  0.5185360000000  0.4974450000000  0.5838510000000 1.0
C      1  0.5456850000000  0.4740560000000  0.4855050000000 1.0
C      1  0.4228950000000  0.4808540000000  0.4157180000000 1.0
C      1  0.4249110000000  0.4467120000000  0.4496570000000 1.0
C      1  0.5447660000000  0.4343050000000  0.3817730000000 1.0
C      1  0.4924760000000  0.6032420000000  0.5179020000000 1.0
C      1  0.5816310000000  0.5767620000000  0.4796480000000 1.0
C      1  0.5935120000000  0.4493180000000  0.4483630000000 1.0
C      1  0.5686800000000  0.5410310000000  0.5750940000000 1.0
C      1  0.4212160000000  0.4796430000000  0.5873140000000 1.0
C      1  0.5344520000000  0.4354460000000  0.4070320000000 1.0
C      1  0.4475620000000  0.6004540000000  0.5381110000000 1.0
C      1  0.5396890000000  0.6186430000000  0.4127790000000 1.0
C      1  0.4556810000000  0.4433680000000  0.5218740000000 1.0
C      1  0.5064080000000  0.4351920000000  0.4115000000000 1.0
C      1  0.4652960000000  0.4585290000000  0.4223370000000 1.0
C      1  0.5503140000000  0.5080240000000  0.4405900000000 1.0
C      1  0.5096400000000  0.4110060000000  0.5150580000000 1.0
C      1  0.5660510000000  0.4448810000000  0.4515380000000 1.0
C      1  0.5194850000000  0.4852520000000  0.4910070000000 1.0
C      1  0.4705480000000  0.5325380000000  0.5375340000000 1.0
C      1  0.4323010000000  0.4017800000000  0.4774420000000 1.0
C      1  0.5509160000000  0.4370500000000  0.4295400000000 1.0
C      1  0.5693780000000  0.4136990000000  0.5162600000000 1.0
C      1  0.5970680000000  0.5293380000000  0.4996510000000 1.0
C      1  0.3951570000000  0.4875000000000  0.4699960000000 1.0
C      1  0.5546040000000  0.5326680000000  0.5257550000000 1.0
C      1  0.5545060000000  0.4482140000000  0.4774640000000 1.0
C      1  0.5287080000000  0.4704900000000  0.5833960000000 1.0
C      1  0.4023160000000  0.4853190000000  0.5694710000000 1.0
C      1  0.5836250000000  0.5051750000000  0.5093580000000 1.0
C      1  0.5947750000000  0.5518950000000  0.4844610000000 1.0
C      1  0.4490660000000  0.5179420000000  0.4873410000000 1.0
C      1  0.5744350000000  0.4180730000000  0.5668610000000 1.0
C      1  0.4882070000000  0.3889230000000  0.4285740000000 1.0
C      1  0.4964710000000  0.3772230000000  0.4777310000000 1.0
C      1  0.4698520000000  0.4231420000000  0.5634820000000 1.0
C      1  0.5668310000000  0.5076750000000  0.4618520000000 1.0
C      1  0.5121070000000  0.4351170000000  0.5258690000000 1.0
C      1  0.5592710000000  0.5582880000000  0.5357550000000 1.0
C      1  0.5082220000000  0.4829820000000  0.4212340000000 1.0
C      1  0.5510030000000  0.5773330000000  0.5172190000000 1.0
C      1  0.5287760000000  0.4988520000000  0.4276030000000 1.0
C      1  0.4527920000000  0.5911690000000  0.4901020000000 1.0
C      1  0.4616530000000  0.6057720000000  0.4678420000000 1.0
C      1  0.4014680000000  0.5087220000000  0.4516370000000 1.0
C      1  0.5040010000000  0.3901790000000  0.4996400000000 1.0
C      1  0.4437080000000  0.4702300000000  0.5980050000000 1.0
C      1  0.4553250000000  0.6065260000000  0.4397830000000 1.0
C      1  0.4379470000000  0.4601790000000  0.4278640000000 1.0
C      1  0.4934980000000  0.4105000000000  0.4139900000000 1.0
C      1  0.5085760000000  0.4518600000000  0.5720300000000 1.0
C      1  0.3815330000000  0.4913870000000  0.5214470000000 1.0
C      1  0.5069410000000  0.5448090000000  0.5750650000000 1.0
C      1  0.6188840000000  0.4549770000000  0.4465480000000 1.0
C      1  0.4381940000000  0.5051560000000  0.5103340000000 1.0
C      1  0.5286240000000  0.6136250000000  0.4372220000000 1.0
C      1  0.3885560000000  0.4889730000000  0.5469980000000 1.0
C      1  0.5096110000000  0.4565190000000  0.5433410000000 1.0
C      1  0.5805990000000  0.5008790000000  0.5399430000000 1.0
C      1  0.5445000000000  0.6056170000000  0.4596500000000 1.0
C      1  0.5671120000000  0.4939990000000  0.4872090000000 1.0
C      1  0.4613490000000  0.4542150000000  0.4982900000000 1.0
END
