TITL C-599895-9959-384 -106.153010402121 125000 -1015.73534586705 0 0 166 (C1) n - 1
REM
REM in /home/nfs/bkarasulu/CARBON/AIRSS/Generating-Clusters/TERSOFF/Only-C1/FIRE-HFTN
REM
REM
REM
REM
REM
REM ./C.cell (11c1c37f851c82e70ff6c80c92926a4b)
REM AIRSS Version 0.9.1 bugfix July 2018 build 013d7b7c2542+ Fri, 06 Jul 2018 19:26:36 +0100
REM compiler GCC version 9.2.1 20190827 (Red Hat 9.2.1-1)
REM options -cpp -mtune=generic -march=x86-64 -g -O0 -fpre-include=/usr/include/finclude/math-vector-fortran.h
REM seed -1069736158 -162189721 2047522272 1456176465 1021174290 1285017672 738748473 742417968 -1449642338 -959023219 -600690360 -1622167960 85389192 316838988 335109305 89267543 1190723166 -634190018 1675593249 466892072 -1346685955 -1825179719 1896991700 772702049 940217444 -1447163225 1871393159 -1643974953 663983897 1542965705 -1736823325 -1189025539 2142669916
REM
CELL 1.54180   50.00000   50.00000   50.00000   90.00000   90.00000   90.00000
LATT -1
SFAC C  
C      1  0.4043920000000  0.5369250000000  0.4703960000000 1.0
C      1  0.3899390000000  0.5273320000000  0.4925900000000 1.0
C      1  0.4692040000000  0.5693690000000  0.5327760000000 1.0
C      1  0.4925200000000  0.4320770000000  0.6024790000000 1.0
C      1  0.4813100000000  0.6013200000000  0.4811560000000 1.0
C      1  0.5649540000000  0.5873340000000  0.4583450000000 1.0
C      1  0.5552280000000  0.4783370000000  0.5251950000000 1.0
C      1  0.4779530000000  0.4777280000000  0.5641240000000 1.0
C      1  0.5361040000000  0.5044840000000  0.4121530000000 1.0
C      1  0.5179110000000  0.5508210000000  0.5020770000000 1.0
C      1  0.4925460000000  0.5146680000000  0.5252150000000 1.0
C      1  0.5981500000000  0.5131100000000  0.5483090000000 1.0
C      1  0.5849640000000  0.4551910000000  0.4442730000000 1.0
C      1  0.4635260000000  0.5406320000000  0.4587490000000 1.0
C      1  0.5311490000000  0.5289960000000  0.6039790000000 1.0
C      1  0.4869820000000  0.5710480000000  0.5940590000000 1.0
C      1  0.5523030000000  0.5020300000000  0.4567850000000 1.0
C      1  0.4890370000000  0.4101580000000  0.5843400000000 1.0
C      1  0.5613220000000  0.4490310000000  0.6087000000000 1.0
C      1  0.5218130000000  0.5021430000000  0.6167710000000 1.0
C      1  0.4342380000000  0.5752150000000  0.5774680000000 1.0
C      1  0.4865770000000  0.5353800000000  0.4122650000000 1.0
C      1  0.4301730000000  0.3132610000000  0.4618750000000 1.0
C      1  0.4694710000000  0.4259490000000  0.4299440000000 1.0
C      1  0.4589910000000  0.5128390000000  0.4584590000000 1.0
C      1  0.5586520000000  0.5482050000000  0.4267240000000 1.0
C      1  0.5772390000000  0.5164470000000  0.5704320000000 1.0
C      1  0.4414180000000  0.3633890000000  0.5128990000000 1.0
C      1  0.3850160000000  0.5132900000000  0.5164270000000 1.0
C      1  0.5997250000000  0.4880300000000  0.5332970000000 1.0
C      1  0.5561410000000  0.4213550000000  0.5110570000000 1.0
C      1  0.5549300000000  0.4538890000000  0.3104180000000 1.0
C      1  0.5343210000000  0.4606360000000  0.5228430000000 1.0
C      1  0.5460590000000  0.4533660000000  0.3349170000000 1.0
C      1  0.4624870000000  0.3824020000000  0.4396250000000 1.0
C      1  0.4242250000000  0.3844940000000  0.4718680000000 1.0
C      1  0.4319880000000  0.4732770000000  0.4487110000000 1.0
C      1  0.5481210000000  0.4466890000000  0.5839910000000 1.0
C      1  0.4704550000000  0.5602800000000  0.5042630000000 1.0
C      1  0.4827160000000  0.4630670000000  0.5146030000000 1.0
C      1  0.5209570000000  0.4742180000000  0.6217800000000 1.0
C      1  0.4341400000000  0.4997880000000  0.4608760000000 1.0
C      1  0.5496110000000  0.5386830000000  0.5370490000000 1.0
C      1  0.3675470000000  0.5236470000000  0.5348620000000 1.0
C      1  0.5468360000000  0.6238640000000  0.5202700000000 1.0
C      1  0.5116250000000  0.3976650000000  0.5717570000000 1.0
C      1  0.4840310000000  0.5732130000000  0.4821090000000 1.0
C      1  0.4469900000000  0.4256900000000  0.4482460000000 1.0
C      1  0.4324280000000  0.3612970000000  0.4864480000000 1.0
C      1  0.4122660000000  0.5167480000000  0.4508230000000 1.0
C      1  0.5525230000000  0.5886220000000  0.4846500000000 1.0
C      1  0.5140040000000  0.5947180000000  0.3786370000000 1.0
C      1  0.5462130000000  0.4044060000000  0.5326100000000 1.0
C      1  0.4442570000000  0.4734000000000  0.4009320000000 1.0
C      1  0.5949030000000  0.4474780000000  0.4678140000000 1.0
C      1  0.5576160000000  0.5258650000000  0.5134550000000 1.0
C      1  0.5145440000000  0.4426110000000  0.4842940000000 1.0
C      1  0.4426140000000  0.5604290000000  0.4535580000000 1.0
C      1  0.5183400000000  0.4556450000000  0.5453970000000 1.0
C      1  0.5829850000000  0.4334380000000  0.5142690000000 1.0
C      1  0.5273120000000  0.6184330000000  0.5397960000000 1.0
C      1  0.4118630000000  0.5072100000000  0.4223290000000 1.0
C      1  0.5821470000000  0.5441480000000  0.4722560000000 1.0
C      1  0.4519550000000  0.4686100000000  0.5702560000000 1.0
C      1  0.4937910000000  0.4623320000000  0.4877170000000 1.0
C      1  0.6051910000000  0.4798010000000  0.5043650000000 1.0
C      1  0.4923100000000  0.5869730000000  0.5349360000000 1.0
C      1  0.4605840000000  0.5484570000000  0.4081350000000 1.0
C      1  0.4255900000000  0.4805500000000  0.4210200000000 1.0
C      1  0.5692880000000  0.6097700000000  0.4424900000000 1.0
C      1  0.5129230000000  0.4649010000000  0.3689700000000 1.0
C      1  0.5573680000000  0.4988980000000  0.5061550000000 1.0
C      1  0.5723840000000  0.5600340000000  0.4495840000000 1.0
C      1  0.4239890000000  0.5799130000000  0.5498310000000 1.0
C      1  0.4837070000000  0.6154810000000  0.5273660000000 1.0
C      1  0.4465020000000  0.5896850000000  0.5349720000000 1.0
C      1  0.5690000000000  0.4676990000000  0.4247260000000 1.0
C      1  0.5470190000000  0.5454500000000  0.6229730000000 1.0
C      1  0.4303170000000  0.4452570000000  0.4883220000000 1.0
C      1  0.4311490000000  0.3362320000000  0.4741430000000 1.0
C      1  0.4645050000000  0.5129920000000  0.5172330000000 1.0
C      1  0.5972820000000  0.4515000000000  0.4957560000000 1.0
C      1  0.5659660000000  0.4548080000000  0.4000510000000 1.0
C      1  0.4210310000000  0.5231230000000  0.5733800000000 1.0
C      1  0.5374730000000  0.5341460000000  0.4121470000000 1.0
C      1  0.6028810000000  0.4309390000000  0.5890630000000 1.0
C      1  0.3660060000000  0.4452950000000  0.5113430000000 1.0
C      1  0.4567650000000  0.5355720000000  0.6001480000000 1.0
C      1  0.5289880000000  0.5181110000000  0.4622290000000 1.0
C      1  0.5200220000000  0.5898970000000  0.5412590000000 1.0
C      1  0.4488820000000  0.5677270000000  0.4265310000000 1.0
C      1  0.5971460000000  0.4995370000000  0.4839010000000 1.0
C      1  0.5616940000000  0.5439420000000  0.4923460000000 1.0
C      1  0.5614430000000  0.6025240000000  0.5084600000000 1.0
C      1  0.6160360000000  0.5375400000000  0.5072690000000 1.0
C      1  0.5683340000000  0.4954950000000  0.4793280000000 1.0
C      1  0.4936150000000  0.5985350000000  0.5888360000000 1.0
C      1  0.4913940000000  0.4639170000000  0.5423060000000 1.0
C      1  0.5513440000000  0.4395370000000  0.3817870000000 1.0
C      1  0.4954070000000  0.4862140000000  0.4717740000000 1.0
C      1  0.4818200000000  0.5231350000000  0.5923840000000 1.0
C      1  0.6039550000000  0.5277660000000  0.4831140000000 1.0
C      1  0.5315850000000  0.4385810000000  0.5633730000000 1.0
C      1  0.4067760000000  0.5726560000000  0.5261170000000 1.0
C      1  0.5311680000000  0.4107610000000  0.5562240000000 1.0
C      1  0.5086420000000  0.5236880000000  0.5041070000000 1.0
C      1  0.3825620000000  0.4649140000000  0.5158590000000 1.0
C      1  0.5146530000000  0.5421910000000  0.4547480000000 1.0
C      1  0.4642450000000  0.4043670000000  0.5723200000000 1.0
C      1  0.5724710000000  0.5849010000000  0.5283630000000 1.0
C      1  0.5130090000000  0.5714440000000  0.3903150000000 1.0
C      1  0.4415850000000  0.5069050000000  0.5324500000000 1.0
C      1  0.4357960000000  0.4482350000000  0.4610070000000 1.0
C      1  0.4287160000000  0.4689530000000  0.5564110000000 1.0
C      1  0.3983560000000  0.3932560000000  0.4738800000000 1.0
C      1  0.5032750000000  0.5441410000000  0.5969160000000 1.0
C      1  0.5539770000000  0.4912230000000  0.4304710000000 1.0
C      1  0.5724620000000  0.6304670000000  0.4269780000000 1.0
C      1  0.4225900000000  0.4861390000000  0.5347200000000 1.0
C      1  0.4801440000000  0.3995410000000  0.4246150000000 1.0
C      1  0.5874630000000  0.4390970000000  0.6095340000000 1.0
C      1  0.4587090000000  0.5473230000000  0.5496030000000 1.0
C      1  0.4495500000000  0.4000040000000  0.5488550000000 1.0
C      1  0.5783110000000  0.4703650000000  0.5403770000000 1.0
C      1  0.4316140000000  0.5232890000000  0.5982500000000 1.0
C      1  0.4200660000000  0.5796170000000  0.4981750000000 1.0
C      1  0.4385680000000  0.4213630000000  0.5344840000000 1.0
C      1  0.5482770000000  0.5214530000000  0.5787750000000 1.0
C      1  0.5009840000000  0.4552720000000  0.6137320000000 1.0
C      1  0.6114590000000  0.5339690000000  0.5339310000000 1.0
C      1  0.4943680000000  0.6219350000000  0.5744840000000 1.0
C      1  0.4895970000000  0.5537390000000  0.4617690000000 1.0
C      1  0.4973530000000  0.4760790000000  0.3891880000000 1.0
C      1  0.4380220000000  0.5277250000000  0.5513320000000 1.0
C      1  0.4316290000000  0.4344730000000  0.5125040000000 1.0
C      1  0.5609830000000  0.5606010000000  0.6388990000000 1.0
C      1  0.4405140000000  0.5358930000000  0.3925520000000 1.0
C      1  0.5444620000000  0.4131240000000  0.3879100000000 1.0
C      1  0.4208240000000  0.5615250000000  0.4731740000000 1.0
C      1  0.4572440000000  0.5644370000000  0.5933140000000 1.0
C      1  0.6005430000000  0.4315200000000  0.5624030000000 1.0
C      1  0.5094150000000  0.4935380000000  0.4082840000000 1.0
C      1  0.5051950000000  0.5149030000000  0.5508790000000 1.0
C      1  0.5409870000000  0.5634120000000  0.4915930000000 1.0
C      1  0.5629670000000  0.5633860000000  0.5417960000000 1.0
C      1  0.5461650000000  0.4624480000000  0.6280340000000 1.0
C      1  0.3973190000000  0.4879430000000  0.5217340000000 1.0
C      1  0.4424640000000  0.3971570000000  0.4545520000000 1.0
C      1  0.5127010000000  0.5062910000000  0.4823540000000 1.0
C      1  0.4412710000000  0.6002610000000  0.5078000000000 1.0
C      1  0.5319530000000  0.5250730000000  0.5548430000000 1.0
C      1  0.5029130000000  0.3929230000000  0.4105810000000 1.0
C      1  0.4175060000000  0.5241350000000  0.4004510000000 1.0
C      1  0.5867520000000  0.4429980000000  0.5412170000000 1.0
C      1  0.4810100000000  0.4977870000000  0.4492670000000 1.0
C      1  0.4592620000000  0.5349870000000  0.5003340000000 1.0
C      1  0.4671600000000  0.6137250000000  0.5027290000000 1.0
C      1  0.4477650000000  0.3751640000000  0.5359340000000 1.0
C      1  0.4901200000000  0.5080910000000  0.4235760000000 1.0
C      1  0.4692420000000  0.4717560000000  0.3910250000000 1.0
C      1  0.5368500000000  0.4526870000000  0.3611560000000 1.0
C      1  0.4883200000000  0.5038660000000  0.5717300000000 1.0
C      1  0.5358970000000  0.4402960000000  0.5026210000000 1.0
C      1  0.5123150000000  0.5474350000000  0.4045910000000 1.0
C      1  0.5007930000000  0.6298820000000  0.5471620000000 1.0
C      1  0.5260530000000  0.3969890000000  0.3982540000000 1.0
END
