TITL C-599895-9959-1162 2.64446254162825 125000 -267.075518588936 0 0 46 (C1) n - 1
REM
REM in /home/nfs/bkarasulu/CARBON/AIRSS/Generating-Clusters/TERSOFF/Only-C1/FIRE-HFTN
REM
REM
REM
REM
REM
REM ./C.cell (11c1c37f851c82e70ff6c80c92926a4b)
REM AIRSS Version 0.9.1 bugfix July 2018 build 013d7b7c2542+ Fri, 06 Jul 2018 19:26:36 +0100
REM compiler GCC version 9.2.1 20190827 (Red Hat 9.2.1-1)
REM options -cpp -mtune=generic -march=x86-64 -g -O0 -fpre-include=/usr/include/finclude/math-vector-fortran.h
REM seed 736820283 1018569827 1125693414 470108635 -1377656907 660556696 1907907905 -37007150 -1342863449 -2029357262 62766131 -369675413 -1743731445 1811284010 1635240850 2066729521 548677313 -625331845 1220191863 462579196 645341664 1804367693 737327932 2095593442 -1729836077 42318586 1005102361 -292703157 776932983 -1095290476 -1643846489 -1683963602 351382627
REM
CELL 1.54180   50.00000   50.00000   50.00000   90.00000   90.00000   90.00000
LATT -1
SFAC C  
C      1  0.4925080000000  0.5727730000000  0.4967360000000 1.0
C      1  0.4944180000000  0.5048320000000  0.4939480000000 1.0
C      1  0.5154780000000  0.4475220000000  0.5723360000000 1.0
C      1  0.5313940000000  0.5792300000000  0.5373470000000 1.0
C      1  0.4750790000000  0.5270900000000  0.4880570000000 1.0
C      1  0.4918520000000  0.5105340000000  0.4258590000000 1.0
C      1  0.5240280000000  0.4958680000000  0.5570040000000 1.0
C      1  0.4807530000000  0.4853660000000  0.5126650000000 1.0
C      1  0.5231490000000  0.5100920000000  0.5346000000000 1.0
C      1  0.4845130000000  0.4922760000000  0.4456150000000 1.0
C      1  0.5366610000000  0.4465690000000  0.4734720000000 1.0
C      1  0.4613770000000  0.4767630000000  0.4430920000000 1.0
C      1  0.4574050000000  0.5604420000000  0.4615960000000 1.0
C      1  0.5196700000000  0.5795780000000  0.4919440000000 1.0
C      1  0.4797800000000  0.5549820000000  0.4791520000000 1.0
C      1  0.4658080000000  0.4686720000000  0.5259370000000 1.0
C      1  0.4372850000000  0.5419090000000  0.4661930000000 1.0
C      1  0.4372500000000  0.4042070000000  0.5006260000000 1.0
C      1  0.5047960000000  0.5811540000000  0.5429020000000 1.0
C      1  0.6079730000000  0.5465040000000  0.5176480000000 1.0
C      1  0.5588830000000  0.4430630000000  0.4579300000000 1.0
C      1  0.4451380000000  0.5244160000000  0.4881460000000 1.0
C      1  0.6332680000000  0.5447790000000  0.5237160000000 1.0
C      1  0.5191820000000  0.4156470000000  0.5140990000000 1.0
C      1  0.5085090000000  0.4249700000000  0.5600770000000 1.0
C      1  0.5006320000000  0.4889450000000  0.4688380000000 1.0
C      1  0.5023440000000  0.4118220000000  0.5361650000000 1.0
C      1  0.5201540000000  0.4688460000000  0.4697680000000 1.0
C      1  0.5415380000000  0.5275130000000  0.4929470000000 1.0
C      1  0.4588400000000  0.5660990000000  0.5332820000000 1.0
C      1  0.4292790000000  0.4190810000000  0.4801100000000 1.0
C      1  0.4316230000000  0.4382980000000  0.4619320000000 1.0
C      1  0.4991700000000  0.5290100000000  0.4090010000000 1.0
C      1  0.5822630000000  0.5482080000000  0.5114900000000 1.0
C      1  0.4776500000000  0.3992960000000  0.5323730000000 1.0
C      1  0.5200310000000  0.5149670000000  0.5070110000000 1.0
C      1  0.5396330000000  0.5724520000000  0.5109960000000 1.0
C      1  0.5301390000000  0.4279590000000  0.4933310000000 1.0
C      1  0.4332620000000  0.5280670000000  0.5134690000000 1.0
C      1  0.4431330000000  0.4584300000000  0.4490090000000 1.0
C      1  0.5494770000000  0.5192260000000  0.4680910000000 1.0
C      1  0.4838100000000  0.5753540000000  0.5244860000000 1.0
C      1  0.4545410000000  0.3969720000000  0.5194600000000 1.0
C      1  0.5551640000000  0.5495360000000  0.5052660000000 1.0
C      1  0.4398930000000  0.5472340000000  0.5312720000000 1.0
C      1  0.5212640000000  0.4734450000000  0.5710050000000 1.0
END
