TITL C-599892-9790-1406 820.09557459793 125000 -1156.7828247794 0 0 187 (C1) n - 1
REM
REM in /home/nfs/bkarasulu/CARBON/AIRSS/Generating-Clusters/TERSOFF/Only-C1/FIRE-HFTN
REM
REM
REM
REM
REM
REM ./C.cell (11c1c37f851c82e70ff6c80c92926a4b)
REM AIRSS Version 0.9.1 bugfix July 2018 build 013d7b7c2542+ Fri, 06 Jul 2018 19:26:36 +0100
REM compiler GCC version 9.2.1 20190827 (Red Hat 9.2.1-1)
REM options -cpp -mtune=generic -march=x86-64 -g -O0 -fpre-include=/usr/include/finclude/math-vector-fortran.h
REM seed -632959276 -193056210 804549131 -2047933350 515442185 -1754136335 -829929199 -1184906857 -102456693 -860295881 820025951 1483850933 -225624958 -1706884268 2055078870 1102132817 -1822164796 -2078284000 -1010584050 311111199 2058858146 -626258352 -1172303006 655206370 -987835710 1933178141 -452327357 1781525416 716499955 402324691 -128803757 -324088668 -118531194
REM
CELL 1.54180   50.00000   50.00000   50.00000   90.00000   90.00000   90.00000
LATT -1
SFAC C  
C      1  0.4421550000000  0.5146990000000  0.3322520000000 1.0
C      1  0.5302270000000  0.4284240000000  0.4694450000000 1.0
C      1  0.5426520000000  0.3743910000000  0.5079220000000 1.0
C      1  0.5051920000000  0.5735870000000  0.5204760000000 1.0
C      1  0.6111680000000  0.5204770000000  0.5558150000000 1.0
C      1  0.4842550000000  0.5084720000000  0.5211620000000 1.0
C      1  0.5268510000000  0.4162490000000  0.5680430000000 1.0
C      1  0.5418870000000  0.5209680000000  0.6104110000000 1.0
C      1  0.4903640000000  0.4894750000000  0.5742050000000 1.0
C      1  0.4992940000000  0.4847110000000  0.5308270000000 1.0
C      1  0.5611100000000  0.5571020000000  0.5261610000000 1.0
C      1  0.5225980000000  0.4440630000000  0.5635250000000 1.0
C      1  0.6050070000000  0.4861630000000  0.4391630000000 1.0
C      1  0.5396000000000  0.3467860000000  0.5108450000000 1.0
C      1  0.4520540000000  0.3861600000000  0.4505050000000 1.0
C      1  0.3826380000000  0.4434330000000  0.4812910000000 1.0
C      1  0.4688760000000  0.3953640000000  0.4289550000000 1.0
C      1  0.5003120000000  0.5167050000000  0.3774240000000 1.0
C      1  0.4720310000000  0.5113060000000  0.3768630000000 1.0
C      1  0.3795110000000  0.4592680000000  0.4598070000000 1.0
C      1  0.5001470000000  0.6039970000000  0.4432990000000 1.0
C      1  0.5136840000000  0.5246090000000  0.4291220000000 1.0
C      1  0.5063350000000  0.4184900000000  0.4834940000000 1.0
C      1  0.6153730000000  0.4826650000000  0.4635220000000 1.0
C      1  0.4560600000000  0.4370380000000  0.3705400000000 1.0
C      1  0.4023580000000  0.4826380000000  0.5501880000000 1.0
C      1  0.5846490000000  0.4757310000000  0.4253600000000 1.0
C      1  0.5363700000000  0.5392530000000  0.4362910000000 1.0
C      1  0.5246370000000  0.4935190000000  0.5418720000000 1.0
C      1  0.4563220000000  0.4407110000000  0.5690690000000 1.0
C      1  0.4140070000000  0.5086980000000  0.4236950000000 1.0
C      1  0.4800970000000  0.5689570000000  0.5310260000000 1.0
C      1  0.6269440000000  0.5481380000000  0.5180500000000 1.0
C      1  0.4971770000000  0.3972740000000  0.4269880000000 1.0
C      1  0.4790380000000  0.5619560000000  0.5572420000000 1.0
C      1  0.4090470000000  0.4605280000000  0.5637820000000 1.0
C      1  0.4651180000000  0.6365330000000  0.4369190000000 1.0
C      1  0.6101390000000  0.5446490000000  0.5399850000000 1.0
C      1  0.5387490000000  0.5405700000000  0.5371330000000 1.0
C      1  0.4970420000000  0.5617610000000  0.4094490000000 1.0
C      1  0.5239290000000  0.3921150000000  0.5529830000000 1.0
C      1  0.5232790000000  0.6119610000000  0.4614250000000 1.0
C      1  0.4627350000000  0.5143190000000  0.5427180000000 1.0
C      1  0.5226630000000  0.4811500000000  0.4453530000000 1.0
C      1  0.4288630000000  0.4221110000000  0.4330410000000 1.0
C      1  0.4532650000000  0.4163650000000  0.4153420000000 1.0
C      1  0.4642410000000  0.4592660000000  0.6103710000000 1.0
C      1  0.5593130000000  0.5794920000000  0.5090750000000 1.0
C      1  0.4870820000000  0.4703520000000  0.4779760000000 1.0
C      1  0.4806780000000  0.4898030000000  0.4210480000000 1.0
C      1  0.4298910000000  0.4041630000000  0.4564980000000 1.0
C      1  0.6282150000000  0.5436620000000  0.4917750000000 1.0
C      1  0.4380270000000  0.4066360000000  0.5062430000000 1.0
C      1  0.4357620000000  0.5187750000000  0.5272040000000 1.0
C      1  0.4902520000000  0.5415000000000  0.4295810000000 1.0
C      1  0.6072430000000  0.4006690000000  0.5102980000000 1.0
C      1  0.4363760000000  0.6062560000000  0.5673390000000 1.0
C      1  0.5207260000000  0.5361610000000  0.6219240000000 1.0
C      1  0.5514230000000  0.5767720000000  0.5730440000000 1.0
C      1  0.5365600000000  0.5491850000000  0.4634420000000 1.0
C      1  0.5393800000000  0.6204070000000  0.4935400000000 1.0
C      1  0.4860850000000  0.5438490000000  0.4781770000000 1.0
C      1  0.4567200000000  0.5131100000000  0.3538020000000 1.0
C      1  0.5483600000000  0.4779980000000  0.5413490000000 1.0
C      1  0.4744600000000  0.5356120000000  0.4519630000000 1.0
C      1  0.6143520000000  0.5139440000000  0.6058110000000 1.0
C      1  0.4426770000000  0.5746640000000  0.4728380000000 1.0
C      1  0.4347090000000  0.5008880000000  0.4961470000000 1.0
C      1  0.4128960000000  0.5050690000000  0.5401960000000 1.0
C      1  0.4828390000000  0.4265280000000  0.4692110000000 1.0
C      1  0.6194100000000  0.4254700000000  0.5103700000000 1.0
C      1  0.4726250000000  0.6114400000000  0.4450170000000 1.0
C      1  0.5588040000000  0.3843980000000  0.4599560000000 1.0
C      1  0.5025130000000  0.6315030000000  0.5495990000000 1.0
C      1  0.5316040000000  0.2952390000000  0.5172790000000 1.0
C      1  0.6120340000000  0.4682750000000  0.4856510000000 1.0
C      1  0.4258630000000  0.4522720000000  0.5062880000000 1.0
C      1  0.4680090000000  0.4312300000000  0.3951270000000 1.0
C      1  0.5120220000000  0.5610490000000  0.4756500000000 1.0
C      1  0.4704600000000  0.4680040000000  0.5007340000000 1.0
C      1  0.5848660000000  0.5580970000000  0.5429480000000 1.0
C      1  0.4783870000000  0.3850560000000  0.5613250000000 1.0
C      1  0.4220610000000  0.4111840000000  0.4827160000000 1.0
C      1  0.4081760000000  0.4361320000000  0.4896420000000 1.0
C      1  0.5445680000000  0.5199530000000  0.5821510000000 1.0
C      1  0.5712210000000  0.4939680000000  0.5356350000000 1.0
C      1  0.6240410000000  0.5171710000000  0.5807650000000 1.0
C      1  0.4792830000000  0.5347270000000  0.5600290000000 1.0
C      1  0.5661260000000  0.4552420000000  0.4291320000000 1.0
C      1  0.4443320000000  0.4436760000000  0.3482380000000 1.0
C      1  0.4187790000000  0.5890600000000  0.5569130000000 1.0
C      1  0.4424460000000  0.4742160000000  0.5001930000000 1.0
C      1  0.5813800000000  0.4024810000000  0.4981360000000 1.0
C      1  0.3922230000000  0.5409220000000  0.5683780000000 1.0
C      1  0.5089200000000  0.5954020000000  0.5800460000000 1.0
C      1  0.5124430000000  0.4895120000000  0.3793780000000 1.0
C      1  0.5266950000000  0.3922750000000  0.5240450000000 1.0
C      1  0.4632590000000  0.4333510000000  0.5409780000000 1.0
C      1  0.5102900000000  0.5294180000000  0.6462880000000 1.0
C      1  0.4691550000000  0.4672170000000  0.4342180000000 1.0
C      1  0.5353250000000  0.4383820000000  0.5155040000000 1.0
C      1  0.5723390000000  0.5573810000000  0.5692860000000 1.0
C      1  0.4623820000000  0.5035700000000  0.4023280000000 1.0
C      1  0.5356390000000  0.3207860000000  0.5140140000000 1.0
C      1  0.5455040000000  0.6031890000000  0.5186800000000 1.0
C      1  0.4380110000000  0.5264660000000  0.5952440000000 1.0
C      1  0.5144860000000  0.3766160000000  0.4346130000000 1.0
C      1  0.4622770000000  0.5604000000000  0.4881640000000 1.0
C      1  0.4498230000000  0.5229090000000  0.4557680000000 1.0
C      1  0.4355620000000  0.5102010000000  0.4078070000000 1.0
C      1  0.4955400000000  0.5205970000000  0.4972640000000 1.0
C      1  0.4694040000000  0.4023910000000  0.5412760000000 1.0
C      1  0.5639050000000  0.5536700000000  0.4705910000000 1.0
C      1  0.5687730000000  0.5784620000000  0.4824580000000 1.0
C      1  0.4614120000000  0.4935820000000  0.5657110000000 1.0
C      1  0.5696990000000  0.5283940000000  0.5732830000000 1.0
C      1  0.3955470000000  0.5625590000000  0.4972060000000 1.0
C      1  0.4567650000000  0.3898160000000  0.5185610000000 1.0
C      1  0.5485310000000  0.5588150000000  0.4192560000000 1.0
C      1  0.3748020000000  0.5453570000000  0.5458490000000 1.0
C      1  0.5463510000000  0.5085060000000  0.4943920000000 1.0
C      1  0.5092500000000  0.5861350000000  0.4209550000000 1.0
C      1  0.4354660000000  0.5489600000000  0.5266640000000 1.0
C      1  0.4807540000000  0.5835360000000  0.5780960000000 1.0
C      1  0.5658770000000  0.6257320000000  0.4820060000000 1.0
C      1  0.5751580000000  0.4281440000000  0.4325730000000 1.0
C      1  0.4115400000000  0.4956860000000  0.4489710000000 1.0
C      1  0.5866140000000  0.5388140000000  0.4638360000000 1.0
C      1  0.5427520000000  0.6020490000000  0.5482010000000 1.0
C      1  0.4316820000000  0.4533920000000  0.5786240000000 1.0
C      1  0.4783560000000  0.4465050000000  0.5881190000000 1.0
C      1  0.4897070000000  0.6073140000000  0.4960810000000 1.0
C      1  0.5842920000000  0.5096670000000  0.5559010000000 1.0
C      1  0.4296710000000  0.5075790000000  0.4687740000000 1.0
C      1  0.5064600000000  0.5833530000000  0.4940350000000 1.0
C      1  0.5075790000000  0.4631050000000  0.3870000000000 1.0
C      1  0.4822280000000  0.4606660000000  0.5258730000000 1.0
C      1  0.5277280000000  0.5757120000000  0.5903280000000 1.0
C      1  0.4715600000000  0.6205840000000  0.5142050000000 1.0
C      1  0.5166710000000  0.4158150000000  0.5109800000000 1.0
C      1  0.4442680000000  0.4987440000000  0.5890810000000 1.0
C      1  0.5387390000000  0.4516750000000  0.5403660000000 1.0
C      1  0.5498290000000  0.4386250000000  0.4897980000000 1.0
C      1  0.4490810000000  0.6328720000000  0.5044100000000 1.0
C      1  0.5475240000000  0.6015350000000  0.4458340000000 1.0
C      1  0.5388100000000  0.4596550000000  0.4360650000000 1.0
C      1  0.5035590000000  0.3756600000000  0.5634670000000 1.0
C      1  0.3829580000000  0.5532900000000  0.5193940000000 1.0
C      1  0.4810100000000  0.5638990000000  0.6031330000000 1.0
C      1  0.4126630000000  0.5359370000000  0.5855080000000 1.0
C      1  0.5262280000000  0.4348170000000  0.4418030000000 1.0
C      1  0.5119370000000  0.4832560000000  0.4721490000000 1.0
C      1  0.4782030000000  0.4528360000000  0.4572810000000 1.0
C      1  0.5388710000000  0.5853580000000  0.4233780000000 1.0
C      1  0.4207050000000  0.5667870000000  0.5423860000000 1.0
C      1  0.5106220000000  0.5584740000000  0.6073850000000 1.0
C      1  0.5076280000000  0.4974730000000  0.4279150000000 1.0
C      1  0.4769030000000  0.6216750000000  0.5426160000000 1.0
C      1  0.3478390000000  0.5416130000000  0.5500100000000 1.0
C      1  0.4583850000000  0.5452450000000  0.6050270000000 1.0
C      1  0.4959430000000  0.4394260000000  0.4002650000000 1.0
C      1  0.4396530000000  0.4322060000000  0.5214340000000 1.0
C      1  0.5771040000000  0.4313860000000  0.4922260000000 1.0
C      1  0.4529380000000  0.5935310000000  0.4546610000000 1.0
C      1  0.5924800000000  0.5125720000000  0.6214250000000 1.0
C      1  0.5686610000000  0.5039400000000  0.5089850000000 1.0
C      1  0.4400780000000  0.4724210000000  0.6003210000000 1.0
C      1  0.4205140000000  0.4497820000000  0.4340250000000 1.0
C      1  0.5048840000000  0.5448340000000  0.3855280000000 1.0
C      1  0.5371790000000  0.3713460000000  0.4476750000000 1.0
C      1  0.4434160000000  0.4630090000000  0.4251650000000 1.0
C      1  0.5727310000000  0.4037600000000  0.4439690000000 1.0
C      1  0.5263940000000  0.5193040000000  0.5580170000000 1.0
C      1  0.5009230000000  0.4608470000000  0.5763910000000 1.0
C      1  0.5085660000000  0.4236540000000  0.4218150000000 1.0
C      1  0.5190590000000  0.5057250000000  0.4877280000000 1.0
C      1  0.5617120000000  0.3846490000000  0.4887180000000 1.0
C      1  0.4154060000000  0.5708380000000  0.4806870000000 1.0
C      1  0.5203750000000  0.6134460000000  0.5610410000000 1.0
C      1  0.6123840000000  0.5382560000000  0.4709720000000 1.0
C      1  0.4585790000000  0.5607190000000  0.5154240000000 1.0
C      1  0.6024970000000  0.4451380000000  0.4974510000000 1.0
C      1  0.4642140000000  0.6066490000000  0.5645090000000 1.0
C      1  0.4998270000000  0.5175170000000  0.5711240000000 1.0
C      1  0.5691650000000  0.6018480000000  0.4655310000000 1.0
C      1  0.4022940000000  0.4683610000000  0.4463780000000 1.0
C      1  0.5657660000000  0.5143710000000  0.6243910000000 1.0
END
