TITL C-599897-7526-186 0.26330855723468 125000 -797.870266998231 0 0 131 (C1) n - 1
REM
REM in /home/nfs/bkarasulu/CARBON/AIRSS/Generating-Clusters/TERSOFF/Only-C1/FIRE-HFTN
REM
REM
REM
REM
REM
REM ./C.cell (11c1c37f851c82e70ff6c80c92926a4b)
REM AIRSS Version 0.9.1 bugfix July 2018 build 013d7b7c2542+ Fri, 06 Jul 2018 19:26:36 +0100
REM compiler GCC version 9.2.1 20190827 (Red Hat 9.2.1-1)
REM options -cpp -mtune=generic -march=x86-64 -g -O0 -fpre-include=/usr/include/finclude/math-vector-fortran.h
REM seed 1392904462 -155789201 2080067193 -608789763 -1261448309 -1324274098 -1433747399 -1284879851 -2094502872 -293687682 2063773398 -683594804 316690006 -907023792 -2016957871 1523226567 -766496444 -795175246 -1339438140 -300772540 1751243983 370134806 -1266542661 1393160298 -1301817900 799084592 1003302879 -327838690 -1951754156 1102283888 1010600757 -2053861149 -103204116
REM
CELL 1.54180   50.00000   50.00000   50.00000   90.00000   90.00000   90.00000
LATT -1
SFAC C  
C      1  0.5937340000000  0.4912700000000  0.5463490000000 1.0
C      1  0.5158120000000  0.4704810000000  0.6050770000000 1.0
C      1  0.5834670000000  0.5318610000000  0.4631820000000 1.0
C      1  0.5735820000000  0.4843770000000  0.5278420000000 1.0
C      1  0.4851140000000  0.5010540000000  0.5464210000000 1.0
C      1  0.5458280000000  0.6091540000000  0.5220350000000 1.0
C      1  0.4594140000000  0.4951000000000  0.3756490000000 1.0
C      1  0.4425910000000  0.5296800000000  0.5495620000000 1.0
C      1  0.5111700000000  0.5199670000000  0.5142500000000 1.0
C      1  0.5109680000000  0.5030910000000  0.5604810000000 1.0
C      1  0.5058700000000  0.5670440000000  0.4074770000000 1.0
C      1  0.5322270000000  0.5860110000000  0.4489480000000 1.0
C      1  0.4994540000000  0.5440840000000  0.3895240000000 1.0
C      1  0.5396310000000  0.4038880000000  0.4969970000000 1.0
C      1  0.4127720000000  0.5399470000000  0.5882480000000 1.0
C      1  0.5042090000000  0.5329390000000  0.4640290000000 1.0
C      1  0.5060440000000  0.5050060000000  0.4713450000000 1.0
C      1  0.4935540000000  0.5589580000000  0.4691260000000 1.0
C      1  0.5613300000000  0.4992690000000  0.6585200000000 1.0
C      1  0.5643190000000  0.4360300000000  0.5289820000000 1.0
C      1  0.5804380000000  0.5530670000000  0.4826870000000 1.0
C      1  0.4981440000000  0.5283030000000  0.4350090000000 1.0
C      1  0.5684290000000  0.5189220000000  0.5731510000000 1.0
C      1  0.4556370000000  0.4339020000000  0.5550450000000 1.0
C      1  0.6080590000000  0.5154240000000  0.5029040000000 1.0
C      1  0.5248340000000  0.4717780000000  0.5178320000000 1.0
C      1  0.4814650000000  0.4517930000000  0.5161310000000 1.0
C      1  0.5045350000000  0.5808630000000  0.4530040000000 1.0
C      1  0.4515650000000  0.5020020000000  0.4967910000000 1.0
C      1  0.5770920000000  0.5485930000000  0.5111200000000 1.0
C      1  0.4735980000000  0.5114950000000  0.4370350000000 1.0
C      1  0.3965050000000  0.5115700000000  0.4708360000000 1.0
C      1  0.5517090000000  0.4929130000000  0.6351510000000 1.0
C      1  0.4644780000000  0.5617030000000  0.4647350000000 1.0
C      1  0.5550530000000  0.5068160000000  0.5223030000000 1.0
C      1  0.4691760000000  0.4525070000000  0.4236260000000 1.0
C      1  0.4111490000000  0.4881260000000  0.4628470000000 1.0
C      1  0.3986740000000  0.4910720000000  0.5645450000000 1.0
C      1  0.4656390000000  0.4271920000000  0.5278820000000 1.0
C      1  0.5019840000000  0.3990270000000  0.5475270000000 1.0
C      1  0.4955180000000  0.5862330000000  0.5079250000000 1.0
C      1  0.5715320000000  0.5045710000000  0.4204540000000 1.0
C      1  0.5750270000000  0.4585690000000  0.5152400000000 1.0
C      1  0.4977720000000  0.4499110000000  0.4875230000000 1.0
C      1  0.4431080000000  0.5285970000000  0.5009520000000 1.0
C      1  0.5498610000000  0.4916930000000  0.4058380000000 1.0
C      1  0.4005330000000  0.5221290000000  0.5224250000000 1.0
C      1  0.5004500000000  0.3797280000000  0.5675480000000 1.0
C      1  0.4474190000000  0.5492710000000  0.4827680000000 1.0
C      1  0.5016080000000  0.5689990000000  0.5518890000000 1.0
C      1  0.4353850000000  0.5289560000000  0.5775810000000 1.0
C      1  0.4729440000000  0.4779860000000  0.5302890000000 1.0
C      1  0.5461760000000  0.5984720000000  0.4698830000000 1.0
C      1  0.4815530000000  0.4018170000000  0.5282430000000 1.0
C      1  0.5801960000000  0.4841670000000  0.4735120000000 1.0
C      1  0.3906800000000  0.5213270000000  0.4956220000000 1.0
C      1  0.5351790000000  0.6050480000000  0.5465040000000 1.0
C      1  0.5221030000000  0.5286490000000  0.5682000000000 1.0
C      1  0.5380090000000  0.5701050000000  0.4256170000000 1.0
C      1  0.4884190000000  0.4660190000000  0.4046540000000 1.0
C      1  0.5174990000000  0.5906450000000  0.5614220000000 1.0
C      1  0.5278790000000  0.5092510000000  0.4018350000000 1.0
C      1  0.5243830000000  0.5264320000000  0.4238530000000 1.0
C      1  0.4462420000000  0.4837200000000  0.5189930000000 1.0
C      1  0.4670120000000  0.4137950000000  0.4634710000000 1.0
C      1  0.5414550000000  0.4866610000000  0.6101710000000 1.0
C      1  0.5614540000000  0.4085100000000  0.4778740000000 1.0
C      1  0.5472540000000  0.5383600000000  0.5721370000000 1.0
C      1  0.5975150000000  0.5325060000000  0.5254260000000 1.0
C      1  0.5208770000000  0.4651060000000  0.4916280000000 1.0
C      1  0.5492880000000  0.6062690000000  0.4954790000000 1.0
C      1  0.4221480000000  0.4699540000000  0.5112210000000 1.0
C      1  0.4892030000000  0.4817020000000  0.6080700000000 1.0
C      1  0.4277330000000  0.5312350000000  0.5252530000000 1.0
C      1  0.4273550000000  0.5504870000000  0.4097280000000 1.0
C      1  0.4524960000000  0.4497770000000  0.5762050000000 1.0
C      1  0.5280710000000  0.4986030000000  0.5209570000000 1.0
C      1  0.5072310000000  0.5663230000000  0.5236180000000 1.0
C      1  0.4584150000000  0.5211900000000  0.5943270000000 1.0
C      1  0.5239170000000  0.4165640000000  0.5456370000000 1.0
C      1  0.5155290000000  0.4023020000000  0.4783070000000 1.0
C      1  0.4788710000000  0.5414360000000  0.5909100000000 1.0
C      1  0.5700690000000  0.5288310000000  0.4373030000000 1.0
C      1  0.5154580000000  0.4562500000000  0.4043600000000 1.0
C      1  0.5421260000000  0.4169320000000  0.5222510000000 1.0
C      1  0.5313140000000  0.4834290000000  0.5656750000000 1.0
C      1  0.4808970000000  0.4951890000000  0.4601060000000 1.0
C      1  0.5031430000000  0.5136590000000  0.3872820000000 1.0
C      1  0.5463490000000  0.5437220000000  0.4298920000000 1.0
C      1  0.4869310000000  0.3968790000000  0.4791450000000 1.0
C      1  0.5524120000000  0.5366650000000  0.5180460000000 1.0
C      1  0.4302520000000  0.4868280000000  0.4398320000000 1.0
C      1  0.4389340000000  0.5710100000000  0.4223760000000 1.0
C      1  0.5850800000000  0.4608880000000  0.4889750000000 1.0
C      1  0.4844290000000  0.4907350000000  0.3880870000000 1.0
C      1  0.5947190000000  0.5086410000000  0.4774810000000 1.0
C      1  0.5269880000000  0.4860720000000  0.4734140000000 1.0
C      1  0.5412350000000  0.4647830000000  0.4048630000000 1.0
C      1  0.3909160000000  0.5061970000000  0.5437000000000 1.0
C      1  0.4109280000000  0.4700790000000  0.4859490000000 1.0
C      1  0.5534080000000  0.4868110000000  0.4644880000000 1.0
C      1  0.4827510000000  0.6084160000000  0.5009150000000 1.0
C      1  0.5334180000000  0.4354630000000  0.5662710000000 1.0
C      1  0.4610670000000  0.4848900000000  0.4761820000000 1.0
C      1  0.4176120000000  0.4818120000000  0.5811840000000 1.0
C      1  0.4385930000000  0.5105590000000  0.3827760000000 1.0
C      1  0.4346030000000  0.5236600000000  0.4073260000000 1.0
C      1  0.5533020000000  0.4945050000000  0.5836990000000 1.0
C      1  0.4786680000000  0.4334720000000  0.4440700000000 1.0
C      1  0.4519030000000  0.4580480000000  0.4747550000000 1.0
C      1  0.4491160000000  0.4300670000000  0.4797970000000 1.0
C      1  0.4713760000000  0.5276600000000  0.5473640000000 1.0
C      1  0.4792410000000  0.3866020000000  0.5044920000000 1.0
C      1  0.4442720000000  0.4742810000000  0.5873810000000 1.0
C      1  0.4425600000000  0.4631950000000  0.4281610000000 1.0
C      1  0.4441820000000  0.4230730000000  0.5068010000000 1.0
C      1  0.4618980000000  0.5731410000000  0.4378870000000 1.0
C      1  0.4845860000000  0.5492700000000  0.5634450000000 1.0
C      1  0.4454340000000  0.5101440000000  0.4300360000000 1.0
C      1  0.5514570000000  0.4204490000000  0.4549960000000 1.0
C      1  0.5230150000000  0.4219640000000  0.4567780000000 1.0
C      1  0.4703850000000  0.6297370000000  0.4911810000000 1.0
C      1  0.4885490000000  0.5789110000000  0.4274750000000 1.0
C      1  0.5223010000000  0.4586690000000  0.5783860000000 1.0
C      1  0.5243330000000  0.5452700000000  0.5160250000000 1.0
C      1  0.4988870000000  0.3620530000000  0.5866330000000 1.0
C      1  0.5614040000000  0.4385970000000  0.5579520000000 1.0
C      1  0.5017600000000  0.4408280000000  0.4592790000000 1.0
C      1  0.4582410000000  0.6501330000000  0.4804080000000 1.0
C      1  0.5910860000000  0.5195030000000  0.5529420000000 1.0
C      1  0.4638640000000  0.4926740000000  0.5987840000000 1.0
END
