TITL C-599895-9959-837 -0.116425228771051 125000 -825.08235581224 0 0 136 (C1) n - 1
REM
REM in /home/nfs/bkarasulu/CARBON/AIRSS/Generating-Clusters/TERSOFF/Only-C1/FIRE-HFTN
REM
REM
REM
REM
REM
REM ./C.cell (11c1c37f851c82e70ff6c80c92926a4b)
REM AIRSS Version 0.9.1 bugfix July 2018 build 013d7b7c2542+ Fri, 06 Jul 2018 19:26:36 +0100
REM compiler GCC version 9.2.1 20190827 (Red Hat 9.2.1-1)
REM options -cpp -mtune=generic -march=x86-64 -g -O0 -fpre-include=/usr/include/finclude/math-vector-fortran.h
REM seed -303165348 1409586000 -238993804 -1618507381 1680194061 1395120470 -1649773750 -611489365 -1634764882 2143944615 256600899 -2086675276 -411835253 -228071826 487190597 2093055938 1112836063 23702020 267159809 1522047463 -332207224 -343710711 -1573739184 -1630312575 1494402951 636172265 813628896 -21683626 -758986003 -1543328874 1656244307 -2141566336 -196139159
REM
CELL 1.54180   50.00000   50.00000   50.00000   90.00000   90.00000   90.00000
LATT -1
SFAC C  
C      1  0.5825960000000  0.4765810000000  0.4153880000000 1.0
C      1  0.4816810000000  0.4673390000000  0.4568300000000 1.0
C      1  0.4294480000000  0.4745030000000  0.5221930000000 1.0
C      1  0.4770320000000  0.4748680000000  0.3968520000000 1.0
C      1  0.5123510000000  0.4755270000000  0.6035980000000 1.0
C      1  0.4469680000000  0.5265980000000  0.4895650000000 1.0
C      1  0.4572970000000  0.5688460000000  0.5159540000000 1.0
C      1  0.4994620000000  0.5012240000000  0.6016310000000 1.0
C      1  0.4624220000000  0.5001680000000  0.4887770000000 1.0
C      1  0.5266580000000  0.4716790000000  0.4414730000000 1.0
C      1  0.5562580000000  0.3827850000000  0.4765000000000 1.0
C      1  0.5960300000000  0.4798590000000  0.5619920000000 1.0
C      1  0.6105580000000  0.4773890000000  0.5114830000000 1.0
C      1  0.4540580000000  0.4552220000000  0.5584450000000 1.0
C      1  0.4459940000000  0.4085280000000  0.4823030000000 1.0
C      1  0.5153560000000  0.4501550000000  0.5952930000000 1.0
C      1  0.5504430000000  0.5873540000000  0.5389150000000 1.0
C      1  0.4838590000000  0.3720390000000  0.5603620000000 1.0
C      1  0.4213220000000  0.4080850000000  0.4685330000000 1.0
C      1  0.4171410000000  0.5491710000000  0.5214810000000 1.0
C      1  0.4523850000000  0.5440970000000  0.5967500000000 1.0
C      1  0.4958000000000  0.5448420000000  0.3768430000000 1.0
C      1  0.6066430000000  0.5408140000000  0.5743060000000 1.0
C      1  0.3961750000000  0.4962430000000  0.4529140000000 1.0
C      1  0.4281620000000  0.3449680000000  0.5102510000000 1.0
C      1  0.5764710000000  0.4435480000000  0.4511300000000 1.0
C      1  0.4751280000000  0.3979640000000  0.5566980000000 1.0
C      1  0.6144150000000  0.5559670000000  0.5228150000000 1.0
C      1  0.5158450000000  0.4584400000000  0.4886430000000 1.0
C      1  0.5808510000000  0.4903780000000  0.5811870000000 1.0
C      1  0.4882160000000  0.5147200000000  0.4477230000000 1.0
C      1  0.4373570000000  0.4979670000000  0.4190740000000 1.0
C      1  0.5085840000000  0.5451090000000  0.5498900000000 1.0
C      1  0.5073560000000  0.5293930000000  0.4626560000000 1.0
C      1  0.4737370000000  0.4940380000000  0.4617720000000 1.0
C      1  0.4670080000000  0.5671520000000  0.4339600000000 1.0
C      1  0.3863080000000  0.5614310000000  0.5517780000000 1.0
C      1  0.4799500000000  0.4161210000000  0.5785170000000 1.0
C      1  0.5451370000000  0.5295970000000  0.5876070000000 1.0
C      1  0.4020380000000  0.5384650000000  0.5438430000000 1.0
C      1  0.5155100000000  0.4069140000000  0.4658700000000 1.0
C      1  0.4510650000000  0.5229220000000  0.4217470000000 1.0
C      1  0.4526840000000  0.4738660000000  0.4122410000000 1.0
C      1  0.5208640000000  0.4886860000000  0.5526160000000 1.0
C      1  0.4598210000000  0.5263430000000  0.5379030000000 1.0
C      1  0.4096460000000  0.4943010000000  0.5268070000000 1.0
C      1  0.5568600000000  0.5521930000000  0.5728390000000 1.0
C      1  0.5314680000000  0.5144960000000  0.4673130000000 1.0
C      1  0.4126800000000  0.4181000000000  0.4451210000000 1.0
C      1  0.4841450000000  0.5767150000000  0.5154960000000 1.0
C      1  0.4127980000000  0.5787700000000  0.5167640000000 1.0
C      1  0.4106030000000  0.5120210000000  0.5501760000000 1.0
C      1  0.4475010000000  0.5463500000000  0.4389890000000 1.0
C      1  0.4474040000000  0.4501230000000  0.4282010000000 1.0
C      1  0.5424760000000  0.4922090000000  0.5374060000000 1.0
C      1  0.5093230000000  0.4635870000000  0.4616790000000 1.0
C      1  0.5910600000000  0.5166790000000  0.4572840000000 1.0
C      1  0.4919870000000  0.5779970000000  0.4882040000000 1.0
C      1  0.5413060000000  0.5141250000000  0.4937900000000 1.0
C      1  0.4600800000000  0.4251790000000  0.5967880000000 1.0
C      1  0.5600360000000  0.5602420000000  0.4671560000000 1.0
C      1  0.4380870000000  0.3690250000000  0.5088770000000 1.0
C      1  0.5615770000000  0.4305140000000  0.4714490000000 1.0
C      1  0.4623470000000  0.4035560000000  0.5316610000000 1.0
C      1  0.4959940000000  0.4412830000000  0.4992570000000 1.0
C      1  0.5199090000000  0.4626900000000  0.4158600000000 1.0
C      1  0.5427380000000  0.5672380000000  0.4436220000000 1.0
C      1  0.3888890000000  0.4982260000000  0.4785040000000 1.0
C      1  0.4492070000000  0.3949110000000  0.5076990000000 1.0
C      1  0.4771310000000  0.4683640000000  0.5598500000000 1.0
C      1  0.5441530000000  0.4075620000000  0.4709150000000 1.0
C      1  0.5178980000000  0.5230920000000  0.5959520000000 1.0
C      1  0.5956160000000  0.4888510000000  0.4610110000000 1.0
C      1  0.4648800000000  0.4451400000000  0.4505450000000 1.0
C      1  0.5389420000000  0.6291820000000  0.4438440000000 1.0
C      1  0.4674080000000  0.4216510000000  0.4682450000000 1.0
C      1  0.4781990000000  0.6014620000000  0.4770470000000 1.0
C      1  0.5394630000000  0.4958790000000  0.4477930000000 1.0
C      1  0.6314790000000  0.5391250000000  0.5633160000000 1.0
C      1  0.5881100000000  0.5594640000000  0.5329230000000 1.0
C      1  0.5603280000000  0.4455890000000  0.4953490000000 1.0
C      1  0.4500150000000  0.5167980000000  0.5904230000000 1.0
C      1  0.5187170000000  0.6116580000000  0.4488070000000 1.0
C      1  0.4933440000000  0.5921030000000  0.5368770000000 1.0
C      1  0.5485590000000  0.5522990000000  0.4198200000000 1.0
C      1  0.4799000000000  0.5207670000000  0.4212940000000 1.0
C      1  0.5056040000000  0.4760330000000  0.3953890000000 1.0
C      1  0.4948590000000  0.6187170000000  0.4624070000000 1.0
C      1  0.6353480000000  0.5464800000000  0.5373840000000 1.0
C      1  0.4378910000000  0.5887890000000  0.5062970000000 1.0
C      1  0.4238550000000  0.4348090000000  0.4272300000000 1.0
C      1  0.5191660000000  0.5842080000000  0.4407310000000 1.0
C      1  0.4812020000000  0.5085290000000  0.5340880000000 1.0
C      1  0.3922260000000  0.4986260000000  0.5050120000000 1.0
C      1  0.4454690000000  0.5412110000000  0.5163680000000 1.0
C      1  0.5470110000000  0.5069040000000  0.3907460000000 1.0
C      1  0.4513500000000  0.4751180000000  0.5033840000000 1.0
C      1  0.5670740000000  0.5740410000000  0.5195820000000 1.0
C      1  0.5832250000000  0.5492960000000  0.5605050000000 1.0
C      1  0.4698020000000  0.4990910000000  0.6021650000000 1.0
C      1  0.5229480000000  0.5425030000000  0.5283520000000 1.0
C      1  0.6064120000000  0.4763620000000  0.5377410000000 1.0
C      1  0.4594060000000  0.4744300000000  0.6123960000000 1.0
C      1  0.5480090000000  0.5331500000000  0.4011550000000 1.0
C      1  0.5081190000000  0.3926720000000  0.4432660000000 1.0
C      1  0.5786460000000  0.3363760000000  0.4868790000000 1.0
C      1  0.3921080000000  0.5840100000000  0.5363490000000 1.0
C      1  0.4619950000000  0.5688380000000  0.5957580000000 1.0
C      1  0.6073140000000  0.4809290000000  0.4853200000000 1.0
C      1  0.4324410000000  0.4556290000000  0.5428230000000 1.0
C      1  0.4931520000000  0.5746930000000  0.4319120000000 1.0
C      1  0.4122160000000  0.4956200000000  0.4315940000000 1.0
C      1  0.5052190000000  0.4282520000000  0.5833500000000 1.0
C      1  0.5675460000000  0.3593990000000  0.4817450000000 1.0
C      1  0.4864970000000  0.5056080000000  0.5065400000000 1.0
C      1  0.4508900000000  0.6046870000000  0.4863130000000 1.0
C      1  0.4926170000000  0.5313880000000  0.3990070000000 1.0
C      1  0.4755810000000  0.5885920000000  0.5842270000000 1.0
C      1  0.5225810000000  0.4946930000000  0.3821620000000 1.0
C      1  0.4930040000000  0.4893690000000  0.5509610000000 1.0
C      1  0.4936360000000  0.4189860000000  0.4805920000000 1.0
C      1  0.5450740000000  0.4907740000000  0.5095580000000 1.0
C      1  0.5689230000000  0.4901000000000  0.3968180000000 1.0
C      1  0.4715550000000  0.4542730000000  0.5067870000000 1.0
C      1  0.5397460000000  0.5392000000000  0.5064660000000 1.0
C      1  0.5407980000000  0.4650750000000  0.4991960000000 1.0
C      1  0.5863720000000  0.4688460000000  0.4422410000000 1.0
C      1  0.5550880000000  0.5613820000000  0.4962210000000 1.0
C      1  0.4548550000000  0.4480330000000  0.6101820000000 1.0
C      1  0.4881020000000  0.5975530000000  0.5624810000000 1.0
C      1  0.5809590000000  0.5413890000000  0.4604960000000 1.0
C      1  0.5634040000000  0.5079860000000  0.5910150000000 1.0
C      1  0.5008740000000  0.5541380000000  0.4754580000000 1.0
C      1  0.4398360000000  0.5403060000000  0.4656170000000 1.0
C      1  0.4283360000000  0.5089480000000  0.5728560000000 1.0
C      1  0.5449530000000  0.5765410000000  0.5636210000000 1.0
END
