TITL C-599893-4344-188 0.000124751388458632 125000 -622.432016429918 0 0 101 (C1) n - 1
REM
REM in /home/nfs/bkarasulu/CARBON/AIRSS/Generating-Clusters/TERSOFF/Only-C1/FIRE-HFTN
REM
REM
REM
REM
REM
REM ./C.cell (11c1c37f851c82e70ff6c80c92926a4b)
REM AIRSS Version 0.9.1 bugfix July 2018 build 013d7b7c2542+ Fri, 06 Jul 2018 19:26:36 +0100
REM compiler GCC version 9.2.1 20190827 (Red Hat 9.2.1-1)
REM options -cpp -mtune=generic -march=x86-64 -g -O0 -fpre-include=/usr/include/finclude/math-vector-fortran.h
REM seed 1265267138 2075931297 2140170533 -806016669 1793831266 -1677666772 -293868939 -449733581 1159479293 316114690 283222108 1229941267 -1967811735 2056620809 -1226677972 -1396190155 -1322024987 -1158866735 302648215 1608491016 -1404398271 122021660 1423811957 8529670 -1692099971 -1450251533 -881420255 -1512198069 884938519 -778047106 1870375693 1540097833 -1324360783
REM
CELL 1.54180   50.00000   50.00000   50.00000   90.00000   90.00000   90.00000
LATT -1
SFAC C  
C      1  0.4815240000000  0.5623390000000  0.4194410000000 1.0
C      1  0.4473150000000  0.4878840000000  0.5545560000000 1.0
C      1  0.5469900000000  0.6082930000000  0.5038450000000 1.0
C      1  0.5417720000000  0.4400270000000  0.3588080000000 1.0
C      1  0.5648690000000  0.4236660000000  0.4979770000000 1.0
C      1  0.5273360000000  0.5122130000000  0.6012910000000 1.0
C      1  0.5502870000000  0.5171060000000  0.4965980000000 1.0
C      1  0.4820020000000  0.5573220000000  0.5408310000000 1.0
C      1  0.4735510000000  0.4773840000000  0.5119810000000 1.0
C      1  0.5396220000000  0.5407900000000  0.4852510000000 1.0
C      1  0.4841280000000  0.4069620000000  0.5189840000000 1.0
C      1  0.5495520000000  0.4072350000000  0.5158600000000 1.0
C      1  0.4148470000000  0.4762700000000  0.4891930000000 1.0
C      1  0.4540000000000  0.6096070000000  0.5033860000000 1.0
C      1  0.4845980000000  0.5885440000000  0.4713900000000 1.0
C      1  0.5095500000000  0.5649480000000  0.4223210000000 1.0
C      1  0.5912360000000  0.4860540000000  0.4444030000000 1.0
C      1  0.5548120000000  0.4520850000000  0.5497010000000 1.0
C      1  0.5690340000000  0.4658860000000  0.5691430000000 1.0
C      1  0.5048380000000  0.6227220000000  0.5283590000000 1.0
C      1  0.5315730000000  0.4090600000000  0.5379930000000 1.0
C      1  0.5560300000000  0.5813160000000  0.5057600000000 1.0
C      1  0.5522270000000  0.5459410000000  0.5474450000000 1.0
C      1  0.4336210000000  0.5566480000000  0.4379470000000 1.0
C      1  0.5112110000000  0.5429080000000  0.4838260000000 1.0
C      1  0.4543090000000  0.4884810000000  0.4647010000000 1.0
C      1  0.4468300000000  0.5149950000000  0.4768280000000 1.0
C      1  0.5611120000000  0.4327530000000  0.4022650000000 1.0
C      1  0.5807230000000  0.4347510000000  0.4511140000000 1.0
C      1  0.4547790000000  0.5135900000000  0.4218190000000 1.0
C      1  0.5847810000000  0.4617950000000  0.4584460000000 1.0
C      1  0.4177810000000  0.4492810000000  0.5576930000000 1.0
C      1  0.4602120000000  0.4524930000000  0.5833210000000 1.0
C      1  0.4888940000000  0.5204180000000  0.5693610000000 1.0
C      1  0.5685920000000  0.5005770000000  0.4829290000000 1.0
C      1  0.4558500000000  0.4231750000000  0.4596340000000 1.0
C      1  0.4649870000000  0.5860230000000  0.4198010000000 1.0
C      1  0.5656850000000  0.4806490000000  0.5910980000000 1.0
C      1  0.4649750000000  0.5397270000000  0.4235650000000 1.0
C      1  0.4658010000000  0.6056640000000  0.4795790000000 1.0
C      1  0.5236430000000  0.4626010000000  0.3972510000000 1.0
C      1  0.4028950000000  0.5021320000000  0.4835610000000 1.0
C      1  0.4671290000000  0.5262800000000  0.4919780000000 1.0
C      1  0.5732110000000  0.4712930000000  0.4839500000000 1.0
C      1  0.4923360000000  0.4194020000000  0.5647240000000 1.0
C      1  0.4333070000000  0.5559850000000  0.5288460000000 1.0
C      1  0.5018540000000  0.4046520000000  0.5410970000000 1.0
C      1  0.5569250000000  0.5715280000000  0.5331520000000 1.0
C      1  0.5200700000000  0.4604780000000  0.5163640000000 1.0
C      1  0.5748340000000  0.4284790000000  0.4245990000000 1.0
C      1  0.4195690000000  0.5219620000000  0.4707080000000 1.0
C      1  0.4920060000000  0.5308890000000  0.5428610000000 1.0
C      1  0.5327620000000  0.5720530000000  0.4341710000000 1.0
C      1  0.5480590000000  0.4605740000000  0.5236010000000 1.0
C      1  0.4571880000000  0.5687040000000  0.5312230000000 1.0
C      1  0.5122510000000  0.4416800000000  0.4957050000000 1.0
C      1  0.5650730000000  0.4523120000000  0.5029450000000 1.0
C      1  0.5752550000000  0.4169370000000  0.4725930000000 1.0
C      1  0.4195430000000  0.4440070000000  0.5296540000000 1.0
C      1  0.5822240000000  0.5082230000000  0.4583170000000 1.0
C      1  0.4773880000000  0.4778890000000  0.4826110000000 1.0
C      1  0.4258620000000  0.5145440000000  0.4236790000000 1.0
C      1  0.4992720000000  0.4798640000000  0.5294150000000 1.0
C      1  0.5216710000000  0.5758910000000  0.5646790000000 1.0
C      1  0.5269810000000  0.6235590000000  0.5132280000000 1.0
C      1  0.4986230000000  0.4723910000000  0.4628360000000 1.0
C      1  0.4559110000000  0.4065530000000  0.5220070000000 1.0
C      1  0.4399470000000  0.5824060000000  0.4305830000000 1.0
C      1  0.5370210000000  0.4314330000000  0.5566540000000 1.0
C      1  0.4921270000000  0.4808620000000  0.4364540000000 1.0
C      1  0.4936770000000  0.4198090000000  0.4955500000000 1.0
C      1  0.5143040000000  0.5276340000000  0.5819700000000 1.0
C      1  0.4615870000000  0.5971980000000  0.5273020000000 1.0
C      1  0.5053890000000  0.5113830000000  0.5235630000000 1.0
C      1  0.4662960000000  0.4926830000000  0.4370010000000 1.0
C      1  0.5485200000000  0.4962650000000  0.6042280000000 1.0
C      1  0.5074390000000  0.4751760000000  0.4140820000000 1.0
C      1  0.5498260000000  0.5752250000000  0.4550260000000 1.0
C      1  0.4781660000000  0.4155330000000  0.4722400000000 1.0
C      1  0.5421730000000  0.4450410000000  0.3856710000000 1.0
C      1  0.4381960000000  0.4645730000000  0.5700010000000 1.0
C      1  0.5005980000000  0.4677110000000  0.5606150000000 1.0
C      1  0.4180730000000  0.5336880000000  0.4444440000000 1.0
C      1  0.5356200000000  0.5102020000000  0.5198400000000 1.0
C      1  0.4632280000000  0.5072880000000  0.5689770000000 1.0
C      1  0.4682440000000  0.4254200000000  0.5783080000000 1.0
C      1  0.4322840000000  0.4681870000000  0.4676530000000 1.0
C      1  0.4870400000000  0.6042410000000  0.5396380000000 1.0
C      1  0.4248470000000  0.4681270000000  0.5147790000000 1.0
C      1  0.4827990000000  0.4703300000000  0.5829450000000 1.0
C      1  0.4326380000000  0.4199870000000  0.5224260000000 1.0
C      1  0.5302900000000  0.5476250000000  0.5679870000000 1.0
C      1  0.5441220000000  0.5896210000000  0.5525410000000 1.0
C      1  0.5119000000000  0.4411100000000  0.5655170000000 1.0
C      1  0.4947000000000  0.5241470000000  0.4971810000000 1.0
C      1  0.4970260000000  0.5799310000000  0.5518530000000 1.0
C      1  0.4483750000000  0.4817500000000  0.5258060000000 1.0
C      1  0.5167630000000  0.4527590000000  0.4701300000000 1.0
C      1  0.4370850000000  0.4422050000000  0.4584000000000 1.0
C      1  0.5529780000000  0.5655210000000  0.4817310000000 1.0
C      1  0.4990390000000  0.5664880000000  0.4747000000000 1.0
END
