TITL C-599892-9790-1254 0.441539630137672 125000 -757.815320614647 0 0 125 (C1) n - 1
REM
REM in /home/nfs/bkarasulu/CARBON/AIRSS/Generating-Clusters/TERSOFF/Only-C1/FIRE-HFTN
REM
REM
REM
REM
REM
REM ./C.cell (11c1c37f851c82e70ff6c80c92926a4b)
REM AIRSS Version 0.9.1 bugfix July 2018 build 013d7b7c2542+ Fri, 06 Jul 2018 19:26:36 +0100
REM compiler GCC version 9.2.1 20190827 (Red Hat 9.2.1-1)
REM options -cpp -mtune=generic -march=x86-64 -g -O0 -fpre-include=/usr/include/finclude/math-vector-fortran.h
REM seed -911687308 1576429027 -1136319818 460247063 -798068068 -1120786805 1596864279 44168887 2135499726 1232683991 1739147955 -1791768595 -687464387 -878210852 1559741464 1504392708 -1642304777 -366942080 1393294273 1967401476 1050519160 -1905412688 -22571571 -1579982247 936489076 1960072794 6762134 1180289960 -1337446082 -733005639 -1684947323 -608742744 1968170290
REM
CELL 1.54180   50.00000   50.00000   50.00000   90.00000   90.00000   90.00000
LATT -1
SFAC C  
C      1  0.4256380000000  0.4805330000000  0.5594900000000 1.0
C      1  0.5400450000000  0.5158950000000  0.4797820000000 1.0
C      1  0.5564080000000  0.4619610000000  0.5570150000000 1.0
C      1  0.4572240000000  0.5433530000000  0.5190140000000 1.0
C      1  0.4316990000000  0.4162090000000  0.5471580000000 1.0
C      1  0.4637400000000  0.5964250000000  0.5428160000000 1.0
C      1  0.4936170000000  0.4670160000000  0.4500510000000 1.0
C      1  0.5731930000000  0.5632160000000  0.5500430000000 1.0
C      1  0.4082740000000  0.5235790000000  0.4940800000000 1.0
C      1  0.5070350000000  0.5515330000000  0.4942230000000 1.0
C      1  0.5141950000000  0.4718410000000  0.4075870000000 1.0
C      1  0.5124780000000  0.4775600000000  0.5216400000000 1.0
C      1  0.4917740000000  0.3903120000000  0.5508300000000 1.0
C      1  0.5914120000000  0.4984240000000  0.5635390000000 1.0
C      1  0.4940340000000  0.4585510000000  0.4228620000000 1.0
C      1  0.5323970000000  0.5135260000000  0.3896290000000 1.0
C      1  0.4755120000000  0.3052570000000  0.4616050000000 1.0
C      1  0.4936900000000  0.5987500000000  0.5432830000000 1.0
C      1  0.4121150000000  0.4603660000000  0.5143770000000 1.0
C      1  0.5043160000000  0.4086650000000  0.4631070000000 1.0
C      1  0.5473190000000  0.5262570000000  0.5711670000000 1.0
C      1  0.5786510000000  0.4962270000000  0.4234130000000 1.0
C      1  0.4757280000000  0.4356160000000  0.5021640000000 1.0
C      1  0.5322170000000  0.5410210000000  0.3993220000000 1.0
C      1  0.5364080000000  0.5494300000000  0.4271260000000 1.0
C      1  0.4913460000000  0.5532810000000  0.3744830000000 1.0
C      1  0.5793900000000  0.4779190000000  0.5465770000000 1.0
C      1  0.6152300000000  0.5119010000000  0.5561920000000 1.0
C      1  0.5657170000000  0.4216000000000  0.5307920000000 1.0
C      1  0.5091400000000  0.4970960000000  0.3947080000000 1.0
C      1  0.5160020000000  0.4661870000000  0.4956880000000 1.0
C      1  0.4496610000000  0.5919150000000  0.4667080000000 1.0
C      1  0.5741070000000  0.5148780000000  0.5792270000000 1.0
C      1  0.5490230000000  0.5427320000000  0.4735690000000 1.0
C      1  0.5904680000000  0.4984710000000  0.4955210000000 1.0
C      1  0.5224690000000  0.4389650000000  0.4935850000000 1.0
C      1  0.5246620000000  0.5922710000000  0.4520620000000 1.0
C      1  0.5548200000000  0.4973250000000  0.3844580000000 1.0
C      1  0.4768150000000  0.5315070000000  0.3816250000000 1.0
C      1  0.5994480000000  0.5582250000000  0.5479340000000 1.0
C      1  0.5166640000000  0.4216440000000  0.4396570000000 1.0
C      1  0.5309770000000  0.4993110000000  0.5265260000000 1.0
C      1  0.5191800000000  0.6046940000000  0.4776290000000 1.0
C      1  0.4999320000000  0.5439690000000  0.5462460000000 1.0
C      1  0.5148900000000  0.5677540000000  0.4397550000000 1.0
C      1  0.4185350000000  0.4319850000000  0.4753500000000 1.0
C      1  0.4693310000000  0.6130090000000  0.4617650000000 1.0
C      1  0.5655150000000  0.4198510000000  0.5039860000000 1.0
C      1  0.5116700000000  0.4775900000000  0.4694730000000 1.0
C      1  0.5054830000000  0.4774720000000  0.5694130000000 1.0
C      1  0.6172910000000  0.5382330000000  0.5503310000000 1.0
C      1  0.4988870000000  0.4243310000000  0.4869180000000 1.0
C      1  0.4451980000000  0.4588390000000  0.5650340000000 1.0
C      1  0.4120560000000  0.4141920000000  0.4568230000000 1.0
C      1  0.4954650000000  0.4886230000000  0.5938770000000 1.0
C      1  0.5571140000000  0.4440830000000  0.4606960000000 1.0
C      1  0.5380960000000  0.5040610000000  0.5529940000000 1.0
C      1  0.4290310000000  0.4498170000000  0.4941800000000 1.0
C      1  0.6091240000000  0.5184410000000  0.4980600000000 1.0
C      1  0.4314120000000  0.5092610000000  0.5994910000000 1.0
C      1  0.5218650000000  0.4273450000000  0.5502160000000 1.0
C      1  0.4294900000000  0.5352000000000  0.5582730000000 1.0
C      1  0.4858300000000  0.5625300000000  0.4461510000000 1.0
C      1  0.4419480000000  0.6058570000000  0.5850100000000 1.0
C      1  0.5043590000000  0.5164890000000  0.4449520000000 1.0
C      1  0.5093970000000  0.5111030000000  0.6036590000000 1.0
C      1  0.5486900000000  0.4318690000000  0.4851180000000 1.0
C      1  0.5225830000000  0.5024700000000  0.4612620000000 1.0
C      1  0.4720970000000  0.5006160000000  0.5366020000000 1.0
C      1  0.5184540000000  0.5870120000000  0.5309620000000 1.0
C      1  0.5014860000000  0.5239390000000  0.4981420000000 1.0
C      1  0.4679900000000  0.2802970000000  0.4613620000000 1.0
C      1  0.4584150000000  0.4589990000000  0.5898920000000 1.0
C      1  0.4747230000000  0.4310150000000  0.5314090000000 1.0
C      1  0.5574910000000  0.5384660000000  0.4457980000000 1.0
C      1  0.4470970000000  0.4948250000000  0.5222000000000 1.0
C      1  0.4574280000000  0.4565830000000  0.4923380000000 1.0
C      1  0.5338870000000  0.5616780000000  0.4896530000000 1.0
C      1  0.4907600000000  0.3560200000000  0.4620880000000 1.0
C      1  0.4868610000000  0.5695570000000  0.4990910000000 1.0
C      1  0.4963710000000  0.4304240000000  0.4212240000000 1.0
C      1  0.5166810000000  0.5583880000000  0.3827890000000 1.0
C      1  0.5837250000000  0.4824040000000  0.5183730000000 1.0
C      1  0.4378710000000  0.5603680000000  0.5692010000000 1.0
C      1  0.4365300000000  0.6235910000000  0.6033220000000 1.0
C      1  0.4807020000000  0.5968520000000  0.5015340000000 1.0
C      1  0.4925430000000  0.4811010000000  0.5430090000000 1.0
C      1  0.5624520000000  0.4806460000000  0.4064520000000 1.0
C      1  0.4266320000000  0.5086020000000  0.5713360000000 1.0
C      1  0.4506920000000  0.4363890000000  0.5472190000000 1.0
C      1  0.4628150000000  0.4836860000000  0.4813990000000 1.0
C      1  0.5290240000000  0.5272160000000  0.5947480000000 1.0
C      1  0.5408530000000  0.4401510000000  0.4370050000000 1.0
C      1  0.5745160000000  0.5126580000000  0.4464270000000 1.0
C      1  0.4610090000000  0.5642170000000  0.4633590000000 1.0
C      1  0.5230470000000  0.5611380000000  0.5447390000000 1.0
C      1  0.4352120000000  0.5934970000000  0.4931650000000 1.0
C      1  0.4778380000000  0.5296630000000  0.5357360000000 1.0
C      1  0.4041230000000  0.5503270000000  0.4899280000000 1.0
C      1  0.4703430000000  0.4804740000000  0.6035840000000 1.0
C      1  0.4631080000000  0.5545250000000  0.4923480000000 1.0
C      1  0.5797330000000  0.4938430000000  0.4693110000000 1.0
C      1  0.5490510000000  0.4356590000000  0.5485980000000 1.0
C      1  0.4319950000000  0.5357450000000  0.5301900000000 1.0
C      1  0.4480400000000  0.5869730000000  0.5651300000000 1.0
C      1  0.4547780000000  0.5999570000000  0.5150810000000 1.0
C      1  0.4963170000000  0.4166670000000  0.5442840000000 1.0
C      1  0.4463630000000  0.4907080000000  0.4600380000000 1.0
C      1  0.5739100000000  0.4665090000000  0.4632810000000 1.0
C      1  0.4807750000000  0.5050490000000  0.4902940000000 1.0
C      1  0.5303320000000  0.5892370000000  0.5015520000000 1.0
C      1  0.5345980000000  0.4783520000000  0.5665230000000 1.0
C      1  0.4082330000000  0.4728270000000  0.5380810000000 1.0
C      1  0.4980500000000  0.3814800000000  0.4623580000000 1.0
C      1  0.4518540000000  0.4991170000000  0.6138810000000 1.0
C      1  0.4836890000000  0.5172010000000  0.4277150000000 1.0
C      1  0.4831590000000  0.3306350000000  0.4618520000000 1.0
C      1  0.5413110000000  0.4623740000000  0.4156820000000 1.0
C      1  0.4915390000000  0.6128480000000  0.4805210000000 1.0
C      1  0.5478810000000  0.5522640000000  0.5558100000000 1.0
C      1  0.4128570000000  0.5756600000000  0.4944770000000 1.0
C      1  0.5280960000000  0.5148250000000  0.5046900000000 1.0
C      1  0.4251370000000  0.5126210000000  0.5142880000000 1.0
C      1  0.4068200000000  0.3964150000000  0.4384880000000 1.0
C      1  0.4852800000000  0.5118940000000  0.4001410000000 1.0
END
