TITL C-599896-8500-645 -0.021756184149158 125000 -321.013130444692 0 0 54 (C1) n - 1
REM
REM in /home/nfs/bkarasulu/CARBON/AIRSS/Generating-Clusters/TERSOFF/Only-C1/FIRE-HFTN
REM
REM
REM
REM
REM
REM ./C.cell (11c1c37f851c82e70ff6c80c92926a4b)
REM AIRSS Version 0.9.1 bugfix July 2018 build 013d7b7c2542+ Fri, 06 Jul 2018 19:26:36 +0100
REM compiler GCC version 9.2.1 20190827 (Red Hat 9.2.1-1)
REM options -cpp -mtune=generic -march=x86-64 -g -O0 -fpre-include=/usr/include/finclude/math-vector-fortran.h
REM seed 1174155461 -141194895 1832526382 1424009271 158663789 -1377003337 -1404087113 -1347248498 475350799 193643975 1225675258 2122921416 -36783574 -1300507517 1915729615 487809851 1293727901 -1002657145 -254347231 762210453 -218659964 -826572072 -1102470995 565897932 -147492351 -1497226485 -1267104614 1330392996 1742298080 -888233423 -182674932 -876406917 1579788148
REM
CELL 1.54180   50.00000   50.00000   50.00000   90.00000   90.00000   90.00000
LATT -1
SFAC C  
C      1  0.4995440000000  0.5015940000000  0.4095260000000 1.0
C      1  0.4311450000000  0.5145310000000  0.5175500000000 1.0
C      1  0.5985090000000  0.5395140000000  0.4735400000000 1.0
C      1  0.4765450000000  0.4478290000000  0.5696700000000 1.0
C      1  0.5044890000000  0.5841940000000  0.4571140000000 1.0
C      1  0.4334010000000  0.4438950000000  0.6373860000000 1.0
C      1  0.5131810000000  0.5203380000000  0.4850330000000 1.0
C      1  0.5150750000000  0.4714820000000  0.4926830000000 1.0
C      1  0.4923550000000  0.5037110000000  0.5563470000000 1.0
C      1  0.5711390000000  0.5377850000000  0.4790360000000 1.0
C      1  0.5441110000000  0.4821310000000  0.4048590000000 1.0
C      1  0.4215750000000  0.5192210000000  0.4932120000000 1.0
C      1  0.5527060000000  0.5344940000000  0.5290270000000 1.0
C      1  0.4806290000000  0.4124250000000  0.5007800000000 1.0
C      1  0.4618510000000  0.4459190000000  0.5932350000000 1.0
C      1  0.4694920000000  0.4768700000000  0.4360290000000 1.0
C      1  0.4587560000000  0.4490210000000  0.5239720000000 1.0
C      1  0.4902450000000  0.5556570000000  0.5098760000000 1.0
C      1  0.4625210000000  0.5246990000000  0.4332720000000 1.0
C      1  0.5432270000000  0.5126270000000  0.5438320000000 1.0
C      1  0.5091100000000  0.4701890000000  0.4644170000000 1.0
C      1  0.4991470000000  0.5448510000000  0.4857510000000 1.0
C      1  0.4479020000000  0.5060370000000  0.5363190000000 1.0
C      1  0.5088750000000  0.4979480000000  0.5018400000000 1.0
C      1  0.5235160000000  0.4910090000000  0.4203130000000 1.0
C      1  0.5070820000000  0.4112820000000  0.5056490000000 1.0
C      1  0.4811180000000  0.5659440000000  0.5325080000000 1.0
C      1  0.4940220000000  0.5586710000000  0.4612720000000 1.0
C      1  0.5014670000000  0.4352810000000  0.5667050000000 1.0
C      1  0.4715330000000  0.5733710000000  0.5560750000000 1.0
C      1  0.4818390000000  0.4635410000000  0.4574600000000 1.0
C      1  0.4619850000000  0.5793950000000  0.5795720000000 1.0
C      1  0.5157750000000  0.6074370000000  0.4537260000000 1.0
C      1  0.4227680000000  0.5219020000000  0.4667850000000 1.0
C      1  0.4656770000000  0.4496240000000  0.4756120000000 1.0
C      1  0.5525840000000  0.4670470000000  0.5225530000000 1.0
C      1  0.5565150000000  0.5420100000000  0.4330940000000 1.0
C      1  0.4667810000000  0.4626520000000  0.5473160000000 1.0
C      1  0.4745820000000  0.5012240000000  0.4227510000000 1.0
C      1  0.4788390000000  0.5460090000000  0.4414370000000 1.0
C      1  0.5196490000000  0.4285100000000  0.5483440000000 1.0
C      1  0.5308120000000  0.5142370000000  0.4631350000000 1.0
C      1  0.5310600000000  0.4545510000000  0.5092130000000 1.0
C      1  0.4647620000000  0.4357620000000  0.4998890000000 1.0
C      1  0.5239560000000  0.4900450000000  0.4487950000000 1.0
C      1  0.5559720000000  0.4879890000000  0.5388470000000 1.0
C      1  0.4687600000000  0.4911340000000  0.5475620000000 1.0
C      1  0.6239940000000  0.5409270000000  0.4682780000000 1.0
C      1  0.5177040000000  0.5120860000000  0.5556340000000 1.0
C      1  0.4366670000000  0.5236040000000  0.4441290000000 1.0
C      1  0.5621560000000  0.5420810000000  0.5052740000000 1.0
C      1  0.5223500000000  0.4297770000000  0.5202900000000 1.0
C      1  0.4475280000000  0.4448650000000  0.6154980000000 1.0
C      1  0.5530170000000  0.5310720000000  0.4579810000000 1.0
END
