TITL C-599897-7526-797 2.71861538419604e-06 125000 -457.218439968693 0 0 75 (C1) n - 1
REM
REM in /home/nfs/bkarasulu/CARBON/AIRSS/Generating-Clusters/TERSOFF/Only-C1/FIRE-HFTN
REM
REM
REM
REM
REM
REM ./C.cell (11c1c37f851c82e70ff6c80c92926a4b)
REM AIRSS Version 0.9.1 bugfix July 2018 build 013d7b7c2542+ Fri, 06 Jul 2018 19:26:36 +0100
REM compiler GCC version 9.2.1 20190827 (Red Hat 9.2.1-1)
REM options -cpp -mtune=generic -march=x86-64 -g -O0 -fpre-include=/usr/include/finclude/math-vector-fortran.h
REM seed -1329902442 651926399 91395100 -1550432240 -1796672192 -1978906632 451969580 -593151227 -928912648 -2083671491 -475745409 -1711164760 636170922 -902047022 -1183106034 725811583 1316374085 -1866883918 1512023092 279325429 -395048349 65790965 -1707337207 -1325493790 -197662290 871896763 -909164444 1549570086 -2136557669 1928834579 -663609907 1718791306 901551227
REM
CELL 1.54180   50.00000   50.00000   50.00000   90.00000   90.00000   90.00000
LATT -1
SFAC C  
C      1  0.4795650000000  0.5142640000000  0.4805090000000 1.0
C      1  0.5539510000000  0.5169490000000  0.5667390000000 1.0
C      1  0.5583510000000  0.4520770000000  0.4688850000000 1.0
C      1  0.5626870000000  0.5599340000000  0.5144550000000 1.0
C      1  0.4327800000000  0.5060040000000  0.5084290000000 1.0
C      1  0.5749110000000  0.4981440000000  0.4800290000000 1.0
C      1  0.5181390000000  0.4510360000000  0.5773040000000 1.0
C      1  0.4755840000000  0.5185980000000  0.3913470000000 1.0
C      1  0.4282290000000  0.5347180000000  0.5084540000000 1.0
C      1  0.5107890000000  0.4654470000000  0.5552880000000 1.0
C      1  0.5842720000000  0.5489160000000  0.5287980000000 1.0
C      1  0.4847640000000  0.5460980000000  0.5863460000000 1.0
C      1  0.3994040000000  0.5314950000000  0.4674300000000 1.0
C      1  0.4440930000000  0.5554150000000  0.5215280000000 1.0
C      1  0.5164490000000  0.4234890000000  0.4553420000000 1.0
C      1  0.4845090000000  0.5202040000000  0.5342570000000 1.0
C      1  0.5676010000000  0.5050580000000  0.5447770000000 1.0
C      1  0.4476140000000  0.5544730000000  0.5499780000000 1.0
C      1  0.5001300000000  0.4820720000000  0.4497210000000 1.0
C      1  0.5293960000000  0.4029580000000  0.5189110000000 1.0
C      1  0.4077070000000  0.5115590000000  0.4516200000000 1.0
C      1  0.4465290000000  0.5008670000000  0.4234030000000 1.0
C      1  0.5838650000000  0.4395900000000  0.5227510000000 1.0
C      1  0.4607720000000  0.5263070000000  0.4150700000000 1.0
C      1  0.5324590000000  0.5223630000000  0.5011250000000 1.0
C      1  0.4785820000000  0.5906590000000  0.5234680000000 1.0
C      1  0.4402710000000  0.4807060000000  0.4967130000000 1.0
C      1  0.4577460000000  0.4350940000000  0.4968430000000 1.0
C      1  0.5166290000000  0.5599860000000  0.5271610000000 1.0
C      1  0.4355540000000  0.4237140000000  0.5735810000000 1.0
C      1  0.5370300000000  0.5489670000000  0.5110380000000 1.0
C      1  0.5894850000000  0.5111560000000  0.5005910000000 1.0
C      1  0.4660970000000  0.4799750000000  0.4145220000000 1.0
C      1  0.4476500000000  0.4400130000000  0.5572370000000 1.0
C      1  0.5099860000000  0.5369160000000  0.5891690000000 1.0
C      1  0.5048790000000  0.5854500000000  0.5269970000000 1.0
C      1  0.4780980000000  0.4998760000000  0.5518760000000 1.0
C      1  0.4951240000000  0.5565160000000  0.4426640000000 1.0
C      1  0.4669440000000  0.5775460000000  0.4801030000000 1.0
C      1  0.5208550000000  0.4971620000000  0.4934090000000 1.0
C      1  0.5433340000000  0.5305520000000  0.4486470000000 1.0
C      1  0.5549650000000  0.3990780000000  0.5257870000000 1.0
C      1  0.5108520000000  0.4479650000000  0.5025400000000 1.0
C      1  0.5299930000000  0.4744200000000  0.5358700000000 1.0
C      1  0.4624860000000  0.5522140000000  0.5723810000000 1.0
C      1  0.5020350000000  0.5405360000000  0.5406720000000 1.0
C      1  0.4673750000000  0.4347150000000  0.4704100000000 1.0
C      1  0.5581350000000  0.4796880000000  0.5352920000000 1.0
C      1  0.5724870000000  0.4641330000000  0.5152550000000 1.0
C      1  0.4783030000000  0.4687590000000  0.4373840000000 1.0
C      1  0.4079530000000  0.5425720000000  0.4903470000000 1.0
C      1  0.4597480000000  0.4579710000000  0.4562300000000 1.0
C      1  0.4902820000000  0.4210870000000  0.4611000000000 1.0
C      1  0.5338270000000  0.5269260000000  0.5815520000000 1.0
C      1  0.5196500000000  0.4736720000000  0.5093450000000 1.0
C      1  0.4646750000000  0.5279150000000  0.4617350000000 1.0
C      1  0.5402940000000  0.4354840000000  0.4581050000000 1.0
C      1  0.5218030000000  0.5460180000000  0.4426720000000 1.0
C      1  0.4831530000000  0.4724230000000  0.5502640000000 1.0
C      1  0.4520760000000  0.4585190000000  0.5123540000000 1.0
C      1  0.4301500000000  0.4955120000000  0.4465870000000 1.0
C      1  0.5612750000000  0.5135200000000  0.4599710000000 1.0
C      1  0.4861610000000  0.5765390000000  0.4609730000000 1.0
C      1  0.4790370000000  0.4911250000000  0.3913150000000 1.0
C      1  0.6026290000000  0.5634020000000  0.5426370000000 1.0
C      1  0.5770970000000  0.4140930000000  0.5271500000000 1.0
C      1  0.5015690000000  0.4982050000000  0.4727230000000 1.0
C      1  0.5693770000000  0.4707170000000  0.4869130000000 1.0
C      1  0.5133790000000  0.4223430000000  0.5099650000000 1.0
C      1  0.4602540000000  0.5756110000000  0.5075810000000 1.0
C      1  0.5843710000000  0.5205120000000  0.5269060000000 1.0
C      1  0.4406830000000  0.4772490000000  0.4669690000000 1.0
C      1  0.4612460000000  0.4571680000000  0.5397370000000 1.0
C      1  0.4768760000000  0.5185620000000  0.5076810000000 1.0
C      1  0.4729910000000  0.5390270000000  0.4370820000000 1.0
END
