TITL C-599893-4344-1041 1.78347394714836 125000 -115.122437959718 0 0 20 (C1) n - 1
REM
REM in /home/nfs/bkarasulu/CARBON/AIRSS/Generating-Clusters/TERSOFF/Only-C1/FIRE-HFTN
REM
REM
REM
REM
REM
REM ./C.cell (11c1c37f851c82e70ff6c80c92926a4b)
REM AIRSS Version 0.9.1 bugfix July 2018 build 013d7b7c2542+ Fri, 06 Jul 2018 19:26:36 +0100
REM compiler GCC version 9.2.1 20190827 (Red Hat 9.2.1-1)
REM options -cpp -mtune=generic -march=x86-64 -g -O0 -fpre-include=/usr/include/finclude/math-vector-fortran.h
REM seed -250609075 887128132 -580990576 -540952987 -1100049416 190777675 -944167809 1649923069 -2106638033 2106983440 336425569 75082139 1152826470 1310766637 693024127 1513009798 2090994278 -1600153155 1072980266 -346598837 530642388 -1936036254 1927266666 -54287668 486744201 -687830472 330476850 47686445 8337379 1352837126 2114593371 512378461 -71223067
REM
CELL 1.54180   50.00000   50.00000   50.00000   90.00000   90.00000   90.00000
LATT -1
SFAC C  
C      1  0.4792190000000  0.6166200000000  0.4421760000000 1.0
C      1  0.5044890000000  0.5581360000000  0.4579060000000 1.0
C      1  0.4805060000000  0.4542490000000  0.6126450000000 1.0
C      1  0.4985630000000  0.6008140000000  0.4321810000000 1.0
C      1  0.4591620000000  0.5946770000000  0.4817060000000 1.0
C      1  0.5458970000000  0.3736170000000  0.4865990000000 1.0
C      1  0.5563870000000  0.3528960000000  0.4747550000000 1.0
C      1  0.4876850000000  0.4557860000000  0.5876300000000 1.0
C      1  0.4991270000000  0.4828400000000  0.5213000000000 1.0
C      1  0.4957610000000  0.5054530000000  0.5079260000000 1.0
C      1  0.4923960000000  0.5280670000000  0.4945510000000 1.0
C      1  0.5245700000000  0.4157460000000  0.5106810000000 1.0
C      1  0.4888620000000  0.5518200000000  0.4805030000000 1.0
C      1  0.5139120000000  0.4367980000000  0.5227140000000 1.0
C      1  0.4694700000000  0.5708030000000  0.4881350000000 1.0
C      1  0.4949810000000  0.4573480000000  0.5622080000000 1.0
C      1  0.5352320000000  0.3946840000000  0.4986420000000 1.0
C      1  0.5026730000000  0.4589950000000  0.5354070000000 1.0
C      1  0.5084610000000  0.5768440000000  0.4391510000000 1.0
C      1  0.4626460000000  0.6138060000000  0.4631840000000 1.0
END
