TITL C-599893-4344-1152 0.210523981890758 125000 -328.482990830968 0 0 56 (C1) n - 1
REM
REM in /home/nfs/bkarasulu/CARBON/AIRSS/Generating-Clusters/TERSOFF/Only-C1/FIRE-HFTN
REM
REM
REM
REM
REM
REM ./C.cell (11c1c37f851c82e70ff6c80c92926a4b)
REM AIRSS Version 0.9.1 bugfix July 2018 build 013d7b7c2542+ Fri, 06 Jul 2018 19:26:36 +0100
REM compiler GCC version 9.2.1 20190827 (Red Hat 9.2.1-1)
REM options -cpp -mtune=generic -march=x86-64 -g -O0 -fpre-include=/usr/include/finclude/math-vector-fortran.h
REM seed 240839956 -161579168 933038571 -1518700256 -1636174202 464969971 273584020 214711450 -1500936343 890022083 185763887 -353333195 -1059177782 -682971162 1244939233 2081389855 745083778 -789277022 658086180 616558889 402273047 2017077459 1662524626 1572025595 1751965989 -836977851 3742097 -183559175 1813750628 1069181889 -67362261 -1581690093 -827360813
REM
CELL 1.54180   50.00000   50.00000   50.00000   90.00000   90.00000   90.00000
LATT -1
SFAC C  
C      1  0.4010490000000  0.4290730000000  0.5876510000000 1.0
C      1  0.5139870000000  0.4640050000000  0.4913680000000 1.0
C      1  0.5062640000000  0.5473350000000  0.5019930000000 1.0
C      1  0.5585160000000  0.4508330000000  0.5040930000000 1.0
C      1  0.4733350000000  0.5896470000000  0.5470980000000 1.0
C      1  0.4279200000000  0.5350280000000  0.5352170000000 1.0
C      1  0.4553660000000  0.5431630000000  0.4726470000000 1.0
C      1  0.4521660000000  0.5765150000000  0.5394480000000 1.0
C      1  0.4298120000000  0.5088170000000  0.5384250000000 1.0
C      1  0.4921960000000  0.5065600000000  0.4295940000000 1.0
C      1  0.4449610000000  0.4780280000000  0.4690270000000 1.0
C      1  0.4582070000000  0.4680500000000  0.5361700000000 1.0
C      1  0.5608130000000  0.4385500000000  0.5512090000000 1.0
C      1  0.4434610000000  0.4289230000000  0.5628840000000 1.0
C      1  0.5365080000000  0.4268850000000  0.4685130000000 1.0
C      1  0.5596040000000  0.4556170000000  0.4353900000000 1.0
C      1  0.4886060000000  0.5237170000000  0.5018050000000 1.0
C      1  0.5490500000000  0.4327820000000  0.4452720000000 1.0
C      1  0.5114850000000  0.5078630000000  0.5400280000000 1.0
C      1  0.4315890000000  0.5282500000000  0.4681150000000 1.0
C      1  0.5335870000000  0.4431810000000  0.4915340000000 1.0
C      1  0.5490270000000  0.5959770000000  0.5355600000000 1.0
C      1  0.5035270000000  0.4616090000000  0.4323310000000 1.0
C      1  0.5340730000000  0.5239370000000  0.5332240000000 1.0
C      1  0.5602970000000  0.4824090000000  0.4450970000000 1.0
C      1  0.4855390000000  0.4644380000000  0.4948600000000 1.0
C      1  0.4292390000000  0.5626890000000  0.5313750000000 1.0
C      1  0.4769590000000  0.4787560000000  0.5182250000000 1.0
C      1  0.4691520000000  0.4630680000000  0.4711280000000 1.0
C      1  0.4346730000000  0.4822170000000  0.5449020000000 1.0
C      1  0.5026810000000  0.5598240000000  0.4756740000000 1.0
C      1  0.5386680000000  0.5730880000000  0.5286410000000 1.0
C      1  0.4083900000000  0.5760500000000  0.5197640000000 1.0
C      1  0.5787040000000  0.5102780000000  0.4833990000000 1.0
C      1  0.4826920000000  0.4538480000000  0.4478580000000 1.0
C      1  0.4734270000000  0.5663570000000  0.4713100000000 1.0
C      1  0.5747140000000  0.4859970000000  0.4698140000000 1.0
C      1  0.5771380000000  0.4628530000000  0.4862860000000 1.0
C      1  0.5269750000000  0.5490190000000  0.5211630000000 1.0
C      1  0.4609920000000  0.4418090000000  0.5467030000000 1.0
C      1  0.4910640000000  0.5223580000000  0.4524150000000 1.0
C      1  0.5368260000000  0.5278240000000  0.4452160000000 1.0
C      1  0.5608010000000  0.4575190000000  0.5316250000000 1.0
C      1  0.4305940000000  0.5009240000000  0.4673370000000 1.0
C      1  0.5247140000000  0.4890060000000  0.4867470000000 1.0
C      1  0.4168640000000  0.4674810000000  0.5614450000000 1.0
C      1  0.5630510000000  0.4850480000000  0.5373120000000 1.0
C      1  0.5773570000000  0.5223510000000  0.5089170000000 1.0
C      1  0.4897450000000  0.5039900000000  0.5222190000000 1.0
C      1  0.5591540000000  0.5114310000000  0.5282070000000 1.0
C      1  0.4755780000000  0.5218370000000  0.4764440000000 1.0
C      1  0.5133950000000  0.5412440000000  0.4549580000000 1.0
C      1  0.5389210000000  0.4997480000000  0.4370750000000 1.0
C      1  0.5134920000000  0.4877960000000  0.4283090000000 1.0
C      1  0.4193800000000  0.4411110000000  0.5716070000000 1.0
C      1  0.5937160000000  0.5432870000000  0.5153730000000 1.0
END
