TITL C-599891-72-743 0.00519780015792227 125000 -979.691401716468 0 0 157 (C1) n - 1
REM
REM in /home/nfs/bkarasulu/CARBON/AIRSS/Generating-Clusters/TERSOFF/Only-C1/FIRE-HFTN
REM
REM
REM
REM
REM
REM ./C.cell (11c1c37f851c82e70ff6c80c92926a4b)
REM AIRSS Version 0.9.1 bugfix July 2018 build 013d7b7c2542+ Fri, 06 Jul 2018 19:26:36 +0100
REM compiler GCC version 9.2.1 20190827 (Red Hat 9.2.1-1)
REM options -cpp -mtune=generic -march=x86-64 -g -O0 -fpre-include=/usr/include/finclude/math-vector-fortran.h
REM seed 1451465594 -1490484287 -1493592550 -966785004 -313584721 -948163053 1234599053 154347441 -1551426576 -1717258824 -13481236 1278267301 1985880370 587662226 1558753469 -722516210 -1495234738 -2011114649 -844934286 -1457249054 -1924978961 1097168298 -1123374423 -210831552 -2093684092 -1301492640 735228482 148860133 846436599 -1228413383 1469559090 -2012772540 -1585610444
REM
CELL 1.54180   50.00000   50.00000   50.00000   90.00000   90.00000   90.00000
LATT -1
SFAC C  
C      1  0.4351580000000  0.4775350000000  0.5168020000000 1.0
C      1  0.3657350000000  0.4543680000000  0.4992820000000 1.0
C      1  0.4813800000000  0.5524330000000  0.5774890000000 1.0
C      1  0.4543610000000  0.6413580000000  0.5034150000000 1.0
C      1  0.4839920000000  0.4767960000000  0.3939540000000 1.0
C      1  0.6190580000000  0.4398800000000  0.5610280000000 1.0
C      1  0.4034930000000  0.4849670000000  0.4436510000000 1.0
C      1  0.5757610000000  0.5468000000000  0.5412510000000 1.0
C      1  0.3713020000000  0.5532090000000  0.4850570000000 1.0
C      1  0.4291470000000  0.4426940000000  0.5863300000000 1.0
C      1  0.5724630000000  0.5019920000000  0.5616160000000 1.0
C      1  0.5039160000000  0.4996720000000  0.5524940000000 1.0
C      1  0.4665860000000  0.5192140000000  0.3766640000000 1.0
C      1  0.3896050000000  0.6665690000000  0.4808360000000 1.0
C      1  0.3831190000000  0.5451120000000  0.5095720000000 1.0
C      1  0.5755330000000  0.5534250000000  0.4873310000000 1.0
C      1  0.4879520000000  0.5208680000000  0.5422680000000 1.0
C      1  0.4724740000000  0.4818040000000  0.5969190000000 1.0
C      1  0.4197870000000  0.6143810000000  0.5219250000000 1.0
C      1  0.4765070000000  0.6297730000000  0.5133110000000 1.0
C      1  0.3974090000000  0.4739840000000  0.3961520000000 1.0
C      1  0.4093220000000  0.5553380000000  0.5133120000000 1.0
C      1  0.4605520000000  0.4937290000000  0.3883100000000 1.0
C      1  0.5752440000000  0.3725780000000  0.5183250000000 1.0
C      1  0.5085540000000  0.3817260000000  0.5473980000000 1.0
C      1  0.4784460000000  0.4072830000000  0.4879530000000 1.0
C      1  0.3790440000000  0.5587830000000  0.4598230000000 1.0
C      1  0.4510310000000  0.4617460000000  0.4573040000000 1.0
C      1  0.5445080000000  0.4694010000000  0.5032640000000 1.0
C      1  0.5290380000000  0.5584510000000  0.5653580000000 1.0
C      1  0.5938210000000  0.4429350000000  0.5512140000000 1.0
C      1  0.4227870000000  0.4232200000000  0.4553110000000 1.0
C      1  0.4464430000000  0.5413820000000  0.4243890000000 1.0
C      1  0.5879800000000  0.4787790000000  0.4868040000000 1.0
C      1  0.3897460000000  0.4949550000000  0.5303070000000 1.0
C      1  0.5343340000000  0.4682600000000  0.4024400000000 1.0
C      1  0.4392500000000  0.4840330000000  0.4707230000000 1.0
C      1  0.4873330000000  0.4734500000000  0.5164360000000 1.0
C      1  0.3879980000000  0.4702610000000  0.5771480000000 1.0
C      1  0.4806090000000  0.5404740000000  0.3894300000000 1.0
C      1  0.4908450000000  0.4195240000000  0.4412580000000 1.0
C      1  0.4515600000000  0.4411290000000  0.5429920000000 1.0
C      1  0.4807910000000  0.4591930000000  0.4162400000000 1.0
C      1  0.4277440000000  0.5422690000000  0.4945620000000 1.0
C      1  0.4047390000000  0.4531250000000  0.5887890000000 1.0
C      1  0.6073510000000  0.4362790000000  0.4999730000000 1.0
C      1  0.3995560000000  0.4367050000000  0.4532790000000 1.0
C      1  0.3978000000000  0.5592090000000  0.4405670000000 1.0
C      1  0.5416980000000  0.5098260000000  0.4178310000000 1.0
C      1  0.5960040000000  0.3861240000000  0.5056940000000 1.0
C      1  0.4591180000000  0.4633850000000  0.5268440000000 1.0
C      1  0.5357690000000  0.4572470000000  0.4508740000000 1.0
C      1  0.4731260000000  0.5000940000000  0.4435520000000 1.0
C      1  0.4193060000000  0.5015960000000  0.4604210000000 1.0
C      1  0.4845090000000  0.5701010000000  0.4297930000000 1.0
C      1  0.5080460000000  0.5810050000000  0.4961580000000 1.0
C      1  0.4835040000000  0.5054480000000  0.6059050000000 1.0
C      1  0.5108110000000  0.4810590000000  0.5330190000000 1.0
C      1  0.4828230000000  0.4051440000000  0.5141930000000 1.0
C      1  0.5837430000000  0.5655020000000  0.4382190000000 1.0
C      1  0.4266580000000  0.6364460000000  0.5057130000000 1.0
C      1  0.4784230000000  0.5438350000000  0.4991070000000 1.0
C      1  0.5614800000000  0.4314990000000  0.5831760000000 1.0
C      1  0.3941150000000  0.4633040000000  0.4616170000000 1.0
C      1  0.5265410000000  0.4509750000000  0.4244910000000 1.0
C      1  0.5208030000000  0.5474750000000  0.5214740000000 1.0
C      1  0.4393310000000  0.4957640000000  0.4092510000000 1.0
C      1  0.4957780000000  0.4058250000000  0.5393820000000 1.0
C      1  0.4131520000000  0.4846330000000  0.4159530000000 1.0
C      1  0.3791330000000  0.5195360000000  0.5210420000000 1.0
C      1  0.4214350000000  0.5534190000000  0.4292210000000 1.0
C      1  0.5264420000000  0.5561650000000  0.4452950000000 1.0
C      1  0.4683060000000  0.5546920000000  0.4119480000000 1.0
C      1  0.4775530000000  0.5733850000000  0.4572440000000 1.0
C      1  0.5168860000000  0.4957750000000  0.5777410000000 1.0
C      1  0.5551510000000  0.4148800000000  0.5383520000000 1.0
C      1  0.5093280000000  0.4308680000000  0.5470030000000 1.0
C      1  0.5460100000000  0.4838930000000  0.4587060000000 1.0
C      1  0.4856890000000  0.5674050000000  0.4835660000000 1.0
C      1  0.4723210000000  0.4181660000000  0.4628280000000 1.0
C      1  0.5212390000000  0.4664950000000  0.5882410000000 1.0
C      1  0.5198110000000  0.5128840000000  0.3985110000000 1.0
C      1  0.5164780000000  0.5689320000000  0.5414750000000 1.0
C      1  0.4690440000000  0.4716210000000  0.4382600000000 1.0
C      1  0.5647890000000  0.4824060000000  0.5426670000000 1.0
C      1  0.5123450000000  0.5683420000000  0.4248910000000 1.0
C      1  0.5672200000000  0.3447190000000  0.5180510000000 1.0
C      1  0.4486620000000  0.5479340000000  0.5372580000000 1.0
C      1  0.4628870000000  0.5978720000000  0.5748480000000 1.0
C      1  0.5913250000000  0.5538060000000  0.4627090000000 1.0
C      1  0.5109100000000  0.4606950000000  0.6432780000000 1.0
C      1  0.5600380000000  0.4815470000000  0.4832730000000 1.0
C      1  0.4075860000000  0.6520840000000  0.4929220000000 1.0
C      1  0.5583760000000  0.5601190000000  0.5617120000000 1.0
C      1  0.5723450000000  0.4259260000000  0.5580880000000 1.0
C      1  0.6068870000000  0.4096210000000  0.4992560000000 1.0
C      1  0.5029820000000  0.5898010000000  0.5248910000000 1.0
C      1  0.6068230000000  0.4899060000000  0.4699420000000 1.0
C      1  0.6282000000000  0.5398670000000  0.4882620000000 1.0
C      1  0.5509720000000  0.5664590000000  0.3974150000000 1.0
C      1  0.5485870000000  0.5476520000000  0.4832570000000 1.0
C      1  0.5847170000000  0.4898520000000  0.4104870000000 1.0
C      1  0.6029260000000  0.5036360000000  0.4250240000000 1.0
C      1  0.5330490000000  0.4304600000000  0.5280680000000 1.0
C      1  0.6159200000000  0.5231220000000  0.5580500000000 1.0
C      1  0.5354330000000  0.4423430000000  0.5012250000000 1.0
C      1  0.4810470000000  0.6073660000000  0.5299480000000 1.0
C      1  0.5093450000000  0.5379510000000  0.3902940000000 1.0
C      1  0.5873420000000  0.5526660000000  0.5141670000000 1.0
C      1  0.5862950000000  0.4642490000000  0.5339330000000 1.0
C      1  0.5114940000000  0.4854270000000  0.3914800000000 1.0
C      1  0.4524080000000  0.4449610000000  0.5710170000000 1.0
C      1  0.4692550000000  0.5387290000000  0.5551160000000 1.0
C      1  0.6159140000000  0.5488360000000  0.5110470000000 1.0
C      1  0.5395480000000  0.4802230000000  0.5283560000000 1.0
C      1  0.5416390000000  0.3439690000000  0.5316950000000 1.0
C      1  0.4753340000000  0.4578920000000  0.5807510000000 1.0
C      1  0.5959500000000  0.4610350000000  0.5072310000000 1.0
C      1  0.4484580000000  0.4336060000000  0.4599170000000 1.0
C      1  0.4057120000000  0.4775620000000  0.5132430000000 1.0
C      1  0.4874590000000  0.5014360000000  0.4681430000000 1.0
C      1  0.5090550000000  0.5441410000000  0.5832080000000 1.0
C      1  0.6139170000000  0.5361490000000  0.4637290000000 1.0
C      1  0.4709390000000  0.5760370000000  0.5880630000000 1.0
C      1  0.5326070000000  0.4380600000000  0.4728720000000 1.0
C      1  0.4589120000000  0.6010180000000  0.5473010000000 1.0
C      1  0.4520830000000  0.5138990000000  0.4290140000000 1.0
C      1  0.4191640000000  0.5265290000000  0.4730480000000 1.0
C      1  0.6408860000000  0.5203490000000  0.5649980000000 1.0
C      1  0.4900360000000  0.4850990000000  0.4898540000000 1.0
C      1  0.5695240000000  0.4996600000000  0.5893060000000 1.0
C      1  0.5018720000000  0.4490370000000  0.5705740000000 1.0
C      1  0.5233010000000  0.5611740000000  0.3995240000000 1.0
C      1  0.5298310000000  0.5612640000000  0.4983360000000 1.0
C      1  0.5716740000000  0.5765920000000  0.5796640000000 1.0
C      1  0.5418070000000  0.5101540000000  0.4465690000000 1.0
C      1  0.6108740000000  0.5104780000000  0.4513720000000 1.0
C      1  0.5569510000000  0.4867250000000  0.4074750000000 1.0
C      1  0.5552980000000  0.3874570000000  0.5329810000000 1.0
C      1  0.3837090000000  0.4859600000000  0.5561300000000 1.0
C      1  0.5001920000000  0.4395890000000  0.4235050000000 1.0
C      1  0.5716290000000  0.5023930000000  0.6151620000000 1.0
C      1  0.3897660000000  0.4658330000000  0.4908460000000 1.0
C      1  0.5806450000000  0.3237240000000  0.5074060000000 1.0
C      1  0.4975650000000  0.5321630000000  0.5175920000000 1.0
C      1  0.5475780000000  0.4533300000000  0.5892840000000 1.0
C      1  0.5884690000000  0.5235610000000  0.5527790000000 1.0
C      1  0.4464440000000  0.4921610000000  0.4958740000000 1.0
C      1  0.5719740000000  0.5681380000000  0.4142480000000 1.0
C      1  0.4376990000000  0.4199790000000  0.5324850000000 1.0
C      1  0.5132800000000  0.4648540000000  0.6176650000000 1.0
C      1  0.4258150000000  0.5666270000000  0.5350550000000 1.0
C      1  0.4523710000000  0.5412130000000  0.5085620000000 1.0
C      1  0.4329680000000  0.5942380000000  0.5364700000000 1.0
C      1  0.5392610000000  0.5356280000000  0.4593350000000 1.0
C      1  0.5329460000000  0.3700070000000  0.5403720000000 1.0
C      1  0.5080540000000  0.5172540000000  0.5950720000000 1.0
END
