TITL C-599891-72-487 0.0106734660417283 125000 -605.49925755551 0 0 99 (C1) n - 1
REM
REM in /home/nfs/bkarasulu/CARBON/AIRSS/Generating-Clusters/TERSOFF/Only-C1/FIRE-HFTN
REM
REM
REM
REM
REM
REM ./C.cell (11c1c37f851c82e70ff6c80c92926a4b)
REM AIRSS Version 0.9.1 bugfix July 2018 build 013d7b7c2542+ Fri, 06 Jul 2018 19:26:36 +0100
REM compiler GCC version 9.2.1 20190827 (Red Hat 9.2.1-1)
REM options -cpp -mtune=generic -march=x86-64 -g -O0 -fpre-include=/usr/include/finclude/math-vector-fortran.h
REM seed 469765592 -543656372 -156485020 -1382962439 222135332 1191819856 -955053822 1803805855 1204180997 -1350077638 785212942 1913423785 -417547008 -2040436144 -1181269713 -1415094354 1823297730 1681161776 -293708664 -1451317783 -68710164 -692752625 1837312942 2048018407 833386017 1067672197 -1104438147 -1145131906 -765850210 -541177412 1160975750 -113535566 -1389030692
REM
CELL 1.54180   50.00000   50.00000   50.00000   90.00000   90.00000   90.00000
LATT -1
SFAC C  
C      1  0.4021900000000  0.5034250000000  0.5205840000000 1.0
C      1  0.5347810000000  0.5088510000000  0.4237330000000 1.0
C      1  0.5724270000000  0.5634160000000  0.5138680000000 1.0
C      1  0.5795530000000  0.4971180000000  0.5515320000000 1.0
C      1  0.4654810000000  0.4782380000000  0.5030170000000 1.0
C      1  0.4770790000000  0.5519590000000  0.5646870000000 1.0
C      1  0.4374510000000  0.4856600000000  0.4380910000000 1.0
C      1  0.5144630000000  0.4340060000000  0.5382060000000 1.0
C      1  0.5681860000000  0.3913130000000  0.5230070000000 1.0
C      1  0.5324540000000  0.5775110000000  0.5435740000000 1.0
C      1  0.5770470000000  0.5595460000000  0.4670650000000 1.0
C      1  0.4178580000000  0.4283610000000  0.5074190000000 1.0
C      1  0.4890790000000  0.5399460000000  0.5207530000000 1.0
C      1  0.4320040000000  0.5554230000000  0.4000090000000 1.0
C      1  0.4033220000000  0.5091970000000  0.4932660000000 1.0
C      1  0.6006540000000  0.5171820000000  0.5116820000000 1.0
C      1  0.4841080000000  0.4793870000000  0.4242170000000 1.0
C      1  0.4881100000000  0.5611540000000  0.5396670000000 1.0
C      1  0.4421640000000  0.4350850000000  0.4945890000000 1.0
C      1  0.6059460000000  0.5244750000000  0.4864490000000 1.0
C      1  0.5707960000000  0.5044380000000  0.5773350000000 1.0
C      1  0.3954940000000  0.4926870000000  0.4051730000000 1.0
C      1  0.5086480000000  0.4665260000000  0.4159840000000 1.0
C      1  0.4394780000000  0.4978560000000  0.4637990000000 1.0
C      1  0.5565800000000  0.5014710000000  0.4423140000000 1.0
C      1  0.5370470000000  0.4682270000000  0.5950790000000 1.0
C      1  0.4717590000000  0.5616560000000  0.4363140000000 1.0
C      1  0.5601080000000  0.4488510000000  0.5544060000000 1.0
C      1  0.4314290000000  0.5447420000000  0.4769580000000 1.0
C      1  0.4578980000000  0.5331660000000  0.5762330000000 1.0
C      1  0.5008410000000  0.4951890000000  0.5371180000000 1.0
C      1  0.5571810000000  0.4224690000000  0.4881430000000 1.0
C      1  0.5108060000000  0.4486070000000  0.4869410000000 1.0
C      1  0.3814170000000  0.4892280000000  0.5311910000000 1.0
C      1  0.5441490000000  0.4303480000000  0.5381990000000 1.0
C      1  0.5195260000000  0.5421490000000  0.4757450000000 1.0
C      1  0.4225060000000  0.5144450000000  0.5369510000000 1.0
C      1  0.4954360000000  0.5867100000000  0.4712650000000 1.0
C      1  0.5080950000000  0.5800600000000  0.5281030000000 1.0
C      1  0.4550250000000  0.5588590000000  0.4830270000000 1.0
C      1  0.4226840000000  0.5178550000000  0.4750960000000 1.0
C      1  0.5280000000000  0.4858230000000  0.4072320000000 1.0
C      1  0.4905590000000  0.4418910000000  0.5535940000000 1.0
C      1  0.5601550000000  0.5664850000000  0.4886760000000 1.0
C      1  0.5106430000000  0.5210960000000  0.5251880000000 1.0
C      1  0.5525390000000  0.4506920000000  0.5816760000000 1.0
C      1  0.6005130000000  0.4591460000000  0.5293300000000 1.0
C      1  0.4591060000000  0.4674840000000  0.4317780000000 1.0
C      1  0.4081820000000  0.4341720000000  0.5319920000000 1.0
C      1  0.4644380000000  0.4436080000000  0.5388760000000 1.0
C      1  0.4564870000000  0.5038620000000  0.5697520000000 1.0
C      1  0.5397890000000  0.5400280000000  0.5752090000000 1.0
C      1  0.5750540000000  0.4545060000000  0.4543410000000 1.0
C      1  0.5201930000000  0.4757040000000  0.5236130000000 1.0
C      1  0.5318990000000  0.5649980000000  0.4873440000000 1.0
C      1  0.4876270000000  0.4654480000000  0.5722610000000 1.0
C      1  0.5437100000000  0.4876200000000  0.5117660000000 1.0
C      1  0.4713550000000  0.4941760000000  0.5258560000000 1.0
C      1  0.5510380000000  0.4767740000000  0.4857690000000 1.0
C      1  0.5114690000000  0.4501790000000  0.5146190000000 1.0
C      1  0.4596240000000  0.4747070000000  0.5748940000000 1.0
C      1  0.4310290000000  0.5434430000000  0.5757640000000 1.0
C      1  0.5139450000000  0.4957130000000  0.4714830000000 1.0
C      1  0.5259530000000  0.4922080000000  0.5843060000000 1.0
C      1  0.4184310000000  0.4464560000000  0.5538350000000 1.0
C      1  0.5562780000000  0.4152750000000  0.5161520000000 1.0
C      1  0.4753880000000  0.5434120000000  0.4964480000000 1.0
C      1  0.5125130000000  0.5782430000000  0.4465540000000 1.0
C      1  0.4597070000000  0.4508250000000  0.5107500000000 1.0
C      1  0.5096850000000  0.5266250000000  0.4269370000000 1.0
C      1  0.5835390000000  0.5200650000000  0.5341080000000 1.0
C      1  0.5665320000000  0.4811540000000  0.4612100000000 1.0
C      1  0.4913880000000  0.5345180000000  0.4749040000000 1.0
C      1  0.5695410000000  0.5461050000000  0.5361870000000 1.0
C      1  0.4512090000000  0.5573380000000  0.4181500000000 1.0
C      1  0.4448400000000  0.4549420000000  0.5583740000000 1.0
C      1  0.5483090000000  0.5556170000000  0.5534420000000 1.0
C      1  0.5349130000000  0.5151480000000  0.5098440000000 1.0
C      1  0.4687980000000  0.5749220000000  0.4631060000000 1.0
C      1  0.5444680000000  0.5134990000000  0.5826950000000 1.0
C      1  0.5363990000000  0.4289010000000  0.4422250000000 1.0
C      1  0.5006510000000  0.5553870000000  0.4313870000000 1.0
C      1  0.4885670000000  0.5062670000000  0.4348050000000 1.0
C      1  0.4163540000000  0.4901620000000  0.4205850000000 1.0
C      1  0.5796420000000  0.4685620000000  0.5447410000000 1.0
C      1  0.4639520000000  0.4922210000000  0.4778300000000 1.0
C      1  0.5188160000000  0.4420780000000  0.4263740000000 1.0
C      1  0.5969330000000  0.5412610000000  0.4674690000000 1.0
C      1  0.5579960000000  0.4319700000000  0.4608010000000 1.0
C      1  0.5046390000000  0.4877680000000  0.5662600000000 1.0
C      1  0.4134690000000  0.5548230000000  0.3816870000000 1.0
C      1  0.4871090000000  0.5063360000000  0.4650830000000 1.0
C      1  0.5108540000000  0.5828790000000  0.4974810000000 1.0
C      1  0.4150930000000  0.5352040000000  0.5552460000000 1.0
C      1  0.4492560000000  0.5043590000000  0.5409650000000 1.0
C      1  0.4567400000000  0.4422990000000  0.4443630000000 1.0
C      1  0.5242090000000  0.4698960000000  0.4745690000000 1.0
C      1  0.5307810000000  0.5175060000000  0.4818660000000 1.0
C      1  0.4484330000000  0.4314180000000  0.4674640000000 1.0
END
