TITL C-599890-3321-309 0.000107279718846425 125000 -263.413675279636 0 0 43 (C1) n - 1
REM
REM in /home/nfs/bkarasulu/CARBON/AIRSS/Generating-Clusters/TERSOFF/Only-C1/FIRE-HFTN
REM
REM
REM
REM
REM
REM ./C.cell (11c1c37f851c82e70ff6c80c92926a4b)
REM AIRSS Version 0.9.1 bugfix July 2018 build 013d7b7c2542+ Fri, 06 Jul 2018 19:26:36 +0100
REM compiler GCC version 9.2.1 20190827 (Red Hat 9.2.1-1)
REM options -cpp -mtune=generic -march=x86-64 -g -O0 -fpre-include=/usr/include/finclude/math-vector-fortran.h
REM seed -1387833144 -1363510183 -1013355597 -1535069844 -237928632 349301414 1676002393 -1965020675 -925514647 1847585256 -649696314 -353764037 1755156944 1587121561 -1681674383 66725550 -794746872 -2061005594 -99514288 955946648 1394749470 370921605 220329018 1499767623 -101574791 316409637 1701907526 1791904614 897212801 205863017 -1376632473 -1227582467 2007426672
REM
CELL 1.54180   50.00000   50.00000   50.00000   90.00000   90.00000   90.00000
LATT -1
SFAC C  
C      1  0.5048670000000  0.5296130000000  0.5267130000000 1.0
C      1  0.4257310000000  0.5210190000000  0.5006300000000 1.0
C      1  0.4708790000000  0.4690550000000  0.4496480000000 1.0
C      1  0.4490890000000  0.4731870000000  0.4670390000000 1.0
C      1  0.4473890000000  0.4745480000000  0.4949600000000 1.0
C      1  0.5001900000000  0.4428100000000  0.4829960000000 1.0
C      1  0.5019490000000  0.5087460000000  0.6106050000000 1.0
C      1  0.5487640000000  0.4601420000000  0.4935490000000 1.0
C      1  0.5381270000000  0.5353440000000  0.4298020000000 1.0
C      1  0.5048120000000  0.4667190000000  0.5724240000000 1.0
C      1  0.4643710000000  0.5496450000000  0.5052030000000 1.0
C      1  0.5360600000000  0.5577630000000  0.4466530000000 1.0
C      1  0.4599210000000  0.4548930000000  0.5119870000000 1.0
C      1  0.5146270000000  0.5218510000000  0.4223300000000 1.0
C      1  0.5634310000000  0.5242320000000  0.4254770000000 1.0
C      1  0.4422050000000  0.4993860000000  0.5081850000000 1.0
C      1  0.4843240000000  0.5074860000000  0.5899100000000 1.0
C      1  0.5067800000000  0.4457770000000  0.5539620000000 1.0
C      1  0.4559990000000  0.4613670000000  0.5396970000000 1.0
C      1  0.4617150000000  0.5068320000000  0.5287860000000 1.0
C      1  0.4879230000000  0.5153640000000  0.4281940000000 1.0
C      1  0.4659510000000  0.4866470000000  0.5485220000000 1.0
C      1  0.5486590000000  0.5032380000000  0.5154660000000 1.0
C      1  0.5837120000000  0.4917460000000  0.4836150000000 1.0
C      1  0.4842930000000  0.4873390000000  0.5698270000000 1.0
C      1  0.5223980000000  0.4695470000000  0.5946170000000 1.0
C      1  0.5031900000000  0.5722390000000  0.4827100000000 1.0
C      1  0.4676740000000  0.5533250000000  0.4573300000000 1.0
C      1  0.5841250000000  0.5123390000000  0.4373260000000 1.0
C      1  0.5291990000000  0.5191500000000  0.5241630000000 1.0
C      1  0.5920870000000  0.5009180000000  0.4600510000000 1.0
C      1  0.5249330000000  0.5705690000000  0.4672130000000 1.0
C      1  0.5211720000000  0.4896000000000  0.6129740000000 1.0
C      1  0.4714010000000  0.5362450000000  0.4372060000000 1.0
C      1  0.5614430000000  0.4845210000000  0.4989630000000 1.0
C      1  0.4883480000000  0.4487870000000  0.4582790000000 1.0
C      1  0.4791720000000  0.4889690000000  0.4318310000000 1.0
C      1  0.5279890000000  0.4455590000000  0.4856960000000 1.0
C      1  0.4772090000000  0.5302390000000  0.5225320000000 1.0
C      1  0.4776470000000  0.5607150000000  0.4827160000000 1.0
C      1  0.4361190000000  0.5461180000000  0.5024440000000 1.0
C      1  0.4848830000000  0.4414490000000  0.5070650000000 1.0
C      1  0.4992410000000  0.4349640000000  0.5307000000000 1.0
END
