TITL C-599894-471-53 817.211025502018 125000 -956.189139635366 0 0 157 (C1) n - 1
REM
REM in /home/nfs/bkarasulu/CARBON/AIRSS/Generating-Clusters/TERSOFF/Only-C1/FIRE-HFTN
REM
REM
REM
REM
REM
REM ./C.cell (11c1c37f851c82e70ff6c80c92926a4b)
REM AIRSS Version 0.9.1 bugfix July 2018 build 013d7b7c2542+ Fri, 06 Jul 2018 19:26:36 +0100
REM compiler GCC version 9.2.1 20190827 (Red Hat 9.2.1-1)
REM options -cpp -mtune=generic -march=x86-64 -g -O0 -fpre-include=/usr/include/finclude/math-vector-fortran.h
REM seed -335101690 -1416024504 908433422 -1360105480 -904094874 624906209 881807853 812855967 1953539327 -1724344328 1916854708 -1632739537 78319224 291181362 -1883105660 1628572082 478087516 -572660493 -229600593 -1453497956 1994928420 -1932318352 1397384519 1776231175 1910544022 -937690468 2089548869 858119732 -748220530 2045596965 1866829014 -1699691507 -1646862875
REM
CELL 1.54180   50.00000   50.00000   50.00000   90.00000   90.00000   90.00000
LATT -1
SFAC C  
C      1  0.5780320000000  0.3868300000000  0.4922470000000 1.0
C      1  0.4067840000000  0.4344750000000  0.4854530000000 1.0
C      1  0.4541270000000  0.5662130000000  0.4195080000000 1.0
C      1  0.4818690000000  0.4901400000000  0.6030000000000 1.0
C      1  0.4426520000000  0.5789910000000  0.5954130000000 1.0
C      1  0.5280570000000  0.5003730000000  0.5640340000000 1.0
C      1  0.4471960000000  0.5223350000000  0.6087190000000 1.0
C      1  0.5149820000000  0.4615220000000  0.3716380000000 1.0
C      1  0.5791670000000  0.5002770000000  0.4061080000000 1.0
C      1  0.5916320000000  0.3972120000000  0.4701120000000 1.0
C      1  0.4588260000000  0.5378390000000  0.4667640000000 1.0
C      1  0.5397210000000  0.6026540000000  0.4097660000000 1.0
C      1  0.4323390000000  0.4400680000000  0.5752570000000 1.0
C      1  0.4769550000000  0.3960950000000  0.5466240000000 1.0
C      1  0.4619370000000  0.4861660000000  0.5387920000000 1.0
C      1  0.4814500000000  0.6048380000000  0.5091220000000 1.0
C      1  0.5074780000000  0.4251970000000  0.5785850000000 1.0
C      1  0.4836130000000  0.5337780000000  0.5793430000000 1.0
C      1  0.4891070000000  0.3987040000000  0.4991190000000 1.0
C      1  0.4830470000000  0.4632370000000  0.4672000000000 1.0
C      1  0.5640940000000  0.5453240000000  0.5340080000000 1.0
C      1  0.3523300000000  0.5649800000000  0.4243860000000 1.0
C      1  0.5412380000000  0.4950580000000  0.4809060000000 1.0
C      1  0.4797340000000  0.5181890000000  0.4310080000000 1.0
C      1  0.4126260000000  0.4558050000000  0.4356140000000 1.0
C      1  0.7062750000000  0.5768700000000  0.5095270000000 1.0
C      1  0.4558800000000  0.4268890000000  0.5809410000000 1.0
C      1  0.5714040000000  0.4402140000000  0.4409080000000 1.0
C      1  0.4934050000000  0.3997040000000  0.4710970000000 1.0
C      1  0.4502520000000  0.5616560000000  0.4782120000000 1.0
C      1  0.4618100000000  0.4852600000000  0.5094830000000 1.0
C      1  0.5056500000000  0.5848440000000  0.4396100000000 1.0
C      1  0.4858920000000  0.4686940000000  0.4970760000000 1.0
C      1  0.5571380000000  0.5182710000000  0.5274240000000 1.0
C      1  0.3693260000000  0.5452240000000  0.4237610000000 1.0
C      1  0.4518920000000  0.4237990000000  0.4245210000000 1.0
C      1  0.4217620000000  0.6081820000000  0.4100030000000 1.0
C      1  0.6573430000000  0.5576330000000  0.5097070000000 1.0
C      1  0.4519160000000  0.4230910000000  0.4528480000000 1.0
C      1  0.5014760000000  0.5128110000000  0.5104000000000 1.0
C      1  0.5428280000000  0.4558660000000  0.5949690000000 1.0
C      1  0.4488740000000  0.4386660000000  0.5319850000000 1.0
C      1  0.4845040000000  0.5404310000000  0.4512350000000 1.0
C      1  0.4676640000000  0.3966330000000  0.5186080000000 1.0
C      1  0.5131560000000  0.5934860000000  0.4671390000000 1.0
C      1  0.4464370000000  0.5056830000000  0.4969050000000 1.0
C      1  0.4882290000000  0.4667510000000  0.4131840000000 1.0
C      1  0.4877890000000  0.5966360000000  0.4826190000000 1.0
C      1  0.4189470000000  0.5069540000000  0.5497590000000 1.0
C      1  0.5823500000000  0.4704720000000  0.6216750000000 1.0
C      1  0.5240200000000  0.4355470000000  0.4124800000000 1.0
C      1  0.5905160000000  0.4854970000000  0.4536740000000 1.0
C      1  0.4879740000000  0.6137000000000  0.5563790000000 1.0
C      1  0.4770870000000  0.5291320000000  0.4048840000000 1.0
C      1  0.4448970000000  0.4926880000000  0.3951940000000 1.0
C      1  0.5535270000000  0.5012870000000  0.5507960000000 1.0
C      1  0.5078870000000  0.4193710000000  0.4555660000000 1.0
C      1  0.4483120000000  0.5777020000000  0.5683180000000 1.0
C      1  0.5527440000000  0.5027470000000  0.4029880000000 1.0
C      1  0.4454340000000  0.4150190000000  0.5153720000000 1.0
C      1  0.5394350000000  0.5856860000000  0.4764910000000 1.0
C      1  0.4587420000000  0.5947690000000  0.5250660000000 1.0
C      1  0.6326870000000  0.5479610000000  0.5097720000000 1.0
C      1  0.4495560000000  0.5397420000000  0.4066900000000 1.0
C      1  0.5140110000000  0.5635680000000  0.3971250000000 1.0
C      1  0.5255100000000  0.4738800000000  0.5245350000000 1.0
C      1  0.6016180000000  0.5026020000000  0.4731680000000 1.0
C      1  0.5098290000000  0.4553610000000  0.3976640000000 1.0
C      1  0.4393030000000  0.5741570000000  0.5233650000000 1.0
C      1  0.5075240000000  0.4182550000000  0.5099330000000 1.0
C      1  0.5164950000000  0.4921790000000  0.4404890000000 1.0
C      1  0.5543560000000  0.4684070000000  0.6176480000000 1.0
C      1  0.4810960000000  0.4216790000000  0.5640050000000 1.0
C      1  0.5752090000000  0.4157910000000  0.4554010000000 1.0
C      1  0.4362240000000  0.5591940000000  0.5491890000000 1.0
C      1  0.4379470000000  0.5881510000000  0.4139790000000 1.0
C      1  0.5352660000000  0.4119960000000  0.5132540000000 1.0
C      1  0.4780420000000  0.4163300000000  0.4153720000000 1.0
C      1  0.4667490000000  0.5825980000000  0.4679530000000 1.0
C      1  0.5505730000000  0.4303660000000  0.5550890000000 1.0
C      1  0.5536860000000  0.5146950000000  0.4981840000000 1.0
C      1  0.5852520000000  0.5563790000000  0.5182070000000 1.0
C      1  0.4041160000000  0.4391630000000  0.4576900000000 1.0
C      1  0.6064170000000  0.5379470000000  0.5093730000000 1.0
C      1  0.5573270000000  0.4542160000000  0.5698100000000 1.0
C      1  0.4320210000000  0.5154490000000  0.4070030000000 1.0
C      1  0.5514410000000  0.4387930000000  0.4200500000000 1.0
C      1  0.4374510000000  0.5564220000000  0.5019790000000 1.0
C      1  0.5976310000000  0.4880550000000  0.5173370000000 1.0
C      1  0.5944230000000  0.4926330000000  0.4266990000000 1.0
C      1  0.5971600000000  0.4931700000000  0.6224620000000 1.0
C      1  0.5274450000000  0.5141080000000  0.5883820000000 1.0
C      1  0.4977280000000  0.6178330000000  0.5293670000000 1.0
C      1  0.5679170000000  0.4762720000000  0.5539320000000 1.0
C      1  0.4379870000000  0.5842270000000  0.6209650000000 1.0
C      1  0.4979620000000  0.5495230000000  0.5630230000000 1.0
C      1  0.5041790000000  0.5371740000000  0.4973370000000 1.0
C      1  0.4641930000000  0.5976140000000  0.5543620000000 1.0
C      1  0.3832090000000  0.4986180000000  0.5147130000000 1.0
C      1  0.5070160000000  0.5582530000000  0.5155530000000 1.0
C      1  0.4303230000000  0.4418660000000  0.4172590000000 1.0
C      1  0.4993320000000  0.6231170000000  0.5791310000000 1.0
C      1  0.4625310000000  0.4435910000000  0.4661100000000 1.0
C      1  0.4784060000000  0.4436860000000  0.5415370000000 1.0
C      1  0.4067620000000  0.4842520000000  0.4404650000000 1.0
C      1  0.5499940000000  0.4138910000000  0.4702840000000 1.0
C      1  0.4844340000000  0.4722920000000  0.5504720000000 1.0
C      1  0.5305220000000  0.4985640000000  0.4170340000000 1.0
C      1  0.5579950000000  0.5380370000000  0.4818020000000 1.0
C      1  0.4092510000000  0.5081860000000  0.4234710000000 1.0
C      1  0.4317720000000  0.5311010000000  0.5410570000000 1.0
C      1  0.5405910000000  0.5152050000000  0.6131770000000 1.0
C      1  0.6031910000000  0.5101470000000  0.5003840000000 1.0
C      1  0.5647910000000  0.5296030000000  0.6166020000000 1.0
C      1  0.5309370000000  0.4136180000000  0.5672580000000 1.0
C      1  0.5204230000000  0.5841730000000  0.4153350000000 1.0
C      1  0.4243560000000  0.4152740000000  0.4967590000000 1.0
C      1  0.4928960000000  0.4426840000000  0.5144880000000 1.0
C      1  0.4272980000000  0.4539220000000  0.5488850000000 1.0
C      1  0.5514060000000  0.3981170000000  0.4945420000000 1.0
C      1  0.6820100000000  0.5673350000000  0.5096060000000 1.0
C      1  0.4953790000000  0.4725600000000  0.4414140000000 1.0
C      1  0.4370030000000  0.5290220000000  0.5118800000000 1.0
C      1  0.4028530000000  0.4509540000000  0.5316150000000 1.0
C      1  0.4710170000000  0.5155200000000  0.5969740000000 1.0
C      1  0.4979100000000  0.5427150000000  0.3921490000000 1.0
C      1  0.5519860000000  0.4590050000000  0.5129490000000 1.0
C      1  0.5046010000000  0.4197160000000  0.4270720000000 1.0
C      1  0.4651670000000  0.4757370000000  0.3997910000000 1.0
C      1  0.5790640000000  0.5822960000000  0.5074880000000 1.0
C      1  0.5722920000000  0.4636620000000  0.4588240000000 1.0
C      1  0.5895030000000  0.5190540000000  0.6202940000000 1.0
C      1  0.5773100000000  0.4710170000000  0.5266270000000 1.0
C      1  0.5587310000000  0.5958530000000  0.4950750000000 1.0
C      1  0.4508160000000  0.5109510000000  0.4696380000000 1.0
C      1  0.5071870000000  0.5320760000000  0.4691850000000 1.0
C      1  0.3976220000000  0.4545630000000  0.5036360000000 1.0
C      1  0.4612020000000  0.5000880000000  0.4452570000000 1.0
C      1  0.3959420000000  0.4884630000000  0.4671370000000 1.0
C      1  0.5489950000000  0.4638710000000  0.4802700000000 1.0
C      1  0.5143130000000  0.4483370000000  0.5947840000000 1.0
C      1  0.5484620000000  0.5596060000000  0.4690400000000 1.0
C      1  0.5153720000000  0.5586970000000  0.5427510000000 1.0
C      1  0.4950400000000  0.4668770000000  0.6036640000000 1.0
C      1  0.5081200000000  0.4862180000000  0.5059250000000 1.0
C      1  0.4790510000000  0.5696880000000  0.4406410000000 1.0
C      1  0.5396490000000  0.4906950000000  0.6276700000000 1.0
C      1  0.5496100000000  0.4319380000000  0.5269240000000 1.0
C      1  0.5121820000000  0.4806390000000  0.5503520000000 1.0
C      1  0.3926180000000  0.5042770000000  0.5394080000000 1.0
C      1  0.3905140000000  0.4807690000000  0.4940240000000 1.0
C      1  0.3874400000000  0.5259010000000  0.4232070000000 1.0
C      1  0.4337080000000  0.5889600000000  0.6462410000000 1.0
C      1  0.4356890000000  0.4833700000000  0.5502750000000 1.0
C      1  0.5304790000000  0.4340220000000  0.4678710000000 1.0
C      1  0.5221850000000  0.5073410000000  0.4631420000000 1.0
C      1  0.5434410000000  0.5599560000000  0.5465540000000 1.0
END
