TITL C-599895-9959-947 -37.3074753904932 125000 -914.585324383123 0 0 152 (C1) n - 1
REM
REM in /home/nfs/bkarasulu/CARBON/AIRSS/Generating-Clusters/TERSOFF/Only-C1/FIRE-HFTN
REM
REM
REM
REM
REM
REM ./C.cell (11c1c37f851c82e70ff6c80c92926a4b)
REM AIRSS Version 0.9.1 bugfix July 2018 build 013d7b7c2542+ Fri, 06 Jul 2018 19:26:36 +0100
REM compiler GCC version 9.2.1 20190827 (Red Hat 9.2.1-1)
REM options -cpp -mtune=generic -march=x86-64 -g -O0 -fpre-include=/usr/include/finclude/math-vector-fortran.h
REM seed 816014615 -1297777972 1377070234 1513522106 -960148486 -1033472843 -1803807390 1071397681 -187067718 1702999862 1144195325 -863028628 -251712637 1227050405 -127457459 -1859078492 -353972373 843326322 887265566 -84464860 -268772026 1337053426 -380201413 -1754294213 1100473129 -313938654 425556394 -443247024 -418763012 -1941665987 1332143569 1295283651 -162023626
REM
CELL 1.54180   50.00000   50.00000   50.00000   90.00000   90.00000   90.00000
LATT -1
SFAC C  
C      1  0.4916820000000  0.5915210000000  0.4584310000000 1.0
C      1  0.5232040000000  0.6145000000000  0.5249980000000 1.0
C      1  0.5513870000000  0.5810400000000  0.4582830000000 1.0
C      1  0.5100370000000  0.5103880000000  0.5043340000000 1.0
C      1  0.5695950000000  0.4366270000000  0.4945850000000 1.0
C      1  0.5838880000000  0.4807220000000  0.4115440000000 1.0
C      1  0.4823680000000  0.4735800000000  0.6007560000000 1.0
C      1  0.5404850000000  0.5166280000000  0.4603470000000 1.0
C      1  0.5186480000000  0.5765180000000  0.4960530000000 1.0
C      1  0.3474200000000  0.4706060000000  0.5246570000000 1.0
C      1  0.5896630000000  0.4675900000000  0.5669400000000 1.0
C      1  0.4202250000000  0.4597660000000  0.4833730000000 1.0
C      1  0.3178800000000  0.3776020000000  0.5019200000000 1.0
C      1  0.3915350000000  0.5508130000000  0.4718950000000 1.0
C      1  0.4643110000000  0.4886620000000  0.4996580000000 1.0
C      1  0.5395710000000  0.4866000000000  0.5792300000000 1.0
C      1  0.4473500000000  0.5796860000000  0.5216230000000 1.0
C      1  0.3803400000000  0.4912280000000  0.4044160000000 1.0
C      1  0.6035600000000  0.5215750000000  0.5516470000000 1.0
C      1  0.6097360000000  0.5196550000000  0.4753010000000 1.0
C      1  0.5840440000000  0.4677340000000  0.5949720000000 1.0
C      1  0.6021420000000  0.5415260000000  0.5291130000000 1.0
C      1  0.5216280000000  0.3848030000000  0.5141290000000 1.0
C      1  0.4242800000000  0.4197900000000  0.4561190000000 1.0
C      1  0.5873850000000  0.5667050000000  0.5306620000000 1.0
C      1  0.5557740000000  0.4286370000000  0.5413540000000 1.0
C      1  0.5945800000000  0.5280150000000  0.4505070000000 1.0
C      1  0.5175880000000  0.4576980000000  0.4147770000000 1.0
C      1  0.5827610000000  0.4437590000000  0.5482810000000 1.0
C      1  0.4717650000000  0.5283560000000  0.5519330000000 1.0
C      1  0.5336380000000  0.4050310000000  0.5000940000000 1.0
C      1  0.4912650000000  0.6116210000000  0.5069900000000 1.0
C      1  0.5539420000000  0.4214850000000  0.5125420000000 1.0
C      1  0.4676370000000  0.4702350000000  0.4188950000000 1.0
C      1  0.6103920000000  0.5342040000000  0.5011810000000 1.0
C      1  0.4021080000000  0.4809040000000  0.4763050000000 1.0
C      1  0.5637690000000  0.4262000000000  0.4489990000000 1.0
C      1  0.5278640000000  0.4321990000000  0.5527160000000 1.0
C      1  0.4752000000000  0.3912360000000  0.5608370000000 1.0
C      1  0.4539220000000  0.4464760000000  0.5161660000000 1.0
C      1  0.5476680000000  0.5600070000000  0.5627560000000 1.0
C      1  0.5041120000000  0.4295410000000  0.5722940000000 1.0
C      1  0.4708440000000  0.4799870000000  0.4735890000000 1.0
C      1  0.5531920000000  0.5467280000000  0.4206310000000 1.0
C      1  0.5370660000000  0.5647060000000  0.4773970000000 1.0
C      1  0.4225940000000  0.5112500000000  0.4149720000000 1.0
C      1  0.6247890000000  0.4682380000000  0.4883020000000 1.0
C      1  0.4256760000000  0.4756650000000  0.5435690000000 1.0
C      1  0.5072610000000  0.5683600000000  0.5224970000000 1.0
C      1  0.4063080000000  0.4007750000000  0.4608420000000 1.0
C      1  0.4822000000000  0.4570560000000  0.4666190000000 1.0
C      1  0.5460170000000  0.5052890000000  0.5360690000000 1.0
C      1  0.3375200000000  0.3963210000000  0.4984890000000 1.0
C      1  0.6042460000000  0.4851070000000  0.5259720000000 1.0
C      1  0.5609980000000  0.5736670000000  0.5416870000000 1.0
C      1  0.5134530000000  0.4827330000000  0.4989090000000 1.0
C      1  0.5177320000000  0.5597680000000  0.5992880000000 1.0
C      1  0.5133160000000  0.6115500000000  0.5503610000000 1.0
C      1  0.4629120000000  0.5653810000000  0.5806060000000 1.0
C      1  0.5487750000000  0.5340380000000  0.5775450000000 1.0
C      1  0.4555290000000  0.4738020000000  0.5888690000000 1.0
C      1  0.4517730000000  0.5228590000000  0.5327340000000 1.0
C      1  0.3605270000000  0.3901870000000  0.4837460000000 1.0
C      1  0.5844480000000  0.4920940000000  0.5094030000000 1.0
C      1  0.4957770000000  0.4725740000000  0.4252400000000 1.0
C      1  0.5188280000000  0.5165600000000  0.5304430000000 1.0
C      1  0.4939420000000  0.5305530000000  0.4947080000000 1.0
C      1  0.4602050000000  0.5563530000000  0.4761000000000 1.0
C      1  0.4432370000000  0.4626910000000  0.5650610000000 1.0
C      1  0.3966390000000  0.4868520000000  0.4492940000000 1.0
C      1  0.3652090000000  0.4902880000000  0.5260710000000 1.0
C      1  0.5761230000000  0.5293720000000  0.4269120000000 1.0
C      1  0.5698840000000  0.6016770000000  0.5008080000000 1.0
C      1  0.5463080000000  0.5722690000000  0.4308320000000 1.0
C      1  0.5268220000000  0.4091070000000  0.4725180000000 1.0
C      1  0.4774720000000  0.5834280000000  0.5670790000000 1.0
C      1  0.5156450000000  0.4736960000000  0.5681570000000 1.0
C      1  0.4665260000000  0.5376270000000  0.5788540000000 1.0
C      1  0.6187890000000  0.4486660000000  0.5065810000000 1.0
C      1  0.4564020000000  0.4797600000000  0.3712120000000 1.0
C      1  0.4322180000000  0.4467460000000  0.4592680000000 1.0
C      1  0.4473010000000  0.4588620000000  0.4367120000000 1.0
C      1  0.5002750000000  0.5965450000000  0.4846990000000 1.0
C      1  0.4239200000000  0.5195060000000  0.4915520000000 1.0
C      1  0.4458530000000  0.5279910000000  0.4147390000000 1.0
C      1  0.5157180000000  0.5198780000000  0.4461010000000 1.0
C      1  0.5235820000000  0.5716720000000  0.5739810000000 1.0
C      1  0.5014220000000  0.4549090000000  0.5874580000000 1.0
C      1  0.5222780000000  0.4323820000000  0.4268840000000 1.0
C      1  0.5928020000000  0.5871860000000  0.5107520000000 1.0
C      1  0.5503820000000  0.4890160000000  0.4645520000000 1.0
C      1  0.5211710000000  0.4599330000000  0.5415960000000 1.0
C      1  0.3348690000000  0.4218610000000  0.5096780000000 1.0
C      1  0.4486340000000  0.5113400000000  0.5062730000000 1.0
C      1  0.5663240000000  0.4760210000000  0.6140420000000 1.0
C      1  0.4738200000000  0.4664160000000  0.5167780000000 1.0
C      1  0.5279050000000  0.5268020000000  0.4033780000000 1.0
C      1  0.3837120000000  0.3910720000000  0.4708770000000 1.0
C      1  0.4824650000000  0.5396110000000  0.4705040000000 1.0
C      1  0.4433020000000  0.5498250000000  0.4321970000000 1.0
C      1  0.6043710000000  0.4394790000000  0.5281220000000 1.0
C      1  0.5724050000000  0.4450980000000  0.4681880000000 1.0
C      1  0.5030430000000  0.4962140000000  0.4383840000000 1.0
C      1  0.4995630000000  0.5714060000000  0.4396050000000 1.0
C      1  0.5213470000000  0.5085280000000  0.6131380000000 1.0
C      1  0.6216980000000  0.4930130000000  0.4770080000000 1.0
C      1  0.5309260000000  0.4746070000000  0.4792580000000 1.0
C      1  0.4645800000000  0.6048550000000  0.5196340000000 1.0
C      1  0.4749800000000  0.5220530000000  0.6010630000000 1.0
C      1  0.4170390000000  0.5412010000000  0.4739010000000 1.0
C      1  0.4982530000000  0.5265760000000  0.3996170000000 1.0
C      1  0.5734990000000  0.4721800000000  0.4589200000000 1.0
C      1  0.5917800000000  0.4755190000000  0.4377370000000 1.0
C      1  0.4112130000000  0.5032190000000  0.5415050000000 1.0
C      1  0.3376020000000  0.4466850000000  0.5186280000000 1.0
C      1  0.5414280000000  0.4880490000000  0.6079010000000 1.0
C      1  0.5621950000000  0.5330740000000  0.4994860000000 1.0
C      1  0.5655530000000  0.5115310000000  0.5155620000000 1.0
C      1  0.4713810000000  0.3656040000000  0.5580830000000 1.0
C      1  0.4278370000000  0.4572010000000  0.5125850000000 1.0
C      1  0.5362850000000  0.4193800000000  0.4477070000000 1.0
C      1  0.5651300000000  0.4622980000000  0.3993550000000 1.0
C      1  0.4699420000000  0.5166430000000  0.4023860000000 1.0
C      1  0.5045080000000  0.5842440000000  0.5558790000000 1.0
C      1  0.5654220000000  0.6012750000000  0.4724880000000 1.0
C      1  0.5018690000000  0.4653190000000  0.5189320000000 1.0
C      1  0.4863690000000  0.5513530000000  0.5140750000000 1.0
C      1  0.4992240000000  0.5435500000000  0.4485180000000 1.0
C      1  0.4782830000000  0.4186980000000  0.5646350000000 1.0
C      1  0.4556230000000  0.4363150000000  0.5615150000000 1.0
C      1  0.4618950000000  0.5626670000000  0.5036170000000 1.0
C      1  0.5505090000000  0.5087550000000  0.5649560000000 1.0
C      1  0.3904880000000  0.5007580000000  0.5211830000000 1.0
C      1  0.4017680000000  0.5016730000000  0.4952080000000 1.0
C      1  0.3998610000000  0.4964840000000  0.4229310000000 1.0
C      1  0.5489830000000  0.6010410000000  0.5211980000000 1.0
C      1  0.4382660000000  0.5529160000000  0.4597250000000 1.0
C      1  0.5428230000000  0.5024730000000  0.4008250000000 1.0
C      1  0.6016620000000  0.4917670000000  0.5535500000000 1.0
C      1  0.5202380000000  0.5796720000000  0.4223240000000 1.0
C      1  0.5451290000000  0.4750170000000  0.5329780000000 1.0
C      1  0.4269710000000  0.5618860000000  0.5363560000000 1.0
C      1  0.4953710000000  0.4931420000000  0.5623550000000 1.0
C      1  0.4925950000000  0.5007020000000  0.6093510000000 1.0
C      1  0.5714440000000  0.5064860000000  0.4092490000000 1.0
C      1  0.5378460000000  0.4727420000000  0.4006390000000 1.0
C      1  0.4484020000000  0.4717930000000  0.3477270000000 1.0
C      1  0.4641060000000  0.4884120000000  0.3965090000000 1.0
C      1  0.5304080000000  0.5341010000000  0.6018820000000 1.0
C      1  0.4249560000000  0.5311030000000  0.5414620000000 1.0
C      1  0.5464080000000  0.5383080000000  0.4778820000000 1.0
C      1  0.4972350000000  0.5168630000000  0.5486770000000 1.0
END
