TITL C-599890-3321-678 584.173447661885 125000 -748.681118407059 0 0 126 (C1) n - 1
REM
REM in /home/nfs/bkarasulu/CARBON/AIRSS/Generating-Clusters/TERSOFF/Only-C1/FIRE-HFTN
REM
REM
REM
REM
REM
REM ./C.cell (11c1c37f851c82e70ff6c80c92926a4b)
REM AIRSS Version 0.9.1 bugfix July 2018 build 013d7b7c2542+ Fri, 06 Jul 2018 19:26:36 +0100
REM compiler GCC version 9.2.1 20190827 (Red Hat 9.2.1-1)
REM options -cpp -mtune=generic -march=x86-64 -g -O0 -fpre-include=/usr/include/finclude/math-vector-fortran.h
REM seed -1176871372 -1219582599 -88295832 -235428471 934707152 -1885548392 1983989827 -68126544 898678400 -1752577804 -947710683 1822937428 -224498303 -1364845763 1543429435 1582039312 -1966416676 -1664157991 1125461299 -175005726 811821987 129256580 2130246303 -463379394 -599315171 -81483883 -295629590 -1235927342 -2081840323 -1324897489 -550017486 -1784812141 2058364708
REM
CELL 1.54180   50.00000   50.00000   50.00000   90.00000   90.00000   90.00000
LATT -1
SFAC C  
C      1  0.6148470000000  0.4755440000000  0.4915150000000 1.0
C      1  0.4140410000000  0.5162090000000  0.5549150000000 1.0
C      1  0.5570770000000  0.5394290000000  0.5799770000000 1.0
C      1  0.5459440000000  0.5142350000000  0.4747640000000 1.0
C      1  0.4291730000000  0.4650510000000  0.4349990000000 1.0
C      1  0.4713430000000  0.5557270000000  0.5747720000000 1.0
C      1  0.5149420000000  0.5052480000000  0.6290590000000 1.0
C      1  0.4586370000000  0.5554470000000  0.4573450000000 1.0
C      1  0.5375620000000  0.5213000000000  0.5908920000000 1.0
C      1  0.4174350000000  0.4527800000000  0.5706270000000 1.0
C      1  0.5515690000000  0.5300060000000  0.5311820000000 1.0
C      1  0.6216310000000  0.5174570000000  0.4661930000000 1.0
C      1  0.4962700000000  0.3783880000000  0.4362020000000 1.0
C      1  0.3940580000000  0.4730720000000  0.4731090000000 1.0
C      1  0.5751450000000  0.4441320000000  0.5001460000000 1.0
C      1  0.5221350000000  0.5338120000000  0.4187380000000 1.0
C      1  0.4494430000000  0.4379240000000  0.4711750000000 1.0
C      1  0.5150410000000  0.4508790000000  0.4947200000000 1.0
C      1  0.5150580000000  0.4833000000000  0.3721140000000 1.0
C      1  0.3905090000000  0.6011280000000  0.5347300000000 1.0
C      1  0.4771000000000  0.4466680000000  0.5435090000000 1.0
C      1  0.4588370000000  0.5393030000000  0.5936210000000 1.0
C      1  0.6092580000000  0.4734350000000  0.4451200000000 1.0
C      1  0.5127760000000  0.5682430000000  0.5948540000000 1.0
C      1  0.5803230000000  0.5272780000000  0.5691320000000 1.0
C      1  0.5678580000000  0.5650060000000  0.4926990000000 1.0
C      1  0.5002580000000  0.4949660000000  0.6069440000000 1.0
C      1  0.5708250000000  0.4829760000000  0.5383500000000 1.0
C      1  0.3903500000000  0.4673230000000  0.4988830000000 1.0
C      1  0.4453440000000  0.3700570000000  0.4346200000000 1.0
C      1  0.4972660000000  0.5369650000000  0.4017120000000 1.0
C      1  0.4638140000000  0.4717550000000  0.5853360000000 1.0
C      1  0.4549770000000  0.4825760000000  0.4869080000000 1.0
C      1  0.4871670000000  0.5549340000000  0.4964840000000 1.0
C      1  0.4389830000000  0.4584670000000  0.5854020000000 1.0
C      1  0.4772370000000  0.5234240000000  0.3899380000000 1.0
C      1  0.5194570000000  0.4609980000000  0.4689910000000 1.0
C      1  0.6145270000000  0.4924720000000  0.5146210000000 1.0
C      1  0.4890950000000  0.4864020000000  0.3615630000000 1.0
C      1  0.5526530000000  0.5744530000000  0.4702550000000 1.0
C      1  0.5110780000000  0.5320470000000  0.4476530000000 1.0
C      1  0.5807240000000  0.4684450000000  0.5606360000000 1.0
C      1  0.6030040000000  0.5130660000000  0.5284250000000 1.0
C      1  0.5359890000000  0.5205500000000  0.6202310000000 1.0
C      1  0.3784780000000  0.5842630000000  0.5519000000000 1.0
C      1  0.5117630000000  0.5573480000000  0.5460470000000 1.0
C      1  0.4636510000000  0.4459650000000  0.5183330000000 1.0
C      1  0.5857780000000  0.4243850000000  0.5423330000000 1.0
C      1  0.5000360000000  0.5569320000000  0.5725540000000 1.0
C      1  0.3829430000000  0.5581340000000  0.5565630000000 1.0
C      1  0.4696700000000  0.4983870000000  0.3790950000000 1.0
C      1  0.4546470000000  0.5770440000000  0.5294060000000 1.0
C      1  0.4211820000000  0.4137730000000  0.4388590000000 1.0
C      1  0.4796000000000  0.5744240000000  0.5158410000000 1.0
C      1  0.4365110000000  0.5081010000000  0.5382790000000 1.0
C      1  0.5387230000000  0.4295790000000  0.5302810000000 1.0
C      1  0.5061110000000  0.4851150000000  0.5593490000000 1.0
C      1  0.4249930000000  0.3873330000000  0.4360540000000 1.0
C      1  0.5913810000000  0.4533990000000  0.4554420000000 1.0
C      1  0.4343870000000  0.5264490000000  0.5161250000000 1.0
C      1  0.6206220000000  0.4894480000000  0.4660180000000 1.0
C      1  0.4510620000000  0.5052530000000  0.4734270000000 1.0
C      1  0.4945740000000  0.4254020000000  0.5514220000000 1.0
C      1  0.4753510000000  0.4779120000000  0.4307840000000 1.0
C      1  0.5021890000000  0.5803750000000  0.5318770000000 1.0
C      1  0.4068530000000  0.4736250000000  0.4496610000000 1.0
C      1  0.4557650000000  0.4323020000000  0.3952290000000 1.0
C      1  0.4498910000000  0.5290320000000  0.4614020000000 1.0
C      1  0.5973640000000  0.4453830000000  0.5571020000000 1.0
C      1  0.4719100000000  0.3677490000000  0.4348000000000 1.0
C      1  0.4399950000000  0.4363510000000  0.4424630000000 1.0
C      1  0.4173650000000  0.5490090000000  0.5218780000000 1.0
C      1  0.5391980000000  0.5593860000000  0.4228820000000 1.0
C      1  0.4172860000000  0.6121250000000  0.4659090000000 1.0
C      1  0.5983080000000  0.4510260000000  0.4844670000000 1.0
C      1  0.6066430000000  0.5370350000000  0.4768790000000 1.0
C      1  0.4434700000000  0.5749200000000  0.4444610000000 1.0
C      1  0.4834650000000  0.5622070000000  0.4694540000000 1.0
C      1  0.5371950000000  0.5104280000000  0.4089420000000 1.0
C      1  0.5146780000000  0.3974480000000  0.4384380000000 1.0
C      1  0.5329120000000  0.4917290000000  0.3901510000000 1.0
C      1  0.5078610000000  0.5343930000000  0.5014080000000 1.0
C      1  0.5643570000000  0.4502560000000  0.4476810000000 1.0
C      1  0.4772740000000  0.4737760000000  0.5581850000000 1.0
C      1  0.4501510000000  0.4810150000000  0.3912390000000 1.0
C      1  0.4635110000000  0.4332060000000  0.4228480000000 1.0
C      1  0.4573920000000  0.5154710000000  0.6056510000000 1.0
C      1  0.5214880000000  0.4749900000000  0.5379470000000 1.0
C      1  0.5663580000000  0.5773670000000  0.5184650000000 1.0
C      1  0.4475880000000  0.4542820000000  0.3811530000000 1.0
C      1  0.3935420000000  0.4595340000000  0.5241690000000 1.0
C      1  0.5365680000000  0.4454750000000  0.4515290000000 1.0
C      1  0.5818130000000  0.5395350000000  0.4899830000000 1.0
C      1  0.4559560000000  0.4549810000000  0.4927080000000 1.0
C      1  0.4288680000000  0.5969980000000  0.4472740000000 1.0
C      1  0.4591030000000  0.4931560000000  0.5436880000000 1.0
C      1  0.5618900000000  0.5782400000000  0.5451990000000 1.0
C      1  0.4829040000000  0.4792970000000  0.3359420000000 1.0
C      1  0.5337350000000  0.5716030000000  0.4492540000000 1.0
C      1  0.4108890000000  0.5976430000000  0.5155490000000 1.0
C      1  0.5798090000000  0.5253260000000  0.5407740000000 1.0
C      1  0.4117430000000  0.6124450000000  0.4919470000000 1.0
C      1  0.5664520000000  0.4276590000000  0.5221550000000 1.0
C      1  0.5073090000000  0.5603220000000  0.4550920000000 1.0
C      1  0.5266410000000  0.4209170000000  0.4419350000000 1.0
C      1  0.5170900000000  0.5155490000000  0.4714690000000 1.0
C      1  0.5251270000000  0.4531250000000  0.5205870000000 1.0
C      1  0.5666460000000  0.5148790000000  0.4933340000000 1.0
C      1  0.5595320000000  0.4677220000000  0.4968540000000 1.0
C      1  0.5236960000000  0.5376570000000  0.5269810000000 1.0
C      1  0.5191370000000  0.5819980000000  0.6160850000000 1.0
C      1  0.5098420000000  0.4873320000000  0.4664250000000 1.0
C      1  0.4723850000000  0.4917080000000  0.6037210000000 1.0
C      1  0.5657980000000  0.4913050000000  0.5108200000000 1.0
C      1  0.4016810000000  0.5406120000000  0.5456170000000 1.0
C      1  0.5198690000000  0.4160980000000  0.5468450000000 1.0
C      1  0.6227950000000  0.4441380000000  0.5668760000000 1.0
C      1  0.5714120000000  0.4730480000000  0.6129250000000 1.0
C      1  0.4487040000000  0.4813690000000  0.4202820000000 1.0
C      1  0.4842120000000  0.4520010000000  0.4293110000000 1.0
C      1  0.5733150000000  0.4742640000000  0.5869450000000 1.0
C      1  0.5158420000000  0.5006700000000  0.5819300000000 1.0
C      1  0.4566880000000  0.5720450000000  0.5572980000000 1.0
C      1  0.4281570000000  0.5751790000000  0.5192580000000 1.0
C      1  0.5557910000000  0.5660940000000  0.5688680000000 1.0
C      1  0.4023710000000  0.4536720000000  0.5486270000000 1.0
END
