TITL C-599895-9959-832 1.32106273394034 125000 -162.834279913507 0 0 28 (C1) n - 1
REM
REM in /home/nfs/bkarasulu/CARBON/AIRSS/Generating-Clusters/TERSOFF/Only-C1/FIRE-HFTN
REM
REM
REM
REM
REM
REM ./C.cell (11c1c37f851c82e70ff6c80c92926a4b)
REM AIRSS Version 0.9.1 bugfix July 2018 build 013d7b7c2542+ Fri, 06 Jul 2018 19:26:36 +0100
REM compiler GCC version 9.2.1 20190827 (Red Hat 9.2.1-1)
REM options -cpp -mtune=generic -march=x86-64 -g -O0 -fpre-include=/usr/include/finclude/math-vector-fortran.h
REM seed -1083580163 -2021366611 1415065838 1847343271 -1272777615 -1585913295 -284036519 1261704311 1196635006 1160493983 542864403 1172688275 -159695123 -753267425 -2081726929 -2040797251 -133659325 148816812 -3253105 -847732105 -846125167 -446900340 -615704217 -896371877 -124698039 -1910341000 54831298 -1249420142 1767691820 -961561866 -1362111864 -322762556 896838798
REM
CELL 1.54180   50.00000   50.00000   50.00000   90.00000   90.00000   90.00000
LATT -1
SFAC C  
C      1  0.4871730000000  0.5616610000000  0.5224160000000 1.0
C      1  0.4872430000000  0.5526440000000  0.4958420000000 1.0
C      1  0.4644120000000  0.5375980000000  0.4859380000000 1.0
C      1  0.4242450000000  0.4483210000000  0.4591960000000 1.0
C      1  0.4741740000000  0.4321100000000  0.5861550000000 1.0
C      1  0.4546470000000  0.4893260000000  0.4734040000000 1.0
C      1  0.4927090000000  0.4746830000000  0.5615210000000 1.0
C      1  0.5580830000000  0.5264880000000  0.4867080000000 1.0
C      1  0.5217670000000  0.4940750000000  0.5271570000000 1.0
C      1  0.3941690000000  0.4075590000000  0.4451170000000 1.0
C      1  0.4833600000000  0.4532380000000  0.5739550000000 1.0
C      1  0.5025690000000  0.4968780000000  0.5479140000000 1.0
C      1  0.5866140000000  0.5123460000000  0.4494200000000 1.0
C      1  0.5536750000000  0.4822130000000  0.4691850000000 1.0
C      1  0.4090820000000  0.4277710000000  0.4520980000000 1.0
C      1  0.4939040000000  0.5229580000000  0.5540470000000 1.0
C      1  0.5623120000000  0.5204440000000  0.5140090000000 1.0
C      1  0.5323490000000  0.4738610000000  0.4834230000000 1.0
C      1  0.5366430000000  0.5443170000000  0.4802810000000 1.0
C      1  0.4712580000000  0.5099050000000  0.4811530000000 1.0
C      1  0.4892870000000  0.5478250000000  0.5453600000000 1.0
C      1  0.4394050000000  0.4688640000000  0.4662930000000 1.0
C      1  0.5147240000000  0.4888020000000  0.4996870000000 1.0
C      1  0.5103210000000  0.5365100000000  0.4870170000000 1.0
C      1  0.5669690000000  0.5071330000000  0.4675650000000 1.0
C      1  0.5416580000000  0.5681860000000  0.4679290000000 1.0
C      1  0.5475070000000  0.5053570000000  0.5307180000000 1.0
C      1  0.4997390000000  0.5089250000000  0.4864930000000 1.0
END
