TITL C-599897-7526-835 0.0106620933747228 125000 -585.70162018777 0 0 95 (C1) n - 1
REM
REM in /home/nfs/bkarasulu/CARBON/AIRSS/Generating-Clusters/TERSOFF/Only-C1/FIRE-HFTN
REM
REM
REM
REM
REM
REM ./C.cell (11c1c37f851c82e70ff6c80c92926a4b)
REM AIRSS Version 0.9.1 bugfix July 2018 build 013d7b7c2542+ Fri, 06 Jul 2018 19:26:36 +0100
REM compiler GCC version 9.2.1 20190827 (Red Hat 9.2.1-1)
REM options -cpp -mtune=generic -march=x86-64 -g -O0 -fpre-include=/usr/include/finclude/math-vector-fortran.h
REM seed 1812560733 1665963242 1511068902 1167098768 -1658251844 -1771215120 1782532855 -420303874 -659600125 1798786431 -2094083792 -259348563 61431972 1651326035 -1593362912 1862996812 -47618589 -1304169315 -1160101927 -593778241 1671532463 1471516761 -1990715984 1935620298 -1594925375 -61897532 -203785488 -1483928066 960588197 1530240806 537748121 -1524830111 2021785612
REM
CELL 1.54180   50.00000   50.00000   50.00000   90.00000   90.00000   90.00000
LATT -1
SFAC C  
C      1  0.5539180000000  0.5445550000000  0.4356310000000 1.0
C      1  0.4495140000000  0.4765230000000  0.5024830000000 1.0
C      1  0.5169800000000  0.4533700000000  0.4845410000000 1.0
C      1  0.4671780000000  0.5735840000000  0.5248670000000 1.0
C      1  0.4535750000000  0.4197380000000  0.5120410000000 1.0
C      1  0.5600500000000  0.5617660000000  0.4571930000000 1.0
C      1  0.4889720000000  0.5915430000000  0.4756900000000 1.0
C      1  0.4505390000000  0.5775430000000  0.5001050000000 1.0
C      1  0.5668180000000  0.4128800000000  0.4825770000000 1.0
C      1  0.4652960000000  0.5415700000000  0.4333710000000 1.0
C      1  0.5824130000000  0.5134370000000  0.5392560000000 1.0
C      1  0.5176660000000  0.5645750000000  0.4097370000000 1.0
C      1  0.4133560000000  0.5216440000000  0.5345810000000 1.0
C      1  0.4535530000000  0.5184360000000  0.5772700000000 1.0
C      1  0.5627550000000  0.4005820000000  0.4590770000000 1.0
C      1  0.4207140000000  0.4868390000000  0.5032350000000 1.0
C      1  0.4159210000000  0.4451490000000  0.5393360000000 1.0
C      1  0.4102860000000  0.4861550000000  0.4766670000000 1.0
C      1  0.4821540000000  0.5167780000000  0.4311640000000 1.0
C      1  0.4694620000000  0.4890170000000  0.4312800000000 1.0
C      1  0.4917850000000  0.4840490000000  0.5828810000000 1.0
C      1  0.4702690000000  0.4976620000000  0.4955130000000 1.0
C      1  0.5781080000000  0.5209620000000  0.4845740000000 1.0
C      1  0.4408570000000  0.4877210000000  0.4354940000000 1.0
C      1  0.4435950000000  0.5386660000000  0.4787190000000 1.0
C      1  0.4917420000000  0.4379310000000  0.4823900000000 1.0
C      1  0.5366530000000  0.5109940000000  0.5186050000000 1.0
C      1  0.5755770000000  0.5058920000000  0.4593560000000 1.0
C      1  0.4908040000000  0.5384930000000  0.4844240000000 1.0
C      1  0.5667760000000  0.5473170000000  0.4821990000000 1.0
C      1  0.4953680000000  0.5672800000000  0.5940170000000 1.0
C      1  0.5755750000000  0.4589780000000  0.4727420000000 1.0
C      1  0.4965820000000  0.5746320000000  0.5210740000000 1.0
C      1  0.5397790000000  0.4487580000000  0.5017790000000 1.0
C      1  0.5487170000000  0.5578110000000  0.5019530000000 1.0
C      1  0.4202300000000  0.4725410000000  0.5481470000000 1.0
C      1  0.5715130000000  0.5222770000000  0.4360040000000 1.0
C      1  0.5443330000000  0.4747960000000  0.4371810000000 1.0
C      1  0.5410310000000  0.4874250000000  0.5361840000000 1.0
C      1  0.4938070000000  0.4316470000000  0.5938910000000 1.0
C      1  0.4921000000000  0.4977000000000  0.5181920000000 1.0
C      1  0.5114290000000  0.5197160000000  0.4287650000000 1.0
C      1  0.4591530000000  0.5447920000000  0.5680870000000 1.0
C      1  0.4501830000000  0.5559280000000  0.5430670000000 1.0
C      1  0.4963080000000  0.4107340000000  0.5774020000000 1.0
C      1  0.5423920000000  0.4952130000000  0.5633330000000 1.0
C      1  0.4487970000000  0.4604120000000  0.4748500000000 1.0
C      1  0.5552050000000  0.4077480000000  0.4344900000000 1.0
C      1  0.4986150000000  0.4068300000000  0.5509480000000 1.0
C      1  0.4554960000000  0.5557310000000  0.4571420000000 1.0
C      1  0.5478290000000  0.4284490000000  0.4170330000000 1.0
C      1  0.4123580000000  0.4937380000000  0.5295690000000 1.0
C      1  0.4987290000000  0.4247070000000  0.5294060000000 1.0
C      1  0.5664400000000  0.4790750000000  0.4555850000000 1.0
C      1  0.5633950000000  0.4398960000000  0.4894460000000 1.0
C      1  0.5141600000000  0.5551960000000  0.5339090000000 1.0
C      1  0.4922640000000  0.4582340000000  0.5951000000000 1.0
C      1  0.5458740000000  0.5852260000000  0.4650510000000 1.0
C      1  0.4316350000000  0.5542510000000  0.5000690000000 1.0
C      1  0.5133160000000  0.4815080000000  0.4798500000000 1.0
C      1  0.4815340000000  0.4235440000000  0.5060900000000 1.0
C      1  0.4608300000000  0.4678390000000  0.5301700000000 1.0
C      1  0.5348860000000  0.4601970000000  0.5278030000000 1.0
C      1  0.4726520000000  0.4494130000000  0.4632550000000 1.0
C      1  0.4489220000000  0.5618090000000  0.3857210000000 1.0
C      1  0.4863680000000  0.5517890000000  0.5737470000000 1.0
C      1  0.5083060000000  0.4512570000000  0.5346370000000 1.0
C      1  0.5073570000000  0.5866070000000  0.4969910000000 1.0
C      1  0.5855060000000  0.5135660000000  0.5118110000000 1.0
C      1  0.4482640000000  0.4757420000000  0.5550860000000 1.0
C      1  0.4816600000000  0.4621220000000  0.4378720000000 1.0
C      1  0.5496820000000  0.5271360000000  0.6067180000000 1.0
C      1  0.5696910000000  0.5262120000000  0.5882760000000 1.0
C      1  0.4870930000000  0.4884300000000  0.4723430000000 1.0
C      1  0.5357030000000  0.5409910000000  0.5205480000000 1.0
C      1  0.5271130000000  0.5436570000000  0.4246640000000 1.0
C      1  0.4568150000000  0.5523140000000  0.4086690000000 1.0
C      1  0.5277350000000  0.4969080000000  0.4312010000000 1.0
C      1  0.4641340000000  0.4920530000000  0.5734470000000 1.0
C      1  0.4283650000000  0.5443800000000  0.5271650000000 1.0
C      1  0.5549140000000  0.4275300000000  0.3906270000000 1.0
C      1  0.5010140000000  0.5396470000000  0.5527840000000 1.0
C      1  0.5674340000000  0.5113110000000  0.5643000000000 1.0
C      1  0.4290720000000  0.4751490000000  0.4579830000000 1.0
C      1  0.5190010000000  0.4970900000000  0.5820400000000 1.0
C      1  0.4632780000000  0.5798790000000  0.4735460000000 1.0
C      1  0.4907670000000  0.5167530000000  0.5402870000000 1.0
C      1  0.5173540000000  0.4999800000000  0.5013450000000 1.0
C      1  0.5046210000000  0.4509880000000  0.4256570000000 1.0
C      1  0.4667490000000  0.5252730000000  0.4881150000000 1.0
C      1  0.4309010000000  0.4270580000000  0.5252340000000 1.0
C      1  0.5259730000000  0.5139440000000  0.6043200000000 1.0
C      1  0.5345700000000  0.5816620000000  0.4912980000000 1.0
C      1  0.5330360000000  0.4504420000000  0.4271060000000 1.0
C      1  0.4888060000000  0.4707300000000  0.5306180000000 1.0
END
