TITL C-599890-3321-1392 0.00124095974616026 125000 -467.387062209216 0 0 78 (C1) n - 1
REM
REM in /home/nfs/bkarasulu/CARBON/AIRSS/Generating-Clusters/TERSOFF/Only-C1/FIRE-HFTN
REM
REM
REM
REM
REM
REM ./C.cell (11c1c37f851c82e70ff6c80c92926a4b)
REM AIRSS Version 0.9.1 bugfix July 2018 build 013d7b7c2542+ Fri, 06 Jul 2018 19:26:36 +0100
REM compiler GCC version 9.2.1 20190827 (Red Hat 9.2.1-1)
REM options -cpp -mtune=generic -march=x86-64 -g -O0 -fpre-include=/usr/include/finclude/math-vector-fortran.h
REM seed -150614717 -71581790 -1089846625 575685515 1471616499 -1342354000 891132400 1563100594 1495538311 -1883242306 -73442656 -63135795 -1616129534 -951862067 -982787501 -141261953 -484713684 429152730 1502589834 1982693700 731529422 -31508674 536480633 -978687268 -1642331371 -81783145 1539897727 104300113 -1341548064 59071775 -1156876728 2088710538 -2133054450
REM
CELL 1.54180   50.00000   50.00000   50.00000   90.00000   90.00000   90.00000
LATT -1
SFAC C  
C      1  0.5842960000000  0.4489020000000  0.5349130000000 1.0
C      1  0.5165310000000  0.4990600000000  0.5985510000000 1.0
C      1  0.5890830000000  0.4353770000000  0.4767590000000 1.0
C      1  0.5175600000000  0.5260870000000  0.5571690000000 1.0
C      1  0.5213960000000  0.4506050000000  0.5974210000000 1.0
C      1  0.4803890000000  0.5886100000000  0.5767060000000 1.0
C      1  0.5493660000000  0.4948000000000  0.5293350000000 1.0
C      1  0.5074310000000  0.4793390000000  0.4137230000000 1.0
C      1  0.5420350000000  0.4224110000000  0.4777930000000 1.0
C      1  0.5579450000000  0.5865060000000  0.4898230000000 1.0
C      1  0.4147470000000  0.5357390000000  0.4560530000000 1.0
C      1  0.4671690000000  0.6110570000000  0.5774250000000 1.0
C      1  0.4870160000000  0.4158340000000  0.5276110000000 1.0
C      1  0.4725690000000  0.5044740000000  0.4587390000000 1.0
C      1  0.4480760000000  0.5170650000000  0.5029970000000 1.0
C      1  0.5741810000000  0.5087480000000  0.5259010000000 1.0
C      1  0.4944000000000  0.5648390000000  0.5745500000000 1.0
C      1  0.4036650000000  0.5116100000000  0.5330120000000 1.0
C      1  0.5636420000000  0.4474950000000  0.5155800000000 1.0
C      1  0.5025650000000  0.5482400000000  0.5961930000000 1.0
C      1  0.4736940000000  0.5695160000000  0.5115850000000 1.0
C      1  0.5135680000000  0.4773390000000  0.5566390000000 1.0
C      1  0.5653360000000  0.5621530000000  0.4818410000000 1.0
C      1  0.5953390000000  0.4967340000000  0.5406340000000 1.0
C      1  0.4090690000000  0.5516240000000  0.4793870000000 1.0
C      1  0.4611940000000  0.5763030000000  0.4639280000000 1.0
C      1  0.4963270000000  0.4620820000000  0.5397630000000 1.0
C      1  0.5426750000000  0.4771070000000  0.4853540000000 1.0
C      1  0.5328340000000  0.5257740000000  0.4793580000000 1.0
C      1  0.4705340000000  0.4790520000000  0.4446900000000 1.0
C      1  0.5347070000000  0.5213600000000  0.4283410000000 1.0
C      1  0.4541960000000  0.5725670000000  0.4913130000000 1.0
C      1  0.5486510000000  0.4717390000000  0.5120230000000 1.0
C      1  0.4951250000000  0.4128550000000  0.4774160000000 1.0
C      1  0.4177420000000  0.4650710000000  0.4798000000000 1.0
C      1  0.4493860000000  0.5678040000000  0.4410460000000 1.0
C      1  0.4721130000000  0.5188550000000  0.5167480000000 1.0
C      1  0.4504920000000  0.5122620000000  0.4751320000000 1.0
C      1  0.4384430000000  0.4522620000000  0.4953470000000 1.0
C      1  0.4238310000000  0.4811410000000  0.4568740000000 1.0
C      1  0.6043150000000  0.4564550000000  0.4702080000000 1.0
C      1  0.5784550000000  0.5186870000000  0.4991630000000 1.0
C      1  0.4252360000000  0.5097310000000  0.4611420000000 1.0
C      1  0.4327200000000  0.4270130000000  0.5047690000000 1.0
C      1  0.5983640000000  0.4700080000000  0.5444390000000 1.0
C      1  0.5980170000000  0.5056990000000  0.4835430000000 1.0
C      1  0.5590560000000  0.5351750000000  0.4861050000000 1.0
C      1  0.6071200000000  0.4828790000000  0.4730770000000 1.0
C      1  0.4437540000000  0.4705140000000  0.4389650000000 1.0
C      1  0.4864290000000  0.4743000000000  0.5157160000000 1.0
C      1  0.5652930000000  0.4312740000000  0.4915400000000 1.0
C      1  0.5561520000000  0.5361670000000  0.4203010000000 1.0
C      1  0.5158180000000  0.5140400000000  0.4988720000000 1.0
C      1  0.5213480000000  0.5259480000000  0.4531360000000 1.0
C      1  0.4636210000000  0.4635620000000  0.5022570000000 1.0
C      1  0.3660270000000  0.4601780000000  0.4946360000000 1.0
C      1  0.4264940000000  0.5661560000000  0.4945790000000 1.0
C      1  0.3909720000000  0.4620360000000  0.4873290000000 1.0
C      1  0.4933820000000  0.5221770000000  0.4529470000000 1.0
C      1  0.4935220000000  0.5017570000000  0.5109100000000 1.0
C      1  0.4741880000000  0.4318930000000  0.5709290000000 1.0
C      1  0.5161620000000  0.4274550000000  0.4661350000000 1.0
C      1  0.5033380000000  0.5520250000000  0.5494630000000 1.0
C      1  0.4944690000000  0.4661360000000  0.4354570000000 1.0
C      1  0.5164070000000  0.4742650000000  0.5849200000000 1.0
C      1  0.4285890000000  0.5509840000000  0.4361550000000 1.0
C      1  0.5328170000000  0.4707320000000  0.4617970000000 1.0
C      1  0.4242060000000  0.5149350000000  0.5173160000000 1.0
C      1  0.4374280000000  0.4539530000000  0.4182410000000 1.0
C      1  0.4865100000000  0.4362260000000  0.5468860000000 1.0
C      1  0.4871300000000  0.4074570000000  0.5023380000000 1.0
C      1  0.5273030000000  0.5010000000000  0.5461600000000 1.0
C      1  0.5128470000000  0.4528850000000  0.4531470000000 1.0
C      1  0.5148620000000  0.5244830000000  0.5869020000000 1.0
C      1  0.5240200000000  0.5005300000000  0.4123690000000 1.0
C      1  0.5175490000000  0.5870640000000  0.5191500000000 1.0
C      1  0.4981910000000  0.5678560000000  0.5259850000000 1.0
C      1  0.5385730000000  0.5959660000000  0.5055440000000 1.0
END
