TITL C-599897-7526-205 -0.00021525610911383 125000 -605.980570149786 0 0 100 (C1) n - 1
REM
REM in /home/nfs/bkarasulu/CARBON/AIRSS/Generating-Clusters/TERSOFF/Only-C1/FIRE-HFTN
REM
REM
REM
REM
REM
REM ./C.cell (11c1c37f851c82e70ff6c80c92926a4b)
REM AIRSS Version 0.9.1 bugfix July 2018 build 013d7b7c2542+ Fri, 06 Jul 2018 19:26:36 +0100
REM compiler GCC version 9.2.1 20190827 (Red Hat 9.2.1-1)
REM options -cpp -mtune=generic -march=x86-64 -g -O0 -fpre-include=/usr/include/finclude/math-vector-fortran.h
REM seed 978662729 2123994443 716236663 -2136388302 -1272913459 -1093317547 319157028 1044749719 -318528986 -1570433790 -1049751609 517963804 -278849903 822232312 1219999996 -325600384 157085846 1266192488 -1940710705 1851232259 -842275046 -1580658512 596954556 -1010671554 1213906049 782643775 -1423408006 -1555350331 -1770889821 1762751326 13021860 1572285912 788847715
REM
CELL 1.54180   50.00000   50.00000   50.00000   90.00000   90.00000   90.00000
LATT -1
SFAC C  
C      1  0.5145940000000  0.5138410000000  0.5066490000000 1.0
C      1  0.4782710000000  0.5159080000000  0.4759670000000 1.0
C      1  0.4215050000000  0.5230860000000  0.4347380000000 1.0
C      1  0.5213610000000  0.4995790000000  0.4424260000000 1.0
C      1  0.5171810000000  0.4606030000000  0.4063240000000 1.0
C      1  0.4864980000000  0.4286970000000  0.4350580000000 1.0
C      1  0.4712070000000  0.4249050000000  0.5565390000000 1.0
C      1  0.4888560000000  0.5805370000000  0.5481750000000 1.0
C      1  0.5792370000000  0.5311210000000  0.4426520000000 1.0
C      1  0.4492850000000  0.5552360000000  0.4724440000000 1.0
C      1  0.5788170000000  0.5117530000000  0.5373630000000 1.0
C      1  0.5470610000000  0.6088120000000  0.4917340000000 1.0
C      1  0.3846930000000  0.5041250000000  0.4951750000000 1.0
C      1  0.5128510000000  0.5406590000000  0.5631740000000 1.0
C      1  0.4099610000000  0.5464960000000  0.4958630000000 1.0
C      1  0.4983030000000  0.4908770000000  0.6010740000000 1.0
C      1  0.5021790000000  0.5190890000000  0.6045440000000 1.0
C      1  0.5133190000000  0.5679560000000  0.5550880000000 1.0
C      1  0.4496710000000  0.5248820000000  0.4340540000000 1.0
C      1  0.4372000000000  0.4080090000000  0.5028630000000 1.0
C      1  0.5156960000000  0.5131860000000  0.4176030000000 1.0
C      1  0.5602580000000  0.5319470000000  0.4235310000000 1.0
C      1  0.5002950000000  0.4151740000000  0.4540750000000 1.0
C      1  0.4624500000000  0.4637890000000  0.5842050000000 1.0
C      1  0.4626500000000  0.4146230000000  0.5100950000000 1.0
C      1  0.5429170000000  0.4674760000000  0.5991530000000 1.0
C      1  0.4903330000000  0.5006130000000  0.4091680000000 1.0
C      1  0.5015000000000  0.5041060000000  0.4610640000000 1.0
C      1  0.5605780000000  0.4802910000000  0.4639780000000 1.0
C      1  0.4653700000000  0.3992920000000  0.5653820000000 1.0
C      1  0.4566920000000  0.4641440000000  0.4486630000000 1.0
C      1  0.4729460000000  0.5128590000000  0.5679060000000 1.0
C      1  0.4762330000000  0.5094220000000  0.5372600000000 1.0
C      1  0.5503270000000  0.5908470000000  0.4473040000000 1.0
C      1  0.5331310000000  0.5355990000000  0.4145580000000 1.0
C      1  0.5526120000000  0.4902090000000  0.4897170000000 1.0
C      1  0.5079420000000  0.5009660000000  0.5337970000000 1.0
C      1  0.4950200000000  0.4594020000000  0.4781250000000 1.0
C      1  0.4365410000000  0.5562310000000  0.4977700000000 1.0
C      1  0.5625840000000  0.4455250000000  0.4142900000000 1.0
C      1  0.5442240000000  0.5876470000000  0.4746110000000 1.0
C      1  0.5412440000000  0.5159260000000  0.4963330000000 1.0
C      1  0.4289300000000  0.4688030000000  0.4484560000000 1.0
C      1  0.5066240000000  0.4688760000000  0.5362410000000 1.0
C      1  0.6190220000000  0.4662640000000  0.4990610000000 1.0
C      1  0.5172180000000  0.4728620000000  0.5887840000000 1.0
C      1  0.5501490000000  0.5435160000000  0.4967400000000 1.0
C      1  0.4923520000000  0.5319310000000  0.5805910000000 1.0
C      1  0.5267530000000  0.5180250000000  0.5514000000000 1.0
C      1  0.4603350000000  0.5327960000000  0.4591850000000 1.0
C      1  0.5482150000000  0.4695220000000  0.5088710000000 1.0
C      1  0.4696220000000  0.4697190000000  0.4734360000000 1.0
C      1  0.4067150000000  0.5130510000000  0.4564210000000 1.0
C      1  0.4911200000000  0.4713340000000  0.4112860000000 1.0
C      1  0.5548490000000  0.5140020000000  0.5495710000000 1.0
C      1  0.5596350000000  0.4881050000000  0.6058560000000 1.0
C      1  0.4648870000000  0.5776160000000  0.5358730000000 1.0
C      1  0.5980820000000  0.5086950000000  0.5166110000000 1.0
C      1  0.4681810000000  0.4341650000000  0.5298100000000 1.0
C      1  0.5851890000000  0.4668140000000  0.4624200000000 1.0
C      1  0.5660630000000  0.5555430000000  0.5167470000000 1.0
C      1  0.4748430000000  0.4542560000000  0.4285110000000 1.0
C      1  0.4095970000000  0.4841990000000  0.4619490000000 1.0
C      1  0.5423280000000  0.5824490000000  0.4230540000000 1.0
C      1  0.5046370000000  0.4158570000000  0.4824240000000 1.0
C      1  0.5061660000000  0.4588640000000  0.5658610000000 1.0
C      1  0.4809580000000  0.4453790000000  0.5729110000000 1.0
C      1  0.4322690000000  0.4831140000000  0.5277110000000 1.0
C      1  0.4852160000000  0.4026280000000  0.4980130000000 1.0
C      1  0.4610160000000  0.4869840000000  0.5202020000000 1.0
C      1  0.4663670000000  0.5147580000000  0.4138690000000 1.0
C      1  0.5055160000000  0.5568890000000  0.4815370000000 1.0
C      1  0.5419470000000  0.4801550000000  0.4427050000000 1.0
C      1  0.4738160000000  0.5346880000000  0.5196760000000 1.0
C      1  0.5921420000000  0.5288880000000  0.4661860000000 1.0
C      1  0.5607060000000  0.5722790000000  0.5370630000000 1.0
C      1  0.4598210000000  0.3749850000000  0.5729640000000 1.0
C      1  0.5245130000000  0.4553350000000  0.5151740000000 1.0
C      1  0.4083650000000  0.5066050000000  0.5703630000000 1.0
C      1  0.3965080000000  0.5264690000000  0.4809600000000 1.0
C      1  0.4987490000000  0.5662680000000  0.4312790000000 1.0
C      1  0.6069830000000  0.4594980000000  0.4760710000000 1.0
C      1  0.5508630000000  0.4414870000000  0.6026710000000 1.0
C      1  0.4642810000000  0.4926840000000  0.4898580000000 1.0
C      1  0.4551630000000  0.5563880000000  0.5198790000000 1.0
C      1  0.5116790000000  0.4420330000000  0.4928500000000 1.0
C      1  0.4152090000000  0.4698730000000  0.5094660000000 1.0
C      1  0.5334120000000  0.5626940000000  0.4837680000000 1.0
C      1  0.3966340000000  0.5192890000000  0.5898820000000 1.0
C      1  0.4718620000000  0.4901040000000  0.5868570000000 1.0
C      1  0.3989980000000  0.4796290000000  0.4888650000000 1.0
C      1  0.5978670000000  0.5231480000000  0.4919090000000 1.0
C      1  0.6149840000000  0.4860520000000  0.5167760000000 1.0
C      1  0.5414450000000  0.4614020000000  0.4209910000000 1.0
C      1  0.4933960000000  0.5333040000000  0.4963920000000 1.0
C      1  0.4770730000000  0.4615690000000  0.5265660000000 1.0
C      1  0.5231940000000  0.5622720000000  0.4176460000000 1.0
C      1  0.5386200000000  0.5792030000000  0.5505960000000 1.0
C      1  0.4938010000000  0.5669650000000  0.4577490000000 1.0
C      1  0.4215140000000  0.4942740000000  0.5509440000000 1.0
END
