TITL C-599894-471-430 4.5074645923686e-05 125000 -453.632164252666 0 0 76 (C1) n - 1
REM
REM in /home/nfs/bkarasulu/CARBON/AIRSS/Generating-Clusters/TERSOFF/Only-C1/FIRE-HFTN
REM
REM
REM
REM
REM
REM ./C.cell (11c1c37f851c82e70ff6c80c92926a4b)
REM AIRSS Version 0.9.1 bugfix July 2018 build 013d7b7c2542+ Fri, 06 Jul 2018 19:26:36 +0100
REM compiler GCC version 9.2.1 20190827 (Red Hat 9.2.1-1)
REM options -cpp -mtune=generic -march=x86-64 -g -O0 -fpre-include=/usr/include/finclude/math-vector-fortran.h
REM seed 9871801 326342667 -710898765 -1867213876 1204720346 -1005605079 -1380733338 -764996321 333290546 -567794541 -151806210 595446798 -421482702 -1597337592 1816905270 595566120 -221193715 817265773 1330362680 -83155368 1894099019 -1999776644 2033451644 338390665 2084254793 -889266893 533022224 380282759 -799705095 469794305 1960396478 -944927559 -1171653447
REM
CELL 1.54180   50.00000   50.00000   50.00000   90.00000   90.00000   90.00000
LATT -1
SFAC C  
C      1  0.4785110000000  0.5444510000000  0.4562960000000 1.0
C      1  0.4937170000000  0.4316210000000  0.4591780000000 1.0
C      1  0.5089390000000  0.4755710000000  0.5584390000000 1.0
C      1  0.4232170000000  0.4843820000000  0.5004980000000 1.0
C      1  0.5176780000000  0.4915260000000  0.4356400000000 1.0
C      1  0.4043120000000  0.4935540000000  0.5453320000000 1.0
C      1  0.5812800000000  0.4673050000000  0.5158300000000 1.0
C      1  0.4027500000000  0.4849580000000  0.5199720000000 1.0
C      1  0.5218480000000  0.5657820000000  0.5661240000000 1.0
C      1  0.4633290000000  0.5742200000000  0.5200530000000 1.0
C      1  0.5648670000000  0.5142710000000  0.3891230000000 1.0
C      1  0.4885860000000  0.5198740000000  0.4630120000000 1.0
C      1  0.5701370000000  0.5040570000000  0.4580570000000 1.0
C      1  0.5256590000000  0.4642370000000  0.4409280000000 1.0
C      1  0.4870170000000  0.5834560000000  0.5331090000000 1.0
C      1  0.4804840000000  0.4331810000000  0.5108890000000 1.0
C      1  0.4867550000000  0.5271960000000  0.6051680000000 1.0
C      1  0.5469160000000  0.4980680000000  0.5734350000000 1.0
C      1  0.4945040000000  0.5331950000000  0.3789990000000 1.0
C      1  0.4763890000000  0.5514620000000  0.5997780000000 1.0
C      1  0.5245110000000  0.5235260000000  0.4987060000000 1.0
C      1  0.4942970000000  0.5729940000000  0.5592560000000 1.0
C      1  0.4986050000000  0.5150330000000  0.4887620000000 1.0
C      1  0.5019170000000  0.4335790000000  0.4115530000000 1.0
C      1  0.4254200000000  0.5052290000000  0.5568500000000 1.0
C      1  0.5544920000000  0.5220550000000  0.5583480000000 1.0
C      1  0.5005470000000  0.4340430000000  0.5332150000000 1.0
C      1  0.5066670000000  0.4430290000000  0.4367940000000 1.0
C      1  0.5365590000000  0.4383610000000  0.5016650000000 1.0
C      1  0.4662750000000  0.4672020000000  0.5398700000000 1.0
C      1  0.5522550000000  0.5237700000000  0.4482140000000 1.0
C      1  0.5510580000000  0.5172800000000  0.5068290000000 1.0
C      1  0.4376680000000  0.4596560000000  0.4983900000000 1.0
C      1  0.4200220000000  0.5104750000000  0.4600740000000 1.0
C      1  0.5405530000000  0.5196630000000  0.4004830000000 1.0
C      1  0.5293770000000  0.5047410000000  0.5953490000000 1.0
C      1  0.4536590000000  0.4697040000000  0.4348370000000 1.0
C      1  0.5097910000000  0.4775310000000  0.5083500000000 1.0
C      1  0.5456750000000  0.4338140000000  0.4746380000000 1.0
C      1  0.5021680000000  0.5112000000000  0.5882570000000 1.0
C      1  0.4970480000000  0.5042050000000  0.5578510000000 1.0
C      1  0.4730430000000  0.5594020000000  0.5729840000000 1.0
C      1  0.5746240000000  0.4529100000000  0.5379590000000 1.0
C      1  0.5086710000000  0.5897960000000  0.5158400000000 1.0
C      1  0.4888260000000  0.4970300000000  0.5089540000000 1.0
C      1  0.4380500000000  0.5324340000000  0.4986540000000 1.0
C      1  0.5625700000000  0.4758150000000  0.4964040000000 1.0
C      1  0.5489450000000  0.4570660000000  0.4564180000000 1.0
C      1  0.4911850000000  0.4998840000000  0.4427890000000 1.0
C      1  0.5372220000000  0.4731760000000  0.5608710000000 1.0
C      1  0.5427590000000  0.5478680000000  0.5660970000000 1.0
C      1  0.4908150000000  0.4552390000000  0.5508120000000 1.0
C      1  0.5294970000000  0.4331710000000  0.5294600000000 1.0
C      1  0.5202960000000  0.5316690000000  0.3853750000000 1.0
C      1  0.5376750000000  0.5654060000000  0.4806600000000 1.0
C      1  0.5655410000000  0.4782080000000  0.4681680000000 1.0
C      1  0.4281320000000  0.5088490000000  0.4862630000000 1.0
C      1  0.4284620000000  0.4408120000000  0.4798140000000 1.0
C      1  0.4564890000000  0.5419860000000  0.5580400000000 1.0
C      1  0.5356120000000  0.5126720000000  0.4275790000000 1.0
C      1  0.4861940000000  0.4262030000000  0.4842500000000 1.0
C      1  0.5478040000000  0.4496240000000  0.5474870000000 1.0
C      1  0.5170980000000  0.5432110000000  0.5188330000000 1.0
C      1  0.4614990000000  0.5066820000000  0.4052410000000 1.0
C      1  0.4182930000000  0.4222420000000  0.4646140000000 1.0
C      1  0.4585460000000  0.4523450000000  0.5162780000000 1.0
C      1  0.5352460000000  0.4680320000000  0.5023430000000 1.0
C      1  0.5626290000000  0.5190070000000  0.5313140000000 1.0
C      1  0.5234530000000  0.5683340000000  0.5054810000000 1.0
C      1  0.4720960000000  0.4976790000000  0.5380490000000 1.0
C      1  0.5471140000000  0.5487460000000  0.4612360000000 1.0
C      1  0.4484590000000  0.5556190000000  0.5074600000000 1.0
C      1  0.4505240000000  0.5156640000000  0.5497250000000 1.0
C      1  0.4683520000000  0.4916140000000  0.4278860000000 1.0
C      1  0.5078220000000  0.5290840000000  0.5420210000000 1.0
C      1  0.4709970000000  0.5230620000000  0.3864920000000 1.0
END
