TITL C-599896-8500-1437 0.770390025779796 125000 -426.10903765452 0 0 70 (C1) n - 1
REM
REM in /home/nfs/bkarasulu/CARBON/AIRSS/Generating-Clusters/TERSOFF/Only-C1/FIRE-HFTN
REM
REM
REM
REM
REM
REM ./C.cell (11c1c37f851c82e70ff6c80c92926a4b)
REM AIRSS Version 0.9.1 bugfix July 2018 build 013d7b7c2542+ Fri, 06 Jul 2018 19:26:36 +0100
REM compiler GCC version 9.2.1 20190827 (Red Hat 9.2.1-1)
REM options -cpp -mtune=generic -march=x86-64 -g -O0 -fpre-include=/usr/include/finclude/math-vector-fortran.h
REM seed -348942817 794586879 -109566747 -1551793940 -1987073607 -597762426 -1478801762 -1345875350 1905089821 511794732 -1339520416 2121712615 -87154881 1058565203 -415997445 102840206 348957482 1003888380 505039085 1198916388 1826014331 -286911981 1706915759 -893939268 -1281691128 1501898335 -1435519233 1049323176 -324716695 1770516563 -1572251914 -1941542549 807209612
REM
CELL 1.54180   50.00000   50.00000   50.00000   90.00000   90.00000   90.00000
LATT -1
SFAC C  
C      1  0.5785700000000  0.4434270000000  0.4762700000000 1.0
C      1  0.5230720000000  0.5322410000000  0.4620770000000 1.0
C      1  0.4929090000000  0.3911370000000  0.5169020000000 1.0
C      1  0.5361580000000  0.4781600000000  0.4267670000000 1.0
C      1  0.4582920000000  0.5361160000000  0.4436630000000 1.0
C      1  0.5544400000000  0.4401990000000  0.4582800000000 1.0
C      1  0.6180910000000  0.6213430000000  0.5611550000000 1.0
C      1  0.5697570000000  0.5810360000000  0.4550670000000 1.0
C      1  0.4648480000000  0.5483660000000  0.5288150000000 1.0
C      1  0.5603840000000  0.4835060000000  0.4687330000000 1.0
C      1  0.4722840000000  0.5247470000000  0.5816830000000 1.0
C      1  0.4732120000000  0.4064650000000  0.5302330000000 1.0
C      1  0.5248000000000  0.5570520000000  0.4479540000000 1.0
C      1  0.4143200000000  0.5081200000000  0.4727880000000 1.0
C      1  0.4256180000000  0.4615190000000  0.5063660000000 1.0
C      1  0.4760290000000  0.4738150000000  0.4584820000000 1.0
C      1  0.4360320000000  0.5517260000000  0.4823700000000 1.0
C      1  0.4302750000000  0.4861600000000  0.5195990000000 1.0
C      1  0.4485910000000  0.4719090000000  0.4648410000000 1.0
C      1  0.5313890000000  0.5806530000000  0.5471670000000 1.0
C      1  0.5015640000000  0.5509320000000  0.4979190000000 1.0
C      1  0.5896120000000  0.4920000000000  0.5030570000000 1.0
C      1  0.4035530000000  0.4466880000000  0.5131250000000 1.0
C      1  0.4518700000000  0.4131430000000  0.5124360000000 1.0
C      1  0.4462880000000  0.5124510000000  0.4382920000000 1.0
C      1  0.5168920000000  0.4966130000000  0.4305790000000 1.0
C      1  0.4856670000000  0.5616310000000  0.4753700000000 1.0
C      1  0.4914850000000  0.4932020000000  0.4729390000000 1.0
C      1  0.5027900000000  0.4042080000000  0.4941770000000 1.0
C      1  0.4831070000000  0.4176800000000  0.4757070000000 1.0
C      1  0.4576730000000  0.4272380000000  0.4878630000000 1.0
C      1  0.5794750000000  0.5991390000000  0.5306400000000 1.0
C      1  0.5554810000000  0.5907450000000  0.5423860000000 1.0
C      1  0.4428440000000  0.4524780000000  0.4849890000000 1.0
C      1  0.5251170000000  0.4231150000000  0.4943240000000 1.0
C      1  0.4401840000000  0.4729220000000  0.5837290000000 1.0
C      1  0.5833680000000  0.4716010000000  0.4833300000000 1.0
C      1  0.4600490000000  0.5519550000000  0.4673900000000 1.0
C      1  0.5235290000000  0.4731950000000  0.4999030000000 1.0
C      1  0.4626710000000  0.4654920000000  0.5691650000000 1.0
C      1  0.4894770000000  0.4534580000000  0.4444760000000 1.0
C      1  0.4332440000000  0.4946170000000  0.4565090000000 1.0
C      1  0.4336000000000  0.5104090000000  0.5305430000000 1.0
C      1  0.5461880000000  0.5171770000000  0.5007310000000 1.0
C      1  0.5293790000000  0.4290310000000  0.4657480000000 1.0
C      1  0.4790950000000  0.4840620000000  0.5542380000000 1.0
C      1  0.5810510000000  0.5903340000000  0.4772800000000 1.0
C      1  0.5418530000000  0.4909460000000  0.4887890000000 1.0
C      1  0.5010390000000  0.4308130000000  0.4562300000000 1.0
C      1  0.4492980000000  0.5340240000000  0.5706870000000 1.0
C      1  0.4879590000000  0.4754900000000  0.5283230000000 1.0
C      1  0.5521900000000  0.4670360000000  0.4465890000000 1.0
C      1  0.4876670000000  0.5061730000000  0.5694260000000 1.0
C      1  0.4967870000000  0.4857450000000  0.5014330000000 1.0
C      1  0.4163510000000  0.5331170000000  0.4831300000000 1.0
C      1  0.5494830000000  0.5688700000000  0.4427480000000 1.0
C      1  0.4914460000000  0.5556170000000  0.5238010000000 1.0
C      1  0.4181440000000  0.4784340000000  0.5964970000000 1.0
C      1  0.5217210000000  0.4461560000000  0.5109220000000 1.0
C      1  0.4707700000000  0.4386770000000  0.5670840000000 1.0
C      1  0.5738660000000  0.5142560000000  0.5096610000000 1.0
C      1  0.5018940000000  0.5725550000000  0.4544260000000 1.0
C      1  0.5086120000000  0.5089480000000  0.4547620000000 1.0
C      1  0.4839040000000  0.4285840000000  0.5445160000000 1.0
C      1  0.4995120000000  0.4477730000000  0.5297940000000 1.0
C      1  0.5834850000000  0.5960310000000  0.5031020000000 1.0
C      1  0.4458430000000  0.5328500000000  0.5425420000000 1.0
C      1  0.5260730000000  0.5355950000000  0.4910850000000 1.0
C      1  0.5994510000000  0.6106260000000  0.5464260000000 1.0
C      1  0.5083290000000  0.5684700000000  0.5419670000000 1.0
END
