TITL C-599896-8500-344 0.295568839735858 125000 -725.468972077518 0 0 119 (C1) n - 1
REM
REM in /home/nfs/bkarasulu/CARBON/AIRSS/Generating-Clusters/TERSOFF/Only-C1/FIRE-HFTN
REM
REM
REM
REM
REM
REM ./C.cell (11c1c37f851c82e70ff6c80c92926a4b)
REM AIRSS Version 0.9.1 bugfix July 2018 build 013d7b7c2542+ Fri, 06 Jul 2018 19:26:36 +0100
REM compiler GCC version 9.2.1 20190827 (Red Hat 9.2.1-1)
REM options -cpp -mtune=generic -march=x86-64 -g -O0 -fpre-include=/usr/include/finclude/math-vector-fortran.h
REM seed 780287760 -1417716501 -1751423624 -1647749213 157552955 -1430133576 -915242635 354590557 -1442597847 724935925 -759473451 -1560109155 688542893 -1543659356 1084012230 -2115355035 1502428454 -1981003628 -1730589555 162945548 1384951145 -97026872 1757184352 -1975801427 -1680261766 196095667 669952035 154954324 1441609201 -1002537307 -1061255484 435666131 1081533662
REM
CELL 1.54180   50.00000   50.00000   50.00000   90.00000   90.00000   90.00000
LATT -1
SFAC C  
C      1  0.4927660000000  0.6127230000000  0.5264690000000 1.0
C      1  0.5179200000000  0.4532950000000  0.5360020000000 1.0
C      1  0.5278310000000  0.4428600000000  0.4650520000000 1.0
C      1  0.4584020000000  0.5621410000000  0.5528810000000 1.0
C      1  0.4635380000000  0.4857040000000  0.5985510000000 1.0
C      1  0.5669340000000  0.4975270000000  0.5497780000000 1.0
C      1  0.4438400000000  0.5024320000000  0.5318570000000 1.0
C      1  0.4134650000000  0.4521650000000  0.4685790000000 1.0
C      1  0.5860420000000  0.5105680000000  0.4823460000000 1.0
C      1  0.4989170000000  0.4560550000000  0.5823490000000 1.0
C      1  0.5066770000000  0.4331200000000  0.3905710000000 1.0
C      1  0.5161020000000  0.4913830000000  0.4243020000000 1.0
C      1  0.5097330000000  0.5275490000000  0.5274590000000 1.0
C      1  0.4710500000000  0.5136950000000  0.6062180000000 1.0
C      1  0.4729300000000  0.4032820000000  0.5396010000000 1.0
C      1  0.5083110000000  0.5903080000000  0.5282010000000 1.0
C      1  0.5026100000000  0.5610770000000  0.5709950000000 1.0
C      1  0.3916700000000  0.4976780000000  0.4446900000000 1.0
C      1  0.5038560000000  0.4832690000000  0.6232590000000 1.0
C      1  0.5619210000000  0.4840810000000  0.4107400000000 1.0
C      1  0.4897270000000  0.3932510000000  0.5568180000000 1.0
C      1  0.4090430000000  0.5199180000000  0.4444190000000 1.0
C      1  0.5391210000000  0.4625180000000  0.4866970000000 1.0
C      1  0.5148390000000  0.4577160000000  0.5082120000000 1.0
C      1  0.4869540000000  0.4686380000000  0.6048560000000 1.0
C      1  0.4755500000000  0.5101120000000  0.4772970000000 1.0
C      1  0.3999320000000  0.4852950000000  0.5159310000000 1.0
C      1  0.3984370000000  0.4737130000000  0.4579590000000 1.0
C      1  0.4917990000000  0.3378820000000  0.3728480000000 1.0
C      1  0.5134660000000  0.5343410000000  0.5747100000000 1.0
C      1  0.5207640000000  0.4732680000000  0.6425900000000 1.0
C      1  0.5318140000000  0.5431790000000  0.4421660000000 1.0
C      1  0.5047380000000  0.5835560000000  0.4510880000000 1.0
C      1  0.5585530000000  0.5532040000000  0.4822790000000 1.0
C      1  0.4649660000000  0.5393420000000  0.5953240000000 1.0
C      1  0.4627070000000  0.4949430000000  0.5522380000000 1.0
C      1  0.4015750000000  0.4288790000000  0.4762950000000 1.0
C      1  0.5758710000000  0.5376630000000  0.4247810000000 1.0
C      1  0.4987880000000  0.5108470000000  0.6163990000000 1.0
C      1  0.5487410000000  0.5292050000000  0.4237990000000 1.0
C      1  0.5994470000000  0.5449090000000  0.5459740000000 1.0
C      1  0.4985730000000  0.3609700000000  0.3828840000000 1.0
C      1  0.5680170000000  0.4618300000000  0.4934160000000 1.0
C      1  0.4491870000000  0.4384640000000  0.5157720000000 1.0
C      1  0.3744360000000  0.4899050000000  0.5130420000000 1.0
C      1  0.5031800000000  0.4668830000000  0.5562850000000 1.0
C      1  0.5862600000000  0.4846040000000  0.4943730000000 1.0
C      1  0.5024930000000  0.4594210000000  0.3902880000000 1.0
C      1  0.5579350000000  0.5184210000000  0.5320410000000 1.0
C      1  0.4917440000000  0.5545900000000  0.4163230000000 1.0
C      1  0.4417470000000  0.4562760000000  0.4691550000000 1.0
C      1  0.4260280000000  0.4811830000000  0.5245380000000 1.0
C      1  0.4623360000000  0.5184240000000  0.4071690000000 1.0
C      1  0.5910530000000  0.4848360000000  0.5422620000000 1.0
C      1  0.5589870000000  0.5666160000000  0.5298170000000 1.0
C      1  0.4912990000000  0.4929360000000  0.5526780000000 1.0
C      1  0.5174850000000  0.5254780000000  0.6011690000000 1.0
C      1  0.5733930000000  0.5428260000000  0.5346040000000 1.0
C      1  0.5263780000000  0.4109260000000  0.4282810000000 1.0
C      1  0.5308280000000  0.4896710000000  0.4734690000000 1.0
C      1  0.4969930000000  0.4828000000000  0.4048260000000 1.0
C      1  0.5415610000000  0.5025580000000  0.4168140000000 1.0
C      1  0.5408220000000  0.4286300000000  0.4445890000000 1.0
C      1  0.6215600000000  0.5479300000000  0.5302270000000 1.0
C      1  0.4253180000000  0.5409830000000  0.4528690000000 1.0
C      1  0.4499360000000  0.4757950000000  0.4500650000000 1.0
C      1  0.4880810000000  0.5447650000000  0.5181830000000 1.0
C      1  0.4351580000000  0.4555510000000  0.5340530000000 1.0
C      1  0.3675790000000  0.4994100000000  0.4317460000000 1.0
C      1  0.5340550000000  0.5187520000000  0.5147280000000 1.0
C      1  0.4496290000000  0.5533850000000  0.4412420000000 1.0
C      1  0.5622950000000  0.4290770000000  0.5308420000000 1.0
C      1  0.4534210000000  0.4735240000000  0.4223740000000 1.0
C      1  0.5185270000000  0.5761430000000  0.5041110000000 1.0
C      1  0.5017840000000  0.4569980000000  0.4612580000000 1.0
C      1  0.4883910000000  0.4608080000000  0.4899620000000 1.0
C      1  0.5715960000000  0.4605870000000  0.4190080000000 1.0
C      1  0.5644720000000  0.4394390000000  0.4337450000000 1.0
C      1  0.4598790000000  0.4489160000000  0.4909950000000 1.0
C      1  0.5906840000000  0.5315660000000  0.5952860000000 1.0
C      1  0.4229130000000  0.5371350000000  0.5026710000000 1.0
C      1  0.4418380000000  0.5286400000000  0.5216040000000 1.0
C      1  0.4577450000000  0.5744140000000  0.4612690000000 1.0
C      1  0.6022610000000  0.4832050000000  0.5178600000000 1.0
C      1  0.4739200000000  0.5590810000000  0.5762120000000 1.0
C      1  0.4699060000000  0.4912680000000  0.4076010000000 1.0
C      1  0.5455800000000  0.5775860000000  0.5523470000000 1.0
C      1  0.5391640000000  0.4358630000000  0.5428200000000 1.0
C      1  0.4620620000000  0.5469660000000  0.5294480000000 1.0
C      1  0.5064300000000  0.5166550000000  0.5532590000000 1.0
C      1  0.5054580000000  0.3844340000000  0.3930820000000 1.0
C      1  0.5377950000000  0.5375280000000  0.4695670000000 1.0
C      1  0.5124150000000  0.5623000000000  0.4338050000000 1.0
C      1  0.5747780000000  0.4389960000000  0.5090790000000 1.0
C      1  0.4557060000000  0.5013670000000  0.4601690000000 1.0
C      1  0.5473590000000  0.5693180000000  0.5035410000000 1.0
C      1  0.4904110000000  0.5334700000000  0.4748330000000 1.0
C      1  0.5609520000000  0.4976740000000  0.5772900000000 1.0
C      1  0.5828710000000  0.5381630000000  0.4740090000000 1.0
C      1  0.4386730000000  0.4562310000000  0.5627300000000 1.0
C      1  0.4219020000000  0.5526480000000  0.4793880000000 1.0
C      1  0.5333630000000  0.5144630000000  0.4860420000000 1.0
C      1  0.4830650000000  0.4902110000000  0.4953330000000 1.0
C      1  0.4950070000000  0.5585360000000  0.4918400000000 1.0
C      1  0.6014780000000  0.5439400000000  0.5740700000000 1.0
C      1  0.5906240000000  0.5430520000000  0.4469420000000 1.0
C      1  0.4236720000000  0.6213730000000  0.5090780000000 1.0
C      1  0.5376000000000  0.4641040000000  0.6602460000000 1.0
C      1  0.4363600000000  0.3920810000000  0.5106870000000 1.0
C      1  0.5127140000000  0.4090890000000  0.4037930000000 1.0
C      1  0.4845520000000  0.5784490000000  0.4707320000000 1.0
C      1  0.4526970000000  0.4109540000000  0.5218950000000 1.0
C      1  0.5124670000000  0.4831950000000  0.4512710000000 1.0
C      1  0.4356760000000  0.5781520000000  0.4797070000000 1.0
C      1  0.4292280000000  0.6007410000000  0.4941610000000 1.0
C      1  0.5726700000000  0.5116510000000  0.5971520000000 1.0
C      1  0.4660850000000  0.5432650000000  0.4200170000000 1.0
C      1  0.5171370000000  0.5791120000000  0.5534960000000 1.0
C      1  0.4510190000000  0.4795240000000  0.5738840000000 1.0
END
