TITL C-599892-9790-1488 6.92256101225477e-06 125000 -273.212752173187 0 0 45 (C1) n - 1
REM
REM in /home/nfs/bkarasulu/CARBON/AIRSS/Generating-Clusters/TERSOFF/Only-C1/FIRE-HFTN
REM
REM
REM
REM
REM
REM ./C.cell (11c1c37f851c82e70ff6c80c92926a4b)
REM AIRSS Version 0.9.1 bugfix July 2018 build 013d7b7c2542+ Fri, 06 Jul 2018 19:26:36 +0100
REM compiler GCC version 9.2.1 20190827 (Red Hat 9.2.1-1)
REM options -cpp -mtune=generic -march=x86-64 -g -O0 -fpre-include=/usr/include/finclude/math-vector-fortran.h
REM seed -1352953613 867782956 1424567505 1584557945 -1156337304 203665252 1914652559 716295554 445329536 -1101244290 -1714372671 -1058905554 -1386176016 -1080881777 -730901185 1252347445 1763248942 -307236972 -1946628067 472225245 2036189306 -825561640 371219436 -1863562348 -859843345 -2044504442 -208666516 -937175208 -493819962 960849261 -680173933 -1580936405 967728869
REM
CELL 1.54180   50.00000   50.00000   50.00000   90.00000   90.00000   90.00000
LATT -1
SFAC C  
C      1  0.5333210000000  0.5242990000000  0.4608420000000 1.0
C      1  0.5338110000000  0.4793910000000  0.4444230000000 1.0
C      1  0.4257130000000  0.5240620000000  0.4623380000000 1.0
C      1  0.5473790000000  0.4598850000000  0.5520230000000 1.0
C      1  0.4693790000000  0.4474700000000  0.5012170000000 1.0
C      1  0.5305760000000  0.5327510000000  0.5668530000000 1.0
C      1  0.5395910000000  0.4438230000000  0.4927460000000 1.0
C      1  0.4447550000000  0.4499350000000  0.4306580000000 1.0
C      1  0.5545620000000  0.4812390000000  0.4637570000000 1.0
C      1  0.4690120000000  0.5161370000000  0.4360960000000 1.0
C      1  0.5462610000000  0.5319350000000  0.5450580000000 1.0
C      1  0.4778850000000  0.4977560000000  0.5041360000000 1.0
C      1  0.5190850000000  0.5404130000000  0.4796690000000 1.0
C      1  0.5139940000000  0.4593670000000  0.4396060000000 1.0
C      1  0.4759300000000  0.5705490000000  0.4896120000000 1.0
C      1  0.5160550000000  0.4388840000000  0.5044830000000 1.0
C      1  0.4440820000000  0.5301750000000  0.5085760000000 1.0
C      1  0.4620680000000  0.5024730000000  0.5479510000000 1.0
C      1  0.4835790000000  0.4834520000000  0.5555050000000 1.0
C      1  0.5213540000000  0.4540280000000  0.5547140000000 1.0
C      1  0.4242220000000  0.5258080000000  0.4890690000000 1.0
C      1  0.4991230000000  0.5598020000000  0.4775380000000 1.0
C      1  0.4959190000000  0.4603570000000  0.5430590000000 1.0
C      1  0.4611100000000  0.4504940000000  0.4759760000000 1.0
C      1  0.4440320000000  0.5223820000000  0.4429730000000 1.0
C      1  0.5062780000000  0.5232870000000  0.5772420000000 1.0
C      1  0.4641080000000  0.4568470000000  0.4486980000000 1.0
C      1  0.4599650000000  0.5252060000000  0.5654350000000 1.0
C      1  0.4592500000000  0.5539290000000  0.5052590000000 1.0
C      1  0.5011230000000  0.4953450000000  0.5752740000000 1.0
C      1  0.5032870000000  0.5051520000000  0.5063160000000 1.0
C      1  0.4873930000000  0.4703770000000  0.4402730000000 1.0
C      1  0.5666620000000  0.4811370000000  0.5093780000000 1.0
C      1  0.4696050000000  0.5969310000000  0.4861130000000 1.0
C      1  0.4572470000000  0.5076680000000  0.5203130000000 1.0
C      1  0.5651970000000  0.4710830000000  0.5354480000000 1.0
C      1  0.5191440000000  0.5057420000000  0.4435080000000 1.0
C      1  0.5455640000000  0.5250480000000  0.5179160000000 1.0
C      1  0.4815670000000  0.5374380000000  0.5769560000000 1.0
C      1  0.5565540000000  0.5097270000000  0.4727670000000 1.0
C      1  0.5202950000000  0.5271360000000  0.5049960000000 1.0
C      1  0.4911160000000  0.4995190000000  0.4389980000000 1.0
C      1  0.5629000000000  0.5090500000000  0.5018230000000 1.0
C      1  0.4923070000000  0.4479510000000  0.5173550000000 1.0
C      1  0.5576410000000  0.4645610000000  0.4870520000000 1.0
END
