TITL C-599893-4344-892 -593.471791156202 125000 -987.606842393471 0 0 162 (C1) n - 1
REM
REM in /home/nfs/bkarasulu/CARBON/AIRSS/Generating-Clusters/TERSOFF/Only-C1/FIRE-HFTN
REM
REM
REM
REM
REM
REM ./C.cell (11c1c37f851c82e70ff6c80c92926a4b)
REM AIRSS Version 0.9.1 bugfix July 2018 build 013d7b7c2542+ Fri, 06 Jul 2018 19:26:36 +0100
REM compiler GCC version 9.2.1 20190827 (Red Hat 9.2.1-1)
REM options -cpp -mtune=generic -march=x86-64 -g -O0 -fpre-include=/usr/include/finclude/math-vector-fortran.h
REM seed -268792439 -1501896619 410616664 -1605172584 533962794 1057408766 970146535 1630650901 332772528 1604935179 711294949 -560806744 -2116017650 1887786198 -995231416 396725148 783871344 1525671403 -70178931 -462898746 127786390 -1454804488 628890102 1897544718 -1438988736 146748282 -48478453 1948215488 1950783899 1193791194 -1583588848 579407538 33854803
REM
CELL 1.54180   50.00000   50.00000   50.00000   90.00000   90.00000   90.00000
LATT -1
SFAC C  
C      1  0.5615930000000  0.4862970000000  0.4016760000000 1.0
C      1  0.4513670000000  0.3820820000000  0.4622040000000 1.0
C      1  0.5473670000000  0.5312990000000  0.4981590000000 1.0
C      1  0.5806040000000  0.5794960000000  0.4041180000000 1.0
C      1  0.5661360000000  0.5533960000000  0.5461340000000 1.0
C      1  0.4008510000000  0.5750210000000  0.4920460000000 1.0
C      1  0.4590330000000  0.4051070000000  0.4772200000000 1.0
C      1  0.4423140000000  0.4915570000000  0.5111400000000 1.0
C      1  0.5671110000000  0.5173020000000  0.5124090000000 1.0
C      1  0.4699170000000  0.5940020000000  0.4258250000000 1.0
C      1  0.4022970000000  0.4953940000000  0.5354780000000 1.0
C      1  0.5224500000000  0.5392550000000  0.5736520000000 1.0
C      1  0.5014000000000  0.5203930000000  0.3937600000000 1.0
C      1  0.5679910000000  0.5959350000000  0.5291020000000 1.0
C      1  0.4009790000000  0.4632480000000  0.5190520000000 1.0
C      1  0.5780120000000  0.5694660000000  0.5242450000000 1.0
C      1  0.4881000000000  0.4042490000000  0.4848400000000 1.0
C      1  0.5658790000000  0.5103450000000  0.4169470000000 1.0
C      1  0.4342870000000  0.5509960000000  0.5683850000000 1.0
C      1  0.5392160000000  0.5001000000000  0.6057050000000 1.0
C      1  0.4603680000000  0.4633180000000  0.4779200000000 1.0
C      1  0.5233780000000  0.5600310000000  0.5271290000000 1.0
C      1  0.5646980000000  0.4892760000000  0.5973520000000 1.0
C      1  0.5436670000000  0.4192470000000  0.4300390000000 1.0
C      1  0.5666850000000  0.4288160000000  0.4454930000000 1.0
C      1  0.5379190000000  0.5501670000000  0.5503840000000 1.0
C      1  0.4964570000000  0.6038110000000  0.4896340000000 1.0
C      1  0.3925800000000  0.5436270000000  0.5307720000000 1.0
C      1  0.5542940000000  0.4905520000000  0.4730960000000 1.0
C      1  0.5068010000000  0.4828210000000  0.5774840000000 1.0
C      1  0.5664580000000  0.5577140000000  0.4062400000000 1.0
C      1  0.4318800000000  0.3194850000000  0.4180200000000 1.0
C      1  0.5904320000000  0.5534160000000  0.4707460000000 1.0
C      1  0.4960050000000  0.5628470000000  0.5310620000000 1.0
C      1  0.5082430000000  0.5551510000000  0.4811300000000 1.0
C      1  0.4717440000000  0.5187020000000  0.5716720000000 1.0
C      1  0.5391020000000  0.4404950000000  0.4108860000000 1.0
C      1  0.6159870000000  0.4857910000000  0.4859050000000 1.0
C      1  0.4331620000000  0.4675860000000  0.5848490000000 1.0
C      1  0.4229180000000  0.4315370000000  0.4566580000000 1.0
C      1  0.4263180000000  0.5187460000000  0.4369110000000 1.0
C      1  0.5202810000000  0.4644350000000  0.4799880000000 1.0
C      1  0.5037750000000  0.4785250000000  0.4190030000000 1.0
C      1  0.4400110000000  0.5754350000000  0.5555780000000 1.0
C      1  0.5499450000000  0.6109520000000  0.5457530000000 1.0
C      1  0.5220150000000  0.6343200000000  0.3974720000000 1.0
C      1  0.5872450000000  0.4486190000000  0.5380000000000 1.0
C      1  0.4244170000000  0.5836870000000  0.5331130000000 1.0
C      1  0.5477320000000  0.6643770000000  0.5375390000000 1.0
C      1  0.4867160000000  0.6071870000000  0.5159750000000 1.0
C      1  0.4208140000000  0.5064230000000  0.5559780000000 1.0
C      1  0.5145480000000  0.4852390000000  0.6045890000000 1.0
C      1  0.4715820000000  0.3980070000000  0.5350300000000 1.0
C      1  0.5607590000000  0.5003940000000  0.5333580000000 1.0
C      1  0.5320650000000  0.6002260000000  0.5655980000000 1.0
C      1  0.4937310000000  0.4787480000000  0.6222770000000 1.0
C      1  0.4344320000000  0.5309660000000  0.4819860000000 1.0
C      1  0.4744080000000  0.4756640000000  0.4251900000000 1.0
C      1  0.4851120000000  0.5373770000000  0.5338490000000 1.0
C      1  0.4135160000000  0.5150550000000  0.4647200000000 1.0
C      1  0.3873150000000  0.5167940000000  0.5225810000000 1.0
C      1  0.4221050000000  0.4377260000000  0.5057830000000 1.0
C      1  0.4913650000000  0.4024860000000  0.5136420000000 1.0
C      1  0.5373880000000  0.4997280000000  0.4539350000000 1.0
C      1  0.5889620000000  0.4420040000000  0.4876620000000 1.0
C      1  0.5221090000000  0.4049190000000  0.4420110000000 1.0
C      1  0.5198040000000  0.4197290000000  0.5534810000000 1.0
C      1  0.4833880000000  0.3873500000000  0.5586130000000 1.0
C      1  0.4485960000000  0.6021050000000  0.4404360000000 1.0
C      1  0.4195400000000  0.5969060000000  0.4859320000000 1.0
C      1  0.4956260000000  0.5900160000000  0.4140180000000 1.0
C      1  0.5993150000000  0.4663000000000  0.4733280000000 1.0
C      1  0.4313090000000  0.4961520000000  0.4195630000000 1.0
C      1  0.5809950000000  0.4955550000000  0.5531590000000 1.0
C      1  0.4585790000000  0.4946440000000  0.4101210000000 1.0
C      1  0.3887580000000  0.4726210000000  0.4748250000000 1.0
C      1  0.5147510000000  0.4058210000000  0.4695490000000 1.0
C      1  0.5109210000000  0.5893180000000  0.5788700000000 1.0
C      1  0.3761410000000  0.5159650000000  0.4964920000000 1.0
C      1  0.6058860000000  0.5120990000000  0.4849110000000 1.0
C      1  0.5351530000000  0.5269600000000  0.5960870000000 1.0
C      1  0.5502160000000  0.5345910000000  0.4092750000000 1.0
C      1  0.4741970000000  0.5195430000000  0.4046500000000 1.0
C      1  0.6699290000000  0.3980900000000  0.5214920000000 1.0
C      1  0.5727950000000  0.4629460000000  0.5855570000000 1.0
C      1  0.4786460000000  0.5192440000000  0.4945440000000 1.0
C      1  0.4013560000000  0.4714260000000  0.6490760000000 1.0
C      1  0.4136850000000  0.4860110000000  0.4721620000000 1.0
C      1  0.4180460000000  0.4711700000000  0.4226150000000 1.0
C      1  0.4913450000000  0.5780070000000  0.4789540000000 1.0
C      1  0.5903590000000  0.5552290000000  0.5011660000000 1.0
C      1  0.5268580000000  0.4787040000000  0.5589120000000 1.0
C      1  0.4468500000000  0.5511860000000  0.4655370000000 1.0
C      1  0.5210550000000  0.5398540000000  0.4034610000000 1.0
C      1  0.3883690000000  0.5571280000000  0.4741880000000 1.0
C      1  0.5952800000000  0.5249610000000  0.4600950000000 1.0
C      1  0.4203670000000  0.4709010000000  0.6312570000000 1.0
C      1  0.4826120000000  0.4913090000000  0.5658670000000 1.0
C      1  0.4674390000000  0.4731700000000  0.6207680000000 1.0
C      1  0.6243150000000  0.4238670000000  0.5173100000000 1.0
C      1  0.4924280000000  0.5428380000000  0.5767070000000 1.0
C      1  0.5020390000000  0.4742230000000  0.4980730000000 1.0
C      1  0.6472320000000  0.4107540000000  0.5194700000000 1.0
C      1  0.4036280000000  0.5673110000000  0.5204760000000 1.0
C      1  0.5849840000000  0.5053100000000  0.4400810000000 1.0
C      1  0.4734450000000  0.5317630000000  0.4304470000000 1.0
C      1  0.4669630000000  0.5838470000000  0.5588590000000 1.0
C      1  0.4329420000000  0.4606000000000  0.5573070000000 1.0
C      1  0.4368010000000  0.4767860000000  0.4865310000000 1.0
C      1  0.3810500000000  0.4634980000000  0.4991960000000 1.0
C      1  0.5662730000000  0.4255240000000  0.4743020000000 1.0
C      1  0.4818920000000  0.5870080000000  0.5345860000000 1.0
C      1  0.4173070000000  0.4475940000000  0.4357500000000 1.0
C      1  0.4869460000000  0.5725970000000  0.5774790000000 1.0
C      1  0.4810950000000  0.4466350000000  0.5291750000000 1.0
C      1  0.5292550000000  0.5522430000000  0.5002240000000 1.0
C      1  0.3879930000000  0.5286460000000  0.4736980000000 1.0
C      1  0.5382900000000  0.4157770000000  0.4845730000000 1.0
C      1  0.4309140000000  0.6037570000000  0.4609330000000 1.0
C      1  0.5124420000000  0.4997270000000  0.4407900000000 1.0
C      1  0.5095990000000  0.5654060000000  0.4104830000000 1.0
C      1  0.5109790000000  0.4940520000000  0.5171340000000 1.0
C      1  0.4354310000000  0.4239910000000  0.4819450000000 1.0
C      1  0.5612580000000  0.4593030000000  0.4097000000000 1.0
C      1  0.4308440000000  0.6031180000000  0.5122420000000 1.0
C      1  0.4508890000000  0.5168580000000  0.4997550000000 1.0
C      1  0.5098870000000  0.4934630000000  0.3932870000000 1.0
C      1  0.5088460000000  0.6131310000000  0.4050090000000 1.0
C      1  0.4600280000000  0.4245550000000  0.5381870000000 1.0
C      1  0.4421530000000  0.5236580000000  0.5666910000000 1.0
C      1  0.5772910000000  0.4532340000000  0.4329490000000 1.0
C      1  0.5450170000000  0.4319880000000  0.5588090000000 1.0
C      1  0.5885780000000  0.4676790000000  0.5596070000000 1.0
C      1  0.5097460000000  0.6232920000000  0.4760470000000 1.0
C      1  0.4938940000000  0.5211900000000  0.4478680000000 1.0
C      1  0.6404450000000  0.4800050000000  0.4964520000000 1.0
C      1  0.4787920000000  0.4583350000000  0.4996670000000 1.0
C      1  0.5892990000000  0.4748880000000  0.4472660000000 1.0
C      1  0.4645820000000  0.5708740000000  0.4737050000000 1.0
C      1  0.6006290000000  0.4384510000000  0.5145880000000 1.0
C      1  0.5299400000000  0.4297260000000  0.5074710000000 1.0
C      1  0.4676380000000  0.4643280000000  0.4504420000000 1.0
C      1  0.5935320000000  0.5260950000000  0.5068000000000 1.0
C      1  0.4383050000000  0.3400890000000  0.4326430000000 1.0
C      1  0.5595520000000  0.4432850000000  0.5365680000000 1.0
C      1  0.5140490000000  0.4519430000000  0.4128780000000 1.0
C      1  0.4464290000000  0.4776880000000  0.5368020000000 1.0
C      1  0.4448360000000  0.3610440000000  0.4475020000000 1.0
C      1  0.4943030000000  0.5308930000000  0.4740290000000 1.0
C      1  0.5493990000000  0.6387460000000  0.5419480000000 1.0
C      1  0.4477020000000  0.5388410000000  0.4396790000000 1.0
C      1  0.4406750000000  0.4705070000000  0.6119660000000 1.0
C      1  0.5477200000000  0.4512230000000  0.5124580000000 1.0
C      1  0.5071610000000  0.4264100000000  0.5262300000000 1.0
C      1  0.4741620000000  0.4733670000000  0.5448770000000 1.0
C      1  0.5786860000000  0.5076360000000  0.5791790000000 1.0
C      1  0.5062730000000  0.3991390000000  0.5677750000000 1.0
C      1  0.4932550000000  0.5155880000000  0.5184510000000 1.0
C      1  0.5472660000000  0.4686330000000  0.4892900000000 1.0
C      1  0.5334820000000  0.4913480000000  0.5350360000000 1.0
C      1  0.4371220000000  0.4330870000000  0.5516750000000 1.0
C      1  0.5555740000000  0.4402240000000  0.5838960000000 1.0
END
