TITL C-599890-3321-870 -5.19844721871124e-05 125000 -469.582125663693 0 0 78 (C1) n - 1
REM
REM in /home/nfs/bkarasulu/CARBON/AIRSS/Generating-Clusters/TERSOFF/Only-C1/FIRE-HFTN
REM
REM
REM
REM
REM
REM ./C.cell (11c1c37f851c82e70ff6c80c92926a4b)
REM AIRSS Version 0.9.1 bugfix July 2018 build 013d7b7c2542+ Fri, 06 Jul 2018 19:26:36 +0100
REM compiler GCC version 9.2.1 20190827 (Red Hat 9.2.1-1)
REM options -cpp -mtune=generic -march=x86-64 -g -O0 -fpre-include=/usr/include/finclude/math-vector-fortran.h
REM seed -1180573476 -576707169 1941854157 -149527475 1432854607 -1437808366 1052936668 -895092313 -776323969 -720134560 -548912984 -1065534937 -130371668 718252767 1289837684 409782954 -865667097 2124782421 1800856180 -1923402798 725494794 -1728083964 857899540 -2110346154 1896630558 -1677212627 1595859377 -266631812 -1303156608 -1598501817 -1963101989 1260263603 -921502987
REM
CELL 1.54180   50.00000   50.00000   50.00000   90.00000   90.00000   90.00000
LATT -1
SFAC C  
C      1  0.4102110000000  0.5365420000000  0.4902350000000 1.0
C      1  0.4417880000000  0.5135780000000  0.5208170000000 1.0
C      1  0.5635830000000  0.5054990000000  0.4514880000000 1.0
C      1  0.4640070000000  0.5765190000000  0.5727180000000 1.0
C      1  0.5132740000000  0.5729030000000  0.5252640000000 1.0
C      1  0.5356640000000  0.4675130000000  0.3959120000000 1.0
C      1  0.4417730000000  0.4834440000000  0.5596650000000 1.0
C      1  0.5348390000000  0.5497840000000  0.5722090000000 1.0
C      1  0.5380460000000  0.5594470000000  0.4247720000000 1.0
C      1  0.4469210000000  0.5473710000000  0.4653890000000 1.0
C      1  0.5382140000000  0.4877680000000  0.4140900000000 1.0
C      1  0.5188390000000  0.4446010000000  0.4615920000000 1.0
C      1  0.4895240000000  0.5254210000000  0.4676700000000 1.0
C      1  0.4751330000000  0.4491290000000  0.5666850000000 1.0
C      1  0.5085070000000  0.5097420000000  0.5770790000000 1.0
C      1  0.4979410000000  0.5797850000000  0.5024190000000 1.0
C      1  0.4819260000000  0.4865640000000  0.5115250000000 1.0
C      1  0.5341960000000  0.4422670000000  0.5595090000000 1.0
C      1  0.5863360000000  0.4590760000000  0.5422370000000 1.0
C      1  0.4629680000000  0.5230560000000  0.5645880000000 1.0
C      1  0.4814440000000  0.5021730000000  0.5739400000000 1.0
C      1  0.4423160000000  0.5101220000000  0.5487260000000 1.0
C      1  0.4709820000000  0.5372630000000  0.4244000000000 1.0
C      1  0.5327100000000  0.5144820000000  0.4064460000000 1.0
C      1  0.4750190000000  0.4248560000000  0.5518470000000 1.0
C      1  0.5378660000000  0.5213870000000  0.4848170000000 1.0
C      1  0.5825470000000  0.4383680000000  0.5591660000000 1.0
C      1  0.5436370000000  0.5414940000000  0.5462130000000 1.0
C      1  0.5063890000000  0.4758320000000  0.5120270000000 1.0
C      1  0.5139220000000  0.5844670000000  0.4791950000000 1.0
C      1  0.5389680000000  0.5602070000000  0.5249450000000 1.0
C      1  0.4062290000000  0.5241180000000  0.4430380000000 1.0
C      1  0.5632760000000  0.4556290000000  0.4791550000000 1.0
C      1  0.4756340000000  0.4587310000000  0.4465560000000 1.0
C      1  0.5487640000000  0.5290080000000  0.4586480000000 1.0
C      1  0.4933020000000  0.4182040000000  0.5028310000000 1.0
C      1  0.3973820000000  0.4987720000000  0.4439970000000 1.0
C      1  0.5526750000000  0.5660870000000  0.5002830000000 1.0
C      1  0.5005990000000  0.4268630000000  0.4201740000000 1.0
C      1  0.3998620000000  0.4787320000000  0.4615930000000 1.0
C      1  0.5263110000000  0.5532130000000  0.3783230000000 1.0
C      1  0.5395690000000  0.5725110000000  0.4749200000000 1.0
C      1  0.4150310000000  0.4711120000000  0.4840330000000 1.0
C      1  0.4425250000000  0.4786280000000  0.4842130000000 1.0
C      1  0.5486140000000  0.4829580000000  0.4402650000000 1.0
C      1  0.5099800000000  0.5214210000000  0.4844990000000 1.0
C      1  0.4579250000000  0.4709760000000  0.4620270000000 1.0
C      1  0.5611450000000  0.4994820000000  0.5239270000000 1.0
C      1  0.5791130000000  0.4992680000000  0.4758120000000 1.0
C      1  0.5247110000000  0.4517150000000  0.5108800000000 1.0
C      1  0.4636710000000  0.5501470000000  0.5702200000000 1.0
C      1  0.5435730000000  0.4593940000000  0.4578110000000 1.0
C      1  0.5863880000000  0.4720150000000  0.4764740000000 1.0
C      1  0.5611960000000  0.5095730000000  0.4975350000000 1.0
C      1  0.4328660000000  0.5372080000000  0.5082400000000 1.0
C      1  0.5534700000000  0.4560390000000  0.5059890000000 1.0
C      1  0.4947240000000  0.4215390000000  0.5317780000000 1.0
C      1  0.4190050000000  0.5393540000000  0.4625420000000 1.0
C      1  0.5195690000000  0.4356470000000  0.5363360000000 1.0
C      1  0.5119760000000  0.4351290000000  0.4879830000000 1.0
C      1  0.3951370000000  0.4429930000000  0.5254480000000 1.0
C      1  0.5581820000000  0.4289780000000  0.5663610000000 1.0
C      1  0.4517500000000  0.5542860000000  0.4936060000000 1.0
C      1  0.4654040000000  0.6025240000000  0.5738710000000 1.0
C      1  0.4678250000000  0.4758720000000  0.5704370000000 1.0
C      1  0.4564450000000  0.4054600000000  0.5568510000000 1.0
C      1  0.5322550000000  0.4691030000000  0.5676970000000 1.0
C      1  0.4038750000000  0.4566140000000  0.5050210000000 1.0
C      1  0.5441850000000  0.5558600000000  0.4518710000000 1.0
C      1  0.5168130000000  0.5352310000000  0.5864930000000 1.0
C      1  0.4986130000000  0.4434630000000  0.4417430000000 1.0
C      1  0.4550550000000  0.4930170000000  0.5054230000000 1.0
C      1  0.5293650000000  0.4964080000000  0.5625470000000 1.0
C      1  0.5458270000000  0.5123640000000  0.5441960000000 1.0
C      1  0.4710470000000  0.5725880000000  0.5012980000000 1.0
C      1  0.5681390000000  0.4718350000000  0.5250800000000 1.0
C      1  0.4692470000000  0.5367330000000  0.4516100000000 1.0
C      1  0.5322630000000  0.5425380000000  0.4027810000000 1.0
END
