TITL C-599895-9959-876 808282.9953695 125000 -1218.60967396137 0 0 199 (C1) n - 1
REM
REM in /home/nfs/bkarasulu/CARBON/AIRSS/Generating-Clusters/TERSOFF/Only-C1/FIRE-HFTN
REM
REM
REM
REM
REM
REM ./C.cell (11c1c37f851c82e70ff6c80c92926a4b)
REM AIRSS Version 0.9.1 bugfix July 2018 build 013d7b7c2542+ Fri, 06 Jul 2018 19:26:36 +0100
REM compiler GCC version 9.2.1 20190827 (Red Hat 9.2.1-1)
REM options -cpp -mtune=generic -march=x86-64 -g -O0 -fpre-include=/usr/include/finclude/math-vector-fortran.h
REM seed 957952566 953379214 -494512773 1586798241 -574938590 -1492596360 27380631 1998034397 1970188140 -676446049 -1571097441 1187220586 -887124003 1585798100 -1598352697 -2073103980 -682267835 -2110140629 164380691 951150193 -1728472488 -1407367950 2031766481 2108410075 1802337703 -924729833 -450766235 741208882 -1538007770 -996615268 -216116387 -1642585103 692683559
REM
CELL 1.54180   50.00000   50.00000   50.00000   90.00000   90.00000   90.00000
LATT -1
SFAC C  
C      1  0.5222330000000  0.5144530000000  0.5889990000000 1.0
C      1  0.4311110000000  0.5029130000000  0.5403050000000 1.0
C      1  0.5882620000000  0.4939120000000  0.4158930000000 1.0
C      1  0.4001570000000  0.5488120000000  0.4938410000000 1.0
C      1  0.4568860000000  0.5055820000000  0.5269230000000 1.0
C      1  0.4421930000000  0.4282190000000  0.4108520000000 1.0
C      1  0.4692860000000  0.5509130000000  0.6188110000000 1.0
C      1  0.6106940000000  0.4474480000000  0.4719020000000 1.0
C      1  0.5745150000000  0.6011580000000  0.5993580000000 1.0
C      1  0.4190920000000  0.4775190000000  0.5828880000000 1.0
C      1  0.5127030000000  0.4844670000000  0.4821660000000 1.0
C      1  0.4144390000000  0.4231360000000  0.5170810000000 1.0
C      1  0.4189030000000  0.5447530000000  0.5149800000000 1.0
C      1  0.4853540000000  0.5474090000000  0.5724180000000 1.0
C      1  0.5305050000000  0.4318210000000  0.5407830000000 1.0
C      1  0.5369120000000  0.5347340000000  0.4719720000000 1.0
C      1  0.4445430000000  0.5881850000000  0.4501640000000 1.0
C      1  0.3751880000000  0.4215570000000  0.5565980000000 1.0
C      1  0.5725680000000  0.5598020000000  0.5403470000000 1.0
C      1  0.4957230000000  0.4737950000000  0.5709730000000 1.0
C      1  0.5032170000000  0.4823620000000  0.5265720000000 1.0
C      1  0.6079260000000  0.4658820000000  0.5630250000000 1.0
C      1  0.5369080000000  0.3965790000000  0.4300390000000 1.0
C      1  0.5195760000000  0.4847640000000  0.5855920000000 1.0
C      1  0.5617820000000  0.4904240000000  0.4782120000000 1.0
C      1  0.4708550000000  0.4653210000000  0.4528080000000 1.0
C      1  0.5476050000000  0.4619090000000  0.4214280000000 1.0
C      1  0.4638180000000  0.5562640000000  0.4881600000000 1.0
C      1  0.5386290000000  0.4182070000000  0.4112630000000 1.0
C      1  0.5501490000000  0.4390710000000  0.5849840000000 1.0
C      1  0.4444730000000  0.5990710000000  0.5731280000000 1.0
C      1  0.5337390000000  0.5574680000000  0.5694690000000 1.0
C      1  0.5189880000000  0.3820240000000  0.5440900000000 1.0
C      1  0.4182800000000  0.6002510000000  0.5803760000000 1.0
C      1  0.4468310000000  0.5105750000000  0.4486700000000 1.0
C      1  0.4356610000000  0.4713960000000  0.6274800000000 1.0
C      1  0.5836610000000  0.4299230000000  0.4350770000000 1.0
C      1  0.5632390000000  0.5943780000000  0.4266840000000 1.0
C      1  0.3739940000000  0.4542880000000  0.4663140000000 1.0
C      1  0.3972400000000  0.5611990000000  0.4466750000000 1.0
C      1  0.4633550000000  0.5518040000000  0.4188910000000 1.0
C      1  0.5203820000000  0.3663890000000  0.5221100000000 1.0
C      1  0.6025360000000  0.5998430000000  0.6024620000000 1.0
C      1  0.5442740000000  0.4014270000000  0.6152610000000 1.0
C      1  0.5110220000000  0.5486850000000  0.4344210000000 1.0
C      1  0.4427070000000  0.4833290000000  0.4888790000000 1.0
C      1  0.4872310000000  0.4790700000000  0.3805210000000 1.0
C      1  0.4546980000000  0.6064100000000  0.5474370000000 1.0
C      1  0.3826350000000  0.5066520000000  0.5697520000000 1.0
C      1  0.4687370000000  0.4150740000000  0.4145540000000 1.0
C      1  0.4964110000000  0.4940330000000  0.3580160000000 1.0
C      1  0.5228100000000  0.5446310000000  0.4922190000000 1.0
C      1  0.3901880000000  0.4298520000000  0.4649500000000 1.0
C      1  0.4921560000000  0.6084770000000  0.4473470000000 1.0
C      1  0.5982510000000  0.5347880000000  0.5087730000000 1.0
C      1  0.5647330000000  0.4718190000000  0.4992350000000 1.0
C      1  0.4214830000000  0.4701930000000  0.5018340000000 1.0
C      1  0.4611930000000  0.4451620000000  0.4724740000000 1.0
C      1  0.5089820000000  0.6075030000000  0.5338290000000 1.0
C      1  0.5603880000000  0.5773690000000  0.6054030000000 1.0
C      1  0.4148740000000  0.5594550000000  0.4261180000000 1.0
C      1  0.4560540000000  0.4199260000000  0.4597720000000 1.0
C      1  0.5050270000000  0.4254740000000  0.6005580000000 1.0
C      1  0.4901150000000  0.5213110000000  0.4676560000000 1.0
C      1  0.4706930000000  0.4409550000000  0.4999460000000 1.0
C      1  0.3966830000000  0.4944050000000  0.5921850000000 1.0
C      1  0.5825820000000  0.5398590000000  0.4289650000000 1.0
C      1  0.5491920000000  0.5542320000000  0.5945000000000 1.0
C      1  0.6133190000000  0.5129540000000  0.5121540000000 1.0
C      1  0.5362920000000  0.4845440000000  0.4661620000000 1.0
C      1  0.4836100000000  0.4928370000000  0.3339070000000 1.0
C      1  0.3671630000000  0.5153940000000  0.5117810000000 1.0
C      1  0.6039850000000  0.4495450000000  0.4418680000000 1.0
C      1  0.5658950000000  0.5280400000000  0.3851200000000 1.0
C      1  0.5461020000000  0.5264530000000  0.6024420000000 1.0
C      1  0.4269310000000  0.5877240000000  0.4740170000000 1.0
C      1  0.4657030000000  0.5354030000000  0.4667900000000 1.0
C      1  0.3967470000000  0.4831270000000  0.4993130000000 1.0
C      1  0.5223820000000  0.5041860000000  0.5324790000000 1.0
C      1  0.4418880000000  0.4895410000000  0.6458680000000 1.0
C      1  0.6066620000000  0.4472970000000  0.5435180000000 1.0
C      1  0.5923070000000  0.5551290000000  0.4502880000000 1.0
C      1  0.4893110000000  0.4997110000000  0.4843740000000 1.0
C      1  0.6071190000000  0.4909740000000  0.4593430000000 1.0
C      1  0.5810850000000  0.5745390000000  0.4668450000000 1.0
C      1  0.4318160000000  0.3990490000000  0.5205070000000 1.0
C      1  0.4760200000000  0.5489850000000  0.5461150000000 1.0
C      1  0.5263740000000  0.5645690000000  0.4147370000000 1.0
C      1  0.5211380000000  0.6013080000000  0.4853620000000 1.0
C      1  0.5929610000000  0.5549690000000  0.5589520000000 1.0
C      1  0.4023320000000  0.4210970000000  0.4887150000000 1.0
C      1  0.4791440000000  0.4314260000000  0.5970480000000 1.0
C      1  0.5690970000000  0.5724830000000  0.4933540000000 1.0
C      1  0.5698160000000  0.4832680000000  0.5959290000000 1.0
C      1  0.5455160000000  0.4681330000000  0.5902480000000 1.0
C      1  0.5360040000000  0.3992240000000  0.4582890000000 1.0
C      1  0.4708680000000  0.4033730000000  0.4412310000000 1.0
C      1  0.5939880000000  0.4769910000000  0.5829980000000 1.0
C      1  0.5488690000000  0.5973000000000  0.4972900000000 1.0
C      1  0.5215380000000  0.5290150000000  0.5163170000000 1.0
C      1  0.4307470000000  0.4493020000000  0.5195980000000 1.0
C      1  0.5662140000000  0.5080650000000  0.6087950000000 1.0
C      1  0.5702330000000  0.5497370000000  0.4048350000000 1.0
C      1  0.4820540000000  0.5975840000000  0.5446840000000 1.0
C      1  0.5614480000000  0.4362640000000  0.4181090000000 1.0
C      1  0.5627880000000  0.6207180000000  0.5829050000000 1.0
C      1  0.4874780000000  0.4185270000000  0.5023550000000 1.0
C      1  0.5842270000000  0.4127230000000  0.4589180000000 1.0
C      1  0.5365680000000  0.4278710000000  0.5118330000000 1.0
C      1  0.5117250000000  0.5931980000000  0.4605240000000 1.0
C      1  0.4875810000000  0.5042460000000  0.4216520000000 1.0
C      1  0.4362640000000  0.4635000000000  0.6004360000000 1.0
C      1  0.6170130000000  0.4743100000000  0.4806960000000 1.0
C      1  0.5426390000000  0.5118180000000  0.4321020000000 1.0
C      1  0.4464850000000  0.5471510000000  0.5096820000000 1.0
C      1  0.5827230000000  0.4176090000000  0.5093440000000 1.0
C      1  0.3861740000000  0.4526660000000  0.4236940000000 1.0
C      1  0.4928780000000  0.4516840000000  0.4419310000000 1.0
C      1  0.5000010000000  0.6262360000000  0.5802160000000 1.0
C      1  0.3825890000000  0.5267360000000  0.4896710000000 1.0
C      1  0.3970690000000  0.4284510000000  0.4359650000000 1.0
C      1  0.4451850000000  0.4562060000000  0.4017250000000 1.0
C      1  0.5637370000000  0.6156830000000  0.4762930000000 1.0
C      1  0.5331190000000  0.4215680000000  0.6004160000000 1.0
C      1  0.5431790000000  0.3867230000000  0.4839170000000 1.0
C      1  0.4778260000000  0.3918250000000  0.5005670000000 1.0
C      1  0.4188330000000  0.4177320000000  0.4222880000000 1.0
C      1  0.4686760000000  0.4920640000000  0.4412040000000 1.0
C      1  0.5420940000000  0.4561260000000  0.5048700000000 1.0
C      1  0.5448280000000  0.6291630000000  0.5648940000000 1.0
C      1  0.4727920000000  0.5625120000000  0.5936260000000 1.0
C      1  0.5135940000000  0.4223840000000  0.4940680000000 1.0
C      1  0.4871190000000  0.4314110000000  0.3977070000000 1.0
C      1  0.4937390000000  0.3764950000000  0.4818660000000 1.0
C      1  0.3791610000000  0.4905020000000  0.5213920000000 1.0
C      1  0.5196460000000  0.5106210000000  0.3616190000000 1.0
C      1  0.5372180000000  0.4640030000000  0.4475840000000 1.0
C      1  0.5118700000000  0.5378400000000  0.5742490000000 1.0
C      1  0.6135260000000  0.5619640000000  0.5744350000000 1.0
C      1  0.5002450000000  0.6012570000000  0.5034870000000 1.0
C      1  0.4536950000000  0.3858330000000  0.5129570000000 1.0
C      1  0.4715440000000  0.4558560000000  0.3877160000000 1.0
C      1  0.5174000000000  0.4445320000000  0.4517310000000 1.0
C      1  0.4318640000000  0.6024930000000  0.4980740000000 1.0
C      1  0.6192150000000  0.5814670000000  0.5919720000000 1.0
C      1  0.5793620000000  0.5552290000000  0.5131740000000 1.0
C      1  0.5724290000000  0.5125140000000  0.4353640000000 1.0
C      1  0.4054270000000  0.5678540000000  0.4731540000000 1.0
C      1  0.5532710000000  0.5722680000000  0.4108680000000 1.0
C      1  0.4654050000000  0.6067030000000  0.4467210000000 1.0
C      1  0.5379050000000  0.5911070000000  0.5303520000000 1.0
C      1  0.5465460000000  0.5703570000000  0.5467660000000 1.0
C      1  0.5091560000000  0.5656730000000  0.4597030000000 1.0
C      1  0.5208510000000  0.4220060000000  0.4668480000000 1.0
C      1  0.4848170000000  0.6103920000000  0.5957310000000 1.0
C      1  0.4419330000000  0.5673200000000  0.4296710000000 1.0
C      1  0.5221890000000  0.5254200000000  0.4484240000000 1.0
C      1  0.4855380000000  0.3820030000000  0.4543250000000 1.0
C      1  0.3804620000000  0.4722440000000  0.4439090000000 1.0
C      1  0.5829700000000  0.5048280000000  0.3898200000000 1.0
C      1  0.5812810000000  0.5029960000000  0.4624190000000 1.0
C      1  0.5204450000000  0.3708500000000  0.4939030000000 1.0
C      1  0.5157920000000  0.4350130000000  0.4005890000000 1.0
C      1  0.5207450000000  0.4077630000000  0.5520310000000 1.0
C      1  0.3981050000000  0.4937990000000  0.4505380000000 1.0
C      1  0.5166810000000  0.4696420000000  0.5050080000000 1.0
C      1  0.5960800000000  0.4247630000000  0.4837580000000 1.0
C      1  0.4395540000000  0.6089740000000  0.5232620000000 1.0
C      1  0.3941450000000  0.5028440000000  0.4771780000000 1.0
C      1  0.5236740000000  0.4644170000000  0.4046490000000 1.0
C      1  0.5858370000000  0.4281920000000  0.5380560000000 1.0
C      1  0.3936830000000  0.5308140000000  0.5583680000000 1.0
C      1  0.5684970000000  0.4278170000000  0.5632080000000 1.0
C      1  0.6048510000000  0.4770640000000  0.4329230000000 1.0
C      1  0.5026380000000  0.4856560000000  0.4044080000000 1.0
C      1  0.4171550000000  0.4814370000000  0.5538320000000 1.0
C      1  0.5176720000000  0.6256290000000  0.5578800000000 1.0
C      1  0.5390590000000  0.4596690000000  0.5479570000000 1.0
C      1  0.4142520000000  0.5282290000000  0.5384160000000 1.0
C      1  0.4656030000000  0.5902220000000  0.5906270000000 1.0
C      1  0.4233700000000  0.4970120000000  0.4366070000000 1.0
C      1  0.4521430000000  0.5136860000000  0.6501740000000 1.0
C      1  0.4866880000000  0.5349460000000  0.4210200000000 1.0
C      1  0.5723130000000  0.5990910000000  0.4533600000000 1.0
C      1  0.6216360000000  0.4886140000000  0.5042430000000 1.0
C      1  0.5562760000000  0.4061190000000  0.5036140000000 1.0
C      1  0.4618840000000  0.5327760000000  0.5293170000000 1.0
C      1  0.4557900000000  0.4442320000000  0.5938650000000 1.0
C      1  0.5418360000000  0.5232170000000  0.3705440000000 1.0
C      1  0.4309490000000  0.4781670000000  0.4145130000000 1.0
C      1  0.4821100000000  0.5764660000000  0.5029710000000 1.0
C      1  0.4843580000000  0.4688140000000  0.5437200000000 1.0
C      1  0.4811170000000  0.5720860000000  0.5319770000000 1.0
C      1  0.4622680000000  0.5357170000000  0.6393470000000 1.0
C      1  0.5433060000000  0.4875390000000  0.5445390000000 1.0
C      1  0.3878310000000  0.4865000000000  0.5479530000000 1.0
C      1  0.4601270000000  0.4515120000000  0.5249310000000 1.0
C      1  0.3926210000000  0.4230560000000  0.5373050000000 1.0
C      1  0.4651490000000  0.4954240000000  0.5008350000000 1.0
END
