TITL C-599895-9959-612 1.16799121126611 125000 -888.553744461346 0 0 145 (C1) n - 1
REM
REM in /home/nfs/bkarasulu/CARBON/AIRSS/Generating-Clusters/TERSOFF/Only-C1/FIRE-HFTN
REM
REM
REM
REM
REM
REM ./C.cell (11c1c37f851c82e70ff6c80c92926a4b)
REM AIRSS Version 0.9.1 bugfix July 2018 build 013d7b7c2542+ Fri, 06 Jul 2018 19:26:36 +0100
REM compiler GCC version 9.2.1 20190827 (Red Hat 9.2.1-1)
REM options -cpp -mtune=generic -march=x86-64 -g -O0 -fpre-include=/usr/include/finclude/math-vector-fortran.h
REM seed -1286854306 837523013 287401882 371587449 56870793 51718800 -351081625 -2099942295 -2016301693 -1356103567 -1659123807 941106854 -2110301650 2098491207 -812208118 1854922854 -1969830717 -1321174487 1370904222 -201362327 352587053 -1390843792 -910450369 -1304180885 -1406404610 798300494 -2014743060 1909652999 -1065258 831484524 -394547818 -646460465 1648399930
REM
CELL 1.54180   50.00000   50.00000   50.00000   90.00000   90.00000   90.00000
LATT -1
SFAC C  
C      1  0.5345490000000  0.5197930000000  0.4077920000000 1.0
C      1  0.4790670000000  0.4781920000000  0.5084320000000 1.0
C      1  0.5070750000000  0.6063310000000  0.5619600000000 1.0
C      1  0.4982600000000  0.3995840000000  0.4602330000000 1.0
C      1  0.5067430000000  0.4757280000000  0.3957150000000 1.0
C      1  0.4598670000000  0.5986060000000  0.5752060000000 1.0
C      1  0.5056070000000  0.5008570000000  0.4382930000000 1.0
C      1  0.4805160000000  0.5348650000000  0.5829200000000 1.0
C      1  0.6124010000000  0.5032830000000  0.4772720000000 1.0
C      1  0.4886500000000  0.4944770000000  0.6120230000000 1.0
C      1  0.5244160000000  0.4924150000000  0.5417510000000 1.0
C      1  0.4033820000000  0.4413830000000  0.5528700000000 1.0
C      1  0.5729120000000  0.4541150000000  0.5203340000000 1.0
C      1  0.5599180000000  0.4650560000000  0.4088710000000 1.0
C      1  0.5676800000000  0.4758780000000  0.5030830000000 1.0
C      1  0.3782780000000  0.5006100000000  0.5093530000000 1.0
C      1  0.4773430000000  0.5206760000000  0.5577980000000 1.0
C      1  0.4323550000000  0.5026890000000  0.4133010000000 1.0
C      1  0.5434560000000  0.5270790000000  0.5118030000000 1.0
C      1  0.6393140000000  0.5017370000000  0.5224250000000 1.0
C      1  0.5494770000000  0.5189060000000  0.4848900000000 1.0
C      1  0.3992100000000  0.5702350000000  0.5342210000000 1.0
C      1  0.4025360000000  0.4684870000000  0.5445850000000 1.0
C      1  0.4203540000000  0.4780260000000  0.4642430000000 1.0
C      1  0.4594670000000  0.4349530000000  0.5129890000000 1.0
C      1  0.4431810000000  0.4250110000000  0.4942850000000 1.0
C      1  0.5364590000000  0.3784640000000  0.5403130000000 1.0
C      1  0.4961760000000  0.5288750000000  0.5015820000000 1.0
C      1  0.4400230000000  0.4810400000000  0.4843730000000 1.0
C      1  0.5747150000000  0.4684610000000  0.3861570000000 1.0
C      1  0.3863900000000  0.5141830000000  0.4854420000000 1.0
C      1  0.4914630000000  0.5701030000000  0.5336170000000 1.0
C      1  0.5329200000000  0.4893230000000  0.4428200000000 1.0
C      1  0.5652630000000  0.3954250000000  0.4685530000000 1.0
C      1  0.5316690000000  0.4983280000000  0.5910560000000 1.0
C      1  0.4950360000000  0.4290640000000  0.5778110000000 1.0
C      1  0.6089550000000  0.4454990000000  0.4902520000000 1.0
C      1  0.5290890000000  0.5472740000000  0.5636180000000 1.0
C      1  0.5925270000000  0.4355780000000  0.5112520000000 1.0
C      1  0.4868670000000  0.4668570000000  0.4646380000000 1.0
C      1  0.4578490000000  0.6081720000000  0.4582630000000 1.0
C      1  0.4950150000000  0.5474550000000  0.4192750000000 1.0
C      1  0.4012280000000  0.5549190000000  0.5097540000000 1.0
C      1  0.5395820000000  0.5634490000000  0.4673180000000 1.0
C      1  0.4656960000000  0.6299430000000  0.4453860000000 1.0
C      1  0.5212080000000  0.4994260000000  0.3943870000000 1.0
C      1  0.5533660000000  0.5623710000000  0.5648550000000 1.0
C      1  0.4931490000000  0.4604120000000  0.4164460000000 1.0
C      1  0.4788680000000  0.5453240000000  0.4858670000000 1.0
C      1  0.5052230000000  0.4529110000000  0.5910370000000 1.0
C      1  0.4513710000000  0.5843180000000  0.4715230000000 1.0
C      1  0.5767690000000  0.3916200000000  0.4925780000000 1.0
C      1  0.4011040000000  0.5581300000000  0.4625140000000 1.0
C      1  0.3911110000000  0.5434000000000  0.4854500000000 1.0
C      1  0.5191230000000  0.5404740000000  0.5145150000000 1.0
C      1  0.4780570000000  0.5184850000000  0.6058400000000 1.0
C      1  0.3984180000000  0.4963990000000  0.4661710000000 1.0
C      1  0.4748620000000  0.5584570000000  0.4045780000000 1.0
C      1  0.5268970000000  0.5260380000000  0.5833740000000 1.0
C      1  0.5095720000000  0.4144840000000  0.5578870000000 1.0
C      1  0.5126380000000  0.4604630000000  0.4758290000000 1.0
C      1  0.5132920000000  0.5532460000000  0.5394600000000 1.0
C      1  0.4871520000000  0.5899580000000  0.5768840000000 1.0
C      1  0.3872960000000  0.5586750000000  0.4389140000000 1.0
C      1  0.4710780000000  0.3989940000000  0.4498100000000 1.0
C      1  0.5116400000000  0.4176260000000  0.4400510000000 1.0
C      1  0.5886530000000  0.5247860000000  0.4453060000000 1.0
C      1  0.5012810000000  0.3917190000000  0.4876570000000 1.0
C      1  0.5440580000000  0.5366210000000  0.4611330000000 1.0
C      1  0.4513790000000  0.5241580000000  0.5451010000000 1.0
C      1  0.4363940000000  0.5891000000000  0.5660960000000 1.0
C      1  0.5827850000000  0.4964720000000  0.4402090000000 1.0
C      1  0.4715840000000  0.5731360000000  0.4892950000000 1.0
C      1  0.4527580000000  0.3905240000000  0.5451380000000 1.0
C      1  0.4626600000000  0.5245010000000  0.4455960000000 1.0
C      1  0.6313510000000  0.4993460000000  0.4971930000000 1.0
C      1  0.4894000000000  0.5036490000000  0.5145660000000 1.0
C      1  0.4397500000000  0.4360930000000  0.4465170000000 1.0
C      1  0.6007120000000  0.5298280000000  0.4714880000000 1.0
C      1  0.5362650000000  0.6067210000000  0.5608700000000 1.0
C      1  0.6329780000000  0.5090760000000  0.5471920000000 1.0
C      1  0.4728670000000  0.4563910000000  0.5257470000000 1.0
C      1  0.5482170000000  0.5103870000000  0.5345620000000 1.0
C      1  0.5521530000000  0.4903550000000  0.4850570000000 1.0
C      1  0.5877840000000  0.4077700000000  0.5111340000000 1.0
C      1  0.4676120000000  0.4205210000000  0.5800130000000 1.0
C      1  0.5666490000000  0.5064210000000  0.5575590000000 1.0
C      1  0.5337660000000  0.4775700000000  0.4686180000000 1.0
C      1  0.5531380000000  0.5861460000000  0.5492470000000 1.0
C      1  0.4293780000000  0.5468890000000  0.5103580000000 1.0
C      1  0.4950450000000  0.6222660000000  0.5411930000000 1.0
C      1  0.5621170000000  0.4172140000000  0.4510780000000 1.0
C      1  0.4266730000000  0.4824360000000  0.5502440000000 1.0
C      1  0.6005270000000  0.4827990000000  0.4596000000000 1.0
C      1  0.4633560000000  0.4234730000000  0.4357170000000 1.0
C      1  0.5586720000000  0.4852830000000  0.4291100000000 1.0
C      1  0.4459310000000  0.4102210000000  0.5643220000000 1.0
C      1  0.4380560000000  0.5268550000000  0.4926380000000 1.0
C      1  0.5550910000000  0.4516480000000  0.5419850000000 1.0
C      1  0.5099270000000  0.4803470000000  0.5996470000000 1.0
C      1  0.5772400000000  0.5499040000000  0.5726180000000 1.0
C      1  0.4830370000000  0.6136530000000  0.5184460000000 1.0
C      1  0.4240130000000  0.5699160000000  0.5500010000000 1.0
C      1  0.5681400000000  0.5833220000000  0.5247240000000 1.0
C      1  0.5528980000000  0.4868370000000  0.5753600000000 1.0
C      1  0.4399910000000  0.5489050000000  0.5372720000000 1.0
C      1  0.4369090000000  0.5019270000000  0.5328770000000 1.0
C      1  0.5422260000000  0.5311420000000  0.4320740000000 1.0
C      1  0.4281310000000  0.4619170000000  0.4415730000000 1.0
C      1  0.4258160000000  0.5725970000000  0.4656650000000 1.0
C      1  0.4291250000000  0.4226730000000  0.4699670000000 1.0
C      1  0.4205300000000  0.4226840000000  0.5621070000000 1.0
C      1  0.4897710000000  0.4330530000000  0.4250510000000 1.0
C      1  0.4059720000000  0.4081870000000  0.4683080000000 1.0
C      1  0.5944470000000  0.5510510000000  0.4895950000000 1.0
C      1  0.4354030000000  0.5011270000000  0.5040930000000 1.0
C      1  0.4688100000000  0.4609750000000  0.5530140000000 1.0
C      1  0.4907050000000  0.5251090000000  0.4365860000000 1.0
C      1  0.4579540000000  0.5308170000000  0.4727030000000 1.0
C      1  0.4739530000000  0.6516080000000  0.4325420000000 1.0
C      1  0.4469390000000  0.4703700000000  0.5656440000000 1.0
C      1  0.5831810000000  0.4365810000000  0.4512970000000 1.0
C      1  0.4887800000000  0.4774860000000  0.4388370000000 1.0
C      1  0.4697700000000  0.3837520000000  0.5255260000000 1.0
C      1  0.5999180000000  0.4548680000000  0.4649880000000 1.0
C      1  0.5393520000000  0.4231350000000  0.4347610000000 1.0
C      1  0.4974800000000  0.5046650000000  0.5425070000000 1.0
C      1  0.5389480000000  0.4704650000000  0.5550910000000 1.0
C      1  0.4443670000000  0.5259580000000  0.4231600000000 1.0
C      1  0.6136530000000  0.5179100000000  0.5631820000000 1.0
C      1  0.4806760000000  0.5861530000000  0.5128090000000 1.0
C      1  0.4288770000000  0.4764530000000  0.4175930000000 1.0
C      1  0.4821090000000  0.6729060000000  0.4199110000000 1.0
C      1  0.4673960000000  0.4743700000000  0.4829490000000 1.0
C      1  0.5182340000000  0.4401130000000  0.4934600000000 1.0
C      1  0.5867280000000  0.5243590000000  0.5657850000000 1.0
C      1  0.4883670000000  0.5623900000000  0.5847530000000 1.0
C      1  0.5489340000000  0.6284450000000  0.5721970000000 1.0
C      1  0.4957950000000  0.3896620000000  0.5160220000000 1.0
C      1  0.5145590000000  0.3948530000000  0.5376520000000 1.0
C      1  0.4495950000000  0.5483170000000  0.4062230000000 1.0
C      1  0.5347890000000  0.4239600000000  0.5051190000000 1.0
C      1  0.3838110000000  0.4821070000000  0.5282440000000 1.0
C      1  0.5458400000000  0.4410950000000  0.4137980000000 1.0
C      1  0.5827300000000  0.5688990000000  0.5066340000000 1.0
END
