TITL C-599890-3321-1045 -0.0654869956967216 125000 -588.199343862613 0 0 96 (C1) n - 1
REM
REM in /home/nfs/bkarasulu/CARBON/AIRSS/Generating-Clusters/TERSOFF/Only-C1/FIRE-HFTN
REM
REM
REM
REM
REM
REM ./C.cell (11c1c37f851c82e70ff6c80c92926a4b)
REM AIRSS Version 0.9.1 bugfix July 2018 build 013d7b7c2542+ Fri, 06 Jul 2018 19:26:36 +0100
REM compiler GCC version 9.2.1 20190827 (Red Hat 9.2.1-1)
REM options -cpp -mtune=generic -march=x86-64 -g -O0 -fpre-include=/usr/include/finclude/math-vector-fortran.h
REM seed -968881621 -945724681 433530548 -1217203091 409323396 317023536 937025395 -826255787 -797839639 1455035033 -1176074070 -1127828660 2025884345 107137938 -924226755 852788223 -821671503 743299269 -2100138542 828221371 2085665248 304972697 -313609264 -1086235490 1314282472 -1307770443 -1304261616 1317476009 1652830887 -632557600 391968760 -572212404 -93365298
REM
CELL 1.54180   50.00000   50.00000   50.00000   90.00000   90.00000   90.00000
LATT -1
SFAC C  
C      1  0.4956370000000  0.5220720000000  0.4423430000000 1.0
C      1  0.4494550000000  0.5502870000000  0.4842170000000 1.0
C      1  0.4867540000000  0.5695880000000  0.4549400000000 1.0
C      1  0.4927690000000  0.5418080000000  0.4657710000000 1.0
C      1  0.4985020000000  0.4916250000000  0.5404570000000 1.0
C      1  0.4265060000000  0.5490050000000  0.4433980000000 1.0
C      1  0.4411210000000  0.4941750000000  0.5705140000000 1.0
C      1  0.5054320000000  0.4444180000000  0.4251810000000 1.0
C      1  0.4555400000000  0.5145650000000  0.5313050000000 1.0
C      1  0.4536030000000  0.4884410000000  0.4238960000000 1.0
C      1  0.5333510000000  0.5490810000000  0.5497780000000 1.0
C      1  0.5861490000000  0.4577230000000  0.5721890000000 1.0
C      1  0.5318240000000  0.4861900000000  0.4099340000000 1.0
C      1  0.4684790000000  0.4279250000000  0.4525060000000 1.0
C      1  0.5843490000000  0.4840870000000  0.5676270000000 1.0
C      1  0.4479770000000  0.4597490000000  0.4879240000000 1.0
C      1  0.4487660000000  0.4454650000000  0.5328990000000 1.0
C      1  0.5704920000000  0.4359140000000  0.5704480000000 1.0
C      1  0.4594970000000  0.5642210000000  0.5772330000000 1.0
C      1  0.5691540000000  0.4444260000000  0.4799980000000 1.0
C      1  0.5375320000000  0.5137050000000  0.4177720000000 1.0
C      1  0.4510160000000  0.4958150000000  0.5123260000000 1.0
C      1  0.5132170000000  0.4238340000000  0.5243350000000 1.0
C      1  0.5668330000000  0.4690410000000  0.5196410000000 1.0
C      1  0.4677920000000  0.5513850000000  0.4084190000000 1.0
C      1  0.4598660000000  0.4605910000000  0.4183280000000 1.0
C      1  0.4455290000000  0.5418680000000  0.5662290000000 1.0
C      1  0.5718800000000  0.5200410000000  0.5356520000000 1.0
C      1  0.4848820000000  0.5583890000000  0.5862720000000 1.0
C      1  0.5837920000000  0.4952460000000  0.4840320000000 1.0
C      1  0.4208100000000  0.4636480000000  0.4789010000000 1.0
C      1  0.5597250000000  0.5472230000000  0.5377220000000 1.0
C      1  0.5422890000000  0.5086430000000  0.5758380000000 1.0
C      1  0.5159760000000  0.5478320000000  0.4840680000000 1.0
C      1  0.5711230000000  0.5009050000000  0.4567410000000 1.0
C      1  0.5579430000000  0.6577950000000  0.4845640000000 1.0
C      1  0.5402220000000  0.4631440000000  0.4500440000000 1.0
C      1  0.4908030000000  0.4725400000000  0.5600010000000 1.0
C      1  0.5359690000000  0.4887550000000  0.5949190000000 1.0
C      1  0.5637550000000  0.5166380000000  0.4325500000000 1.0
C      1  0.5436350000000  0.4326150000000  0.5627840000000 1.0
C      1  0.5132790000000  0.5581000000000  0.5312440000000 1.0
C      1  0.4212010000000  0.4848340000000  0.5530190000000 1.0
C      1  0.5182140000000  0.4267500000000  0.4721580000000 1.0
C      1  0.4443490000000  0.5513740000000  0.4226650000000 1.0
C      1  0.5306990000000  0.5020920000000  0.4797900000000 1.0
C      1  0.5185160000000  0.4819290000000  0.5220870000000 1.0
C      1  0.5136450000000  0.4863160000000  0.4947910000000 1.0
C      1  0.5434850000000  0.4407870000000  0.4673700000000 1.0
C      1  0.4054860000000  0.4807930000000  0.4985860000000 1.0
C      1  0.4239900000000  0.4609510000000  0.4503010000000 1.0
C      1  0.4912830000000  0.5420200000000  0.5326050000000 1.0
C      1  0.4161440000000  0.5407180000000  0.5203350000000 1.0
C      1  0.4851470000000  0.5951570000000  0.4501570000000 1.0
C      1  0.4693230000000  0.5306510000000  0.4808580000000 1.0
C      1  0.4683930000000  0.4773200000000  0.4759220000000 1.0
C      1  0.4918380000000  0.4267510000000  0.5437950000000 1.0
C      1  0.4497130000000  0.4669970000000  0.5154970000000 1.0
C      1  0.5785610000000  0.4679350000000  0.4940050000000 1.0
C      1  0.4645510000000  0.4245800000000  0.5384680000000 1.0
C      1  0.5226030000000  0.4423670000000  0.5798700000000 1.0
C      1  0.5050240000000  0.3865580000000  0.4951840000000 1.0
C      1  0.5498530000000  0.6076390000000  0.4980470000000 1.0
C      1  0.4082030000000  0.5336390000000  0.4929660000000 1.0
C      1  0.5121770000000  0.4131840000000  0.4973480000000 1.0
C      1  0.4270630000000  0.4861360000000  0.4354610000000 1.0
C      1  0.4739190000000  0.5052600000000  0.4339110000000 1.0
C      1  0.5667750000000  0.5046920000000  0.5595960000000 1.0
C      1  0.4950790000000  0.4714650000000  0.4802100000000 1.0
C      1  0.5627960000000  0.5606140000000  0.5116190000000 1.0
C      1  0.5362320000000  0.4369670000000  0.5352110000000 1.0
C      1  0.4838770000000  0.4506640000000  0.4079220000000 1.0
C      1  0.4980950000000  0.4455500000000  0.5652330000000 1.0
C      1  0.4240160000000  0.5466250000000  0.4719500000000 1.0
C      1  0.5404180000000  0.4639160000000  0.5271520000000 1.0
C      1  0.5782820000000  0.5156160000000  0.5053510000000 1.0
C      1  0.4946050000000  0.5457520000000  0.4042190000000 1.0
C      1  0.5539910000000  0.6329220000000  0.4912980000000 1.0
C      1  0.5231470000000  0.5299700000000  0.5705620000000 1.0
C      1  0.5446920000000  0.5813460000000  0.5043500000000 1.0
C      1  0.5627560000000  0.5376780000000  0.4936430000000 1.0
C      1  0.4476850000000  0.4441450000000  0.4399880000000 1.0
C      1  0.4368620000000  0.5353650000000  0.5392580000000 1.0
C      1  0.5192890000000  0.5678060000000  0.5049930000000 1.0
C      1  0.3983110000000  0.5071830000000  0.4895150000000 1.0
C      1  0.5272220000000  0.4625890000000  0.4253500000000 1.0
C      1  0.4977040000000  0.4301240000000  0.4501940000000 1.0
C      1  0.5290680000000  0.4629730000000  0.5980660000000 1.0
C      1  0.4940370000000  0.5317790000000  0.5810310000000 1.0
C      1  0.4618270000000  0.5036110000000  0.4863210000000 1.0
C      1  0.5131620000000  0.5298740000000  0.4203340000000 1.0
C      1  0.4832070000000  0.5159880000000  0.5364860000000 1.0
C      1  0.4590480000000  0.5169230000000  0.5766740000000 1.0
C      1  0.5457380000000  0.4879100000000  0.4611810000000 1.0
C      1  0.5371970000000  0.5292830000000  0.4834710000000 1.0
C      1  0.4082770000000  0.4794120000000  0.5286800000000 1.0
END
