TITL C-599893-4344-1197 0.252101625138093 125000 -136.609305963989 0 0 24 (C1) n - 1
REM
REM in /home/nfs/bkarasulu/CARBON/AIRSS/Generating-Clusters/TERSOFF/Only-C1/FIRE-HFTN
REM
REM
REM
REM
REM
REM ./C.cell (11c1c37f851c82e70ff6c80c92926a4b)
REM AIRSS Version 0.9.1 bugfix July 2018 build 013d7b7c2542+ Fri, 06 Jul 2018 19:26:36 +0100
REM compiler GCC version 9.2.1 20190827 (Red Hat 9.2.1-1)
REM options -cpp -mtune=generic -march=x86-64 -g -O0 -fpre-include=/usr/include/finclude/math-vector-fortran.h
REM seed -1169020258 1253248910 -1992935472 146234633 -1852476746 163207253 -1868991418 -1364049257 -182857644 376881947 2066254659 2027124456 2085909329 -219845371 1076552684 1120749373 -1162478650 -1319282861 -115739076 2067550642 -1426623348 408008953 1150294909 -890495152 -2023942238 89054258 -787690996 574825103 1218146041 345063855 -893379698 306572350 -45177505
REM
CELL 1.54180   50.00000   50.00000   50.00000   90.00000   90.00000   90.00000
LATT -1
SFAC C  
C      1  0.5593440000000  0.4865600000000  0.5113490000000 1.0
C      1  0.4987790000000  0.5494900000000  0.5018320000000 1.0
C      1  0.4583520000000  0.4945320000000  0.4893640000000 1.0
C      1  0.4552970000000  0.5707130000000  0.4950230000000 1.0
C      1  0.4884100000000  0.4334630000000  0.5223370000000 1.0
C      1  0.5704180000000  0.5600060000000  0.5154760000000 1.0
C      1  0.4581830000000  0.4821620000000  0.4641280000000 1.0
C      1  0.5881440000000  0.5787270000000  0.5192900000000 1.0
C      1  0.4600880000000  0.5221950000000  0.4920330000000 1.0
C      1  0.4430740000000  0.5799180000000  0.5177390000000 1.0
C      1  0.5590420000000  0.5130680000000  0.5119920000000 1.0
C      1  0.4835170000000  0.4395260000000  0.4558180000000 1.0
C      1  0.4679010000000  0.4607610000000  0.4514060000000 1.0
C      1  0.4984120000000  0.4283510000000  0.4749680000000 1.0
C      1  0.4716090000000  0.4559530000000  0.5229200000000 1.0
C      1  0.4865220000000  0.4135570000000  0.5409240000000 1.0
C      1  0.5334490000000  0.4418070000000  0.5057980000000 1.0
C      1  0.4612050000000  0.4777140000000  0.5116760000000 1.0
C      1  0.5075660000000  0.4323080000000  0.5012100000000 1.0
C      1  0.5509550000000  0.4614670000000  0.5092660000000 1.0
C      1  0.5514100000000  0.5399590000000  0.5113860000000 1.0
C      1  0.4521870000000  0.5836690000000  0.4710940000000 1.0
C      1  0.4714490000000  0.5473650000000  0.4963010000000 1.0
C      1  0.5246870000000  0.5467290000000  0.5066730000000 1.0
END
