TITL C-599891-72-1378 -0.163531693051266 125000 -571.669956387082 0 0 97 (C1) n - 1
REM
REM in /home/nfs/bkarasulu/CARBON/AIRSS/Generating-Clusters/TERSOFF/Only-C1/FIRE-HFTN
REM
REM
REM
REM
REM
REM ./C.cell (11c1c37f851c82e70ff6c80c92926a4b)
REM AIRSS Version 0.9.1 bugfix July 2018 build 013d7b7c2542+ Fri, 06 Jul 2018 19:26:36 +0100
REM compiler GCC version 9.2.1 20190827 (Red Hat 9.2.1-1)
REM options -cpp -mtune=generic -march=x86-64 -g -O0 -fpre-include=/usr/include/finclude/math-vector-fortran.h
REM seed 557929112 1137852082 225820108 1261668758 1793906163 -1007157502 -1096506168 22776922 1694284470 -1403370409 -1939204858 1449208741 -1029575923 420894636 914871374 -2136879969 -154751612 -1102028246 772795442 -487194975 -1823484202 2103913559 -666046627 -2098251468 -1778394339 318224489 1186353468 23195368 -1627815950 439194183 -1050929270 -740844931 -524809317
REM
CELL 1.54180   50.00000   50.00000   50.00000   90.00000   90.00000   90.00000
LATT -1
SFAC C  
C      1  0.5147140000000  0.4881800000000  0.4784570000000 1.0
C      1  0.4914020000000  0.4925390000000  0.5950560000000 1.0
C      1  0.5338230000000  0.4618520000000  0.5910750000000 1.0
C      1  0.4284540000000  0.4960250000000  0.5456500000000 1.0
C      1  0.5048560000000  0.4656550000000  0.5938150000000 1.0
C      1  0.5003640000000  0.5719630000000  0.4820920000000 1.0
C      1  0.5009400000000  0.5466460000000  0.4985780000000 1.0
C      1  0.4594140000000  0.5535260000000  0.5856850000000 1.0
C      1  0.4412310000000  0.4275140000000  0.4867810000000 1.0
C      1  0.5232600000000  0.5601770000000  0.5689190000000 1.0
C      1  0.4391320000000  0.5438220000000  0.5389190000000 1.0
C      1  0.5502840000000  0.4565690000000  0.6121360000000 1.0
C      1  0.4547410000000  0.4836580000000  0.4123650000000 1.0
C      1  0.5187400000000  0.4592490000000  0.4890420000000 1.0
C      1  0.4970590000000  0.4216360000000  0.5101060000000 1.0
C      1  0.4683160000000  0.4887280000000  0.4615920000000 1.0
C      1  0.4209330000000  0.4506840000000  0.4851880000000 1.0
C      1  0.4846750000000  0.5267760000000  0.4154940000000 1.0
C      1  0.4655210000000  0.5931590000000  0.5009220000000 1.0
C      1  0.4733350000000  0.4192230000000  0.5294730000000 1.0
C      1  0.5466930000000  0.5820720000000  0.5053340000000 1.0
C      1  0.5279350000000  0.5330320000000  0.4958510000000 1.0
C      1  0.5197020000000  0.5384750000000  0.5856170000000 1.0
C      1  0.4486740000000  0.5575730000000  0.5614990000000 1.0
C      1  0.4634620000000  0.4904380000000  0.5872290000000 1.0
C      1  0.4456360000000  0.5785970000000  0.4869430000000 1.0
C      1  0.5009020000000  0.5470770000000  0.5297050000000 1.0
C      1  0.5607050000000  0.4768130000000  0.4396440000000 1.0
C      1  0.5152280000000  0.5684220000000  0.5426360000000 1.0
C      1  0.5205890000000  0.5874550000000  0.5203660000000 1.0
C      1  0.4865880000000  0.5028300000000  0.5248320000000 1.0
C      1  0.4970080000000  0.4617160000000  0.5409060000000 1.0
C      1  0.4285400000000  0.5289580000000  0.4637760000000 1.0
C      1  0.5506440000000  0.5126100000000  0.5358340000000 1.0
C      1  0.4207620000000  0.5229950000000  0.5443930000000 1.0
C      1  0.6007480000000  0.5031700000000  0.4859600000000 1.0
C      1  0.5026390000000  0.5204370000000  0.5393260000000 1.0
C      1  0.4838580000000  0.4365560000000  0.5543130000000 1.0
C      1  0.4724760000000  0.5102680000000  0.4806520000000 1.0
C      1  0.4953980000000  0.5918870000000  0.5029510000000 1.0
C      1  0.4889430000000  0.4428200000000  0.5826220000000 1.0
C      1  0.5472900000000  0.5332330000000  0.5170190000000 1.0
C      1  0.4667900000000  0.4632140000000  0.4736630000000 1.0
C      1  0.5246310000000  0.4127360000000  0.5186170000000 1.0
C      1  0.5790700000000  0.5471370000000  0.4763660000000 1.0
C      1  0.4874880000000  0.4874640000000  0.4408250000000 1.0
C      1  0.5254340000000  0.5050870000000  0.5469370000000 1.0
C      1  0.5656620000000  0.5673120000000  0.4906660000000 1.0
C      1  0.5427610000000  0.4644500000000  0.5638030000000 1.0
C      1  0.4756150000000  0.5383220000000  0.6007500000000 1.0
C      1  0.4925930000000  0.5774840000000  0.4559700000000 1.0
C      1  0.5632790000000  0.5469310000000  0.4233710000000 1.0
C      1  0.5567020000000  0.4976880000000  0.4858780000000 1.0
C      1  0.4181510000000  0.4794360000000  0.4937430000000 1.0
C      1  0.4723380000000  0.4612820000000  0.5010290000000 1.0
C      1  0.4289280000000  0.4812080000000  0.5205250000000 1.0
C      1  0.4183730000000  0.5047820000000  0.4782940000000 1.0
C      1  0.5167330000000  0.4359230000000  0.4703590000000 1.0
C      1  0.4398380000000  0.5235550000000  0.4375340000000 1.0
C      1  0.4589640000000  0.5117580000000  0.4190280000000 1.0
C      1  0.5700650000000  0.4917310000000  0.5315860000000 1.0
C      1  0.4547450000000  0.4695310000000  0.5206570000000 1.0
C      1  0.5127970000000  0.5206430000000  0.4225620000000 1.0
C      1  0.5397190000000  0.5809540000000  0.4469580000000 1.0
C      1  0.5734300000000  0.5030360000000  0.4390310000000 1.0
C      1  0.4651300000000  0.4335310000000  0.4660950000000 1.0
C      1  0.4704180000000  0.4364840000000  0.4350040000000 1.0
C      1  0.5361180000000  0.5118720000000  0.4069820000000 1.0
C      1  0.5646050000000  0.4651470000000  0.5449550000000 1.0
C      1  0.5813800000000  0.4569590000000  0.5019620000000 1.0
C      1  0.4330360000000  0.5566120000000  0.4747080000000 1.0
C      1  0.4987240000000  0.5216000000000  0.5964120000000 1.0
C      1  0.4567720000000  0.4572440000000  0.4196520000000 1.0
C      1  0.4478830000000  0.4154730000000  0.5142150000000 1.0
C      1  0.5423760000000  0.5544570000000  0.4413050000000 1.0
C      1  0.4998050000000  0.4531350000000  0.5119340000000 1.0
C      1  0.4837910000000  0.5742680000000  0.4310690000000 1.0
C      1  0.4716500000000  0.5358890000000  0.4934250000000 1.0
C      1  0.4529980000000  0.5421130000000  0.5143750000000 1.0
C      1  0.5627080000000  0.5192030000000  0.4174460000000 1.0
C      1  0.4983400000000  0.4315920000000  0.4274120000000 1.0
C      1  0.5342600000000  0.4653320000000  0.4387820000000 1.0
C      1  0.5256650000000  0.5312980000000  0.4473250000000 1.0
C      1  0.4529110000000  0.4901120000000  0.5612960000000 1.0
C      1  0.5217310000000  0.4392540000000  0.4424620000000 1.0
C      1  0.4284560000000  0.3996050000000  0.5258080000000 1.0
C      1  0.4731320000000  0.4816960000000  0.5406330000000 1.0
C      1  0.5884540000000  0.5203930000000  0.4657080000000 1.0
C      1  0.5208200000000  0.4771130000000  0.5504690000000 1.0
C      1  0.5495260000000  0.4227420000000  0.5225410000000 1.0
C      1  0.5676310000000  0.4444190000000  0.5244130000000 1.0
C      1  0.4929560000000  0.4982130000000  0.4973380000000 1.0
C      1  0.5133940000000  0.4823670000000  0.4488850000000 1.0
C      1  0.4805520000000  0.5548480000000  0.4129350000000 1.0
C      1  0.5326330000000  0.5119110000000  0.4766920000000 1.0
C      1  0.4922770000000  0.4208490000000  0.4792680000000 1.0
C      1  0.5801480000000  0.4875870000000  0.5015920000000 1.0
END
