TITL C-599897-7526-630 0.0494102236141781 125000 -86.9380984407992 0 0 16 (Cs) n - 1
REM
REM in /home/nfs/bkarasulu/CARBON/AIRSS/Generating-Clusters/TERSOFF/Only-C1/FIRE-HFTN
REM
REM
REM
REM
REM
REM ./C.cell (11c1c37f851c82e70ff6c80c92926a4b)
REM AIRSS Version 0.9.1 bugfix July 2018 build 013d7b7c2542+ Fri, 06 Jul 2018 19:26:36 +0100
REM compiler GCC version 9.2.1 20190827 (Red Hat 9.2.1-1)
REM options -cpp -mtune=generic -march=x86-64 -g -O0 -fpre-include=/usr/include/finclude/math-vector-fortran.h
REM seed 1999181612 1779504015 -1865618050 572636150 -513651727 -138701965 -843544587 1258038306 -104458761 955737979 1125688127 1486793534 -1179892267 977889643 859790686 766066892 -770942399 -423225308 -313774041 -126747574 478116064 2108787862 2061961984 -53475138 629053149 1490631671 -265629266 1985670925 602548485 605558715 -2079601541 -2002833461 -1868850439
REM
CELL 1.54180   50.00000   50.00000   50.00000   90.00000   90.00000   90.00000
LATT -1
SFAC C  
C      1  0.5204780000000  0.5799020000000  0.5232560000000 1.0
C      1  0.4794130000000  0.4490720000000  0.4368600000000 1.0
C      1  0.4855660000000  0.4615780000000  0.4593980000000 1.0
C      1  0.4917180000000  0.4740840000000  0.4819370000000 1.0
C      1  0.5162000000000  0.5399250000000  0.5498940000000 1.0
C      1  0.4610540000000  0.4117550000000  0.3696040000000 1.0
C      1  0.5105430000000  0.5125970000000  0.5505650000000 1.0
C      1  0.4978700000000  0.4865900000000  0.5044750000000 1.0
C      1  0.5192490000000  0.5913510000000  0.4998760000000 1.0
C      1  0.4671070000000  0.4240580000000  0.3917770000000 1.0
C      1  0.5040230000000  0.4991180000000  0.5269870000000 1.0
C      1  0.5122250000000  0.4858830000000  0.5974590000000 1.0
C      1  0.5281930000000  0.5815050000000  0.5706090000000 1.0
C      1  0.4732610000000  0.4365670000000  0.4143210000000 1.0
C      1  0.5216970000000  0.5672700000000  0.5481760000000 1.0
C      1  0.5114030000000  0.4987450000000  0.5748070000000 1.0
END
