TITL C-599897-7526-348 6.22448604200379e-05 125000 -373.509577641649 0 0 61 (C1) n - 1
REM
REM in /home/nfs/bkarasulu/CARBON/AIRSS/Generating-Clusters/TERSOFF/Only-C1/FIRE-HFTN
REM
REM
REM
REM
REM
REM ./C.cell (11c1c37f851c82e70ff6c80c92926a4b)
REM AIRSS Version 0.9.1 bugfix July 2018 build 013d7b7c2542+ Fri, 06 Jul 2018 19:26:36 +0100
REM compiler GCC version 9.2.1 20190827 (Red Hat 9.2.1-1)
REM options -cpp -mtune=generic -march=x86-64 -g -O0 -fpre-include=/usr/include/finclude/math-vector-fortran.h
REM seed -1686773235 -1584102204 1792148918 2135403957 -1510455638 -2127597232 -1567214322 1215716808 799110241 1001955515 -464439819 -1031264714 -1930488302 830314376 -595518659 -1839987497 804084523 1041442610 -641705998 704304821 1399269935 1871270668 -2138282667 1956536412 -957833994 -557177979 -417159040 51676988 627575463 -348015781 -761218977 -1583047376 1130764163
REM
CELL 1.54180   50.00000   50.00000   50.00000   90.00000   90.00000   90.00000
LATT -1
SFAC C  
C      1  0.5482210000000  0.4899180000000  0.5846890000000 1.0
C      1  0.5599720000000  0.5497030000000  0.5420130000000 1.0
C      1  0.4165840000000  0.4692480000000  0.5091650000000 1.0
C      1  0.4478750000000  0.4282640000000  0.4679870000000 1.0
C      1  0.4605500000000  0.5743930000000  0.4508910000000 1.0
C      1  0.4844950000000  0.5140660000000  0.4575650000000 1.0
C      1  0.4166220000000  0.4989910000000  0.5154560000000 1.0
C      1  0.4973820000000  0.4869910000000  0.5169230000000 1.0
C      1  0.5790670000000  0.4959980000000  0.4681900000000 1.0
C      1  0.4990730000000  0.5013740000000  0.5394550000000 1.0
C      1  0.4362780000000  0.5734690000000  0.4617900000000 1.0
C      1  0.5008490000000  0.4916360000000  0.4514930000000 1.0
C      1  0.4593630000000  0.5240130000000  0.5302660000000 1.0
C      1  0.4960170000000  0.4224440000000  0.4895710000000 1.0
C      1  0.4109940000000  0.4641420000000  0.4809490000000 1.0
C      1  0.5259640000000  0.5105210000000  0.4890950000000 1.0
C      1  0.5682970000000  0.5150390000000  0.4522940000000 1.0
C      1  0.5377210000000  0.4657640000000  0.4659820000000 1.0
C      1  0.5169340000000  0.4853520000000  0.4272240000000 1.0
C      1  0.4833370000000  0.5619040000000  0.4450280000000 1.0
C      1  0.4975810000000  0.5379410000000  0.4463400000000 1.0
C      1  0.5746100000000  0.4941790000000  0.5165090000000 1.0
C      1  0.5396740000000  0.4627370000000  0.5358660000000 1.0
C      1  0.5228570000000  0.4573770000000  0.5593490000000 1.0
C      1  0.5349750000000  0.4645530000000  0.4371530000000 1.0
C      1  0.5552600000000  0.5574820000000  0.4689630000000 1.0
C      1  0.4820140000000  0.5222490000000  0.5483530000000 1.0
C      1  0.4689140000000  0.5312710000000  0.5032400000000 1.0
C      1  0.4695600000000  0.4656390000000  0.5588810000000 1.0
C      1  0.5538320000000  0.4597860000000  0.4883560000000 1.0
C      1  0.5526740000000  0.5046500000000  0.5607820000000 1.0
C      1  0.4389750000000  0.5037730000000  0.5340900000000 1.0
C      1  0.5737870000000  0.4802590000000  0.4916380000000 1.0
C      1  0.5728150000000  0.5456800000000  0.5173030000000 1.0
C      1  0.4021630000000  0.4900820000000  0.4716930000000 1.0
C      1  0.5458080000000  0.5326210000000  0.5594600000000 1.0
C      1  0.5174740000000  0.4309870000000  0.5034850000000 1.0
C      1  0.4619070000000  0.4618800000000  0.5000540000000 1.0
C      1  0.5565020000000  0.4871700000000  0.5376020000000 1.0
C      1  0.5497540000000  0.5369170000000  0.4502630000000 1.0
C      1  0.5247880000000  0.5330040000000  0.4356450000000 1.0
C      1  0.4709960000000  0.5098720000000  0.4833590000000 1.0
C      1  0.4778180000000  0.4845330000000  0.4965940000000 1.0
C      1  0.4063500000000  0.5112120000000  0.4911900000000 1.0
C      1  0.5348540000000  0.4662870000000  0.5837050000000 1.0
C      1  0.4416480000000  0.4603380000000  0.5196890000000 1.0
C      1  0.4945150000000  0.4552790000000  0.5596920000000 1.0
C      1  0.4932770000000  0.5464350000000  0.5030900000000 1.0
C      1  0.5213790000000  0.5418890000000  0.5703210000000 1.0
C      1  0.5387440000000  0.4486410000000  0.5106330000000 1.0
C      1  0.5252630000000  0.5106970000000  0.4169560000000 1.0
C      1  0.5658840000000  0.5594680000000  0.4936810000000 1.0
C      1  0.4253910000000  0.4433030000000  0.4684680000000 1.0
C      1  0.5852720000000  0.5203460000000  0.5156590000000 1.0
C      1  0.4487940000000  0.4764520000000  0.5431210000000 1.0
C      1  0.5171770000000  0.5342540000000  0.4986200000000 1.0
C      1  0.5203220000000  0.4879800000000  0.4727630000000 1.0
C      1  0.4726650000000  0.4211870000000  0.4761000000000 1.0
C      1  0.4063880000000  0.5382570000000  0.4850610000000 1.0
C      1  0.4948120000000  0.5399310000000  0.5659280000000 1.0
C      1  0.4169320000000  0.5601750000000  0.4743190000000 1.0
END
