TITL C-599891-72-5 26.3706261399645 125000 -257.648372963132 0 0 44 (C1) n - 1
REM
REM in /home/nfs/bkarasulu/CARBON/AIRSS/Generating-Clusters/TERSOFF/Only-C1/FIRE-HFTN
REM
REM
REM
REM
REM
REM ./C.cell (11c1c37f851c82e70ff6c80c92926a4b)
REM AIRSS Version 0.9.1 bugfix July 2018 build 013d7b7c2542+ Fri, 06 Jul 2018 19:26:36 +0100
REM compiler GCC version 9.2.1 20190827 (Red Hat 9.2.1-1)
REM options -cpp -mtune=generic -march=x86-64 -g -O0 -fpre-include=/usr/include/finclude/math-vector-fortran.h
REM seed -1834241945 152855819 -1327885809 -395085051 319556314 971314499 -469827213 2082378620 -2074206288 -2077416947 -1303473217 -877062991 -142185529 -1914966337 948237567 -128397222 -57382306 -654559016 1519555900 369457652 1470027209 14973800 1198154743 -47697853 -41439985 693918514 1505564388 1235734466 -1886394656 -250794820 -709653939 -1318485363 -1599202674
REM
CELL 1.54180   50.00000   50.00000   50.00000   90.00000   90.00000   90.00000
LATT -1
SFAC C  
C      1  0.4587460000000  0.4448050000000  0.4093300000000 1.0
C      1  0.4475920000000  0.4228070000000  0.3962840000000 1.0
C      1  0.5034160000000  0.4435290000000  0.4704030000000 1.0
C      1  0.5388320000000  0.5330290000000  0.4690430000000 1.0
C      1  0.4820730000000  0.4418780000000  0.4245780000000 1.0
C      1  0.5824080000000  0.5391310000000  0.7697200000000 1.0
C      1  0.4844780000000  0.3984360000000  0.4926830000000 1.0
C      1  0.5220500000000  0.5100980000000  0.4670810000000 1.0
C      1  0.5020500000000  0.4501430000000  0.4420190000000 1.0
C      1  0.5169640000000  0.4944050000000  0.4178670000000 1.0
C      1  0.5226650000000  0.5560980000000  0.4759800000000 1.0
C      1  0.4938320000000  0.4202770000000  0.4819770000000 1.0
C      1  0.5670440000000  0.5350780000000  0.7196020000000 1.0
C      1  0.5360700000000  0.5269070000000  0.6185590000000 1.0
C      1  0.4656780000000  0.5576140000000  0.4868930000000 1.0
C      1  0.5283260000000  0.5248640000000  0.5933000000000 1.0
C      1  0.4668370000000  0.5383050000000  0.4264000000000 1.0
C      1  0.4490470000000  0.5212760000000  0.4160180000000 1.0
C      1  0.5261080000000  0.4829020000000  0.4636310000000 1.0
C      1  0.5114260000000  0.5210820000000  0.4194640000000 1.0
C      1  0.4160340000000  0.3603180000000  0.3595370000000 1.0
C      1  0.5515580000000  0.5309930000000  0.6690800000000 1.0
C      1  0.5127590000000  0.4961020000000  0.5280370000000 1.0
C      1  0.5143090000000  0.4758420000000  0.5104350000000 1.0
C      1  0.4467180000000  0.4700510000000  0.4073320000000 1.0
C      1  0.5593010000000  0.5330360000000  0.6943410000000 1.0
C      1  0.5747900000000  0.5371210000000  0.7448690000000 1.0
C      1  0.4774760000000  0.5746660000000  0.4662980000000 1.0
C      1  0.5205570000000  0.5228610000000  0.5680570000000 1.0
C      1  0.4939350000000  0.5371210000000  0.4385680000000 1.0
C      1  0.5166450000000  0.4651610000000  0.4845290000000 1.0
C      1  0.4427560000000  0.4962470000000  0.4094730000000 1.0
C      1  0.5028960000000  0.5446260000000  0.5280020000000 1.0
C      1  0.4264400000000  0.3809230000000  0.3716530000000 1.0
C      1  0.5120670000000  0.5211570000000  0.5415260000000 1.0
C      1  0.5182500000000  0.4736350000000  0.4370650000000 1.0
C      1  0.4787480000000  0.5590770000000  0.5340380000000 1.0
C      1  0.4834440000000  0.5337900000000  0.4863670000000 1.0
C      1  0.5021920000000  0.5635470000000  0.4542880000000 1.0
C      1  0.5078360000000  0.5458340000000  0.4999800000000 1.0
C      1  0.4370190000000  0.4018730000000  0.3839720000000 1.0
C      1  0.4938630000000  0.5188190000000  0.4639310000000 1.0
C      1  0.4609530000000  0.5655880000000  0.5139710000000 1.0
C      1  0.5438140000000  0.5289500000000  0.6438200000000 1.0
END
