TITL C-599895-9959-624 319.866550395725 125000 -921.785041887703 0 0 151 (C1) n - 1
REM
REM in /home/nfs/bkarasulu/CARBON/AIRSS/Generating-Clusters/TERSOFF/Only-C1/FIRE-HFTN
REM
REM
REM
REM
REM
REM ./C.cell (11c1c37f851c82e70ff6c80c92926a4b)
REM AIRSS Version 0.9.1 bugfix July 2018 build 013d7b7c2542+ Fri, 06 Jul 2018 19:26:36 +0100
REM compiler GCC version 9.2.1 20190827 (Red Hat 9.2.1-1)
REM options -cpp -mtune=generic -march=x86-64 -g -O0 -fpre-include=/usr/include/finclude/math-vector-fortran.h
REM seed 668452927 682828522 2002219158 529403628 1708561036 658159038 -1510990019 -1488243554 1587496097 1750345458 528349797 -1905181605 830838078 2141059020 109050365 834777896 839230372 -1305355664 -1283407457 -28279821 1160642465 2018194354 -1091756076 -915649645 -611651330 406182747 1907150988 1109879347 -64930753 -1418531937 -1252908150 -1406864554 -89251037
REM
CELL 1.54180   50.00000   50.00000   50.00000   90.00000   90.00000   90.00000
LATT -1
SFAC C  
C      1  0.3937590000000  0.4624190000000  0.5741040000000 1.0
C      1  0.4300010000000  0.4888290000000  0.4197590000000 1.0
C      1  0.4751570000000  0.5473640000000  0.5482170000000 1.0
C      1  0.4877980000000  0.5033940000000  0.5224670000000 1.0
C      1  0.5863590000000  0.4364400000000  0.5708370000000 1.0
C      1  0.5396740000000  0.5957630000000  0.4402530000000 1.0
C      1  0.5382020000000  0.5323300000000  0.5323170000000 1.0
C      1  0.5201130000000  0.4439810000000  0.4592880000000 1.0
C      1  0.5017270000000  0.4563520000000  0.5561490000000 1.0
C      1  0.5342330000000  0.3820920000000  0.4004420000000 1.0
C      1  0.5388760000000  0.5034150000000  0.3895870000000 1.0
C      1  0.4575030000000  0.5348160000000  0.4938190000000 1.0
C      1  0.5693370000000  0.5513510000000  0.5747550000000 1.0
C      1  0.4365010000000  0.4690670000000  0.6124860000000 1.0
C      1  0.5494820000000  0.5921160000000  0.4669960000000 1.0
C      1  0.5152190000000  0.4839150000000  0.4873420000000 1.0
C      1  0.5412060000000  0.4886130000000  0.5584510000000 1.0
C      1  0.5472240000000  0.5622760000000  0.3888680000000 1.0
C      1  0.5886910000000  0.4768480000000  0.3676940000000 1.0
C      1  0.5372970000000  0.5003260000000  0.5308770000000 1.0
C      1  0.5237630000000  0.4211770000000  0.5164040000000 1.0
C      1  0.5202060000000  0.4532500000000  0.3933780000000 1.0
C      1  0.4183160000000  0.5444070000000  0.5394050000000 1.0
C      1  0.4782070000000  0.5047630000000  0.5491560000000 1.0
C      1  0.4934610000000  0.5872980000000  0.4986660000000 1.0
C      1  0.4696250000000  0.4051960000000  0.4576410000000 1.0
C      1  0.5165340000000  0.5308340000000  0.4675480000000 1.0
C      1  0.5156950000000  0.5820160000000  0.5523440000000 1.0
C      1  0.5018970000000  0.4405370000000  0.4364860000000 1.0
C      1  0.4854880000000  0.5897820000000  0.5552020000000 1.0
C      1  0.4308620000000  0.4285020000000  0.5828100000000 1.0
C      1  0.5644660000000  0.5657750000000  0.5067510000000 1.0
C      1  0.5819680000000  0.4721810000000  0.4593050000000 1.0
C      1  0.5941160000000  0.4495360000000  0.5489220000000 1.0
C      1  0.6020810000000  0.4350450000000  0.5029080000000 1.0
C      1  0.5620750000000  0.5955510000000  0.5540550000000 1.0
C      1  0.4122570000000  0.5345550000000  0.5660270000000 1.0
C      1  0.4246820000000  0.4271550000000  0.4992880000000 1.0
C      1  0.4412840000000  0.5811790000000  0.4860400000000 1.0
C      1  0.5900600000000  0.5034940000000  0.3666740000000 1.0
C      1  0.5015830000000  0.5455530000000  0.3963120000000 1.0
C      1  0.4177540000000  0.4661290000000  0.4340780000000 1.0
C      1  0.5314870000000  0.4673870000000  0.4693830000000 1.0
C      1  0.4268610000000  0.5721160000000  0.4632390000000 1.0
C      1  0.5574870000000  0.4256810000000  0.6085200000000 1.0
C      1  0.5124440000000  0.4903420000000  0.5162950000000 1.0
C      1  0.5584930000000  0.5079250000000  0.4877820000000 1.0
C      1  0.5360530000000  0.4300500000000  0.3912290000000 1.0
C      1  0.3943900000000  0.5112510000000  0.5669540000000 1.0
C      1  0.5502310000000  0.6168110000000  0.4259380000000 1.0
C      1  0.5542460000000  0.5904400000000  0.4953590000000 1.0
C      1  0.5882220000000  0.4193350000000  0.4855550000000 1.0
C      1  0.4833350000000  0.4079080000000  0.4832160000000 1.0
C      1  0.4745580000000  0.4486960000000  0.4476890000000 1.0
C      1  0.5368000000000  0.5991810000000  0.5418530000000 1.0
C      1  0.4961250000000  0.5485410000000  0.5303280000000 1.0
C      1  0.3686290000000  0.4953290000000  0.5221370000000 1.0
C      1  0.5098890000000  0.6084300000000  0.5026480000000 1.0
C      1  0.4794400000000  0.5166300000000  0.4976810000000 1.0
C      1  0.5454230000000  0.4362310000000  0.5034150000000 1.0
C      1  0.4102610000000  0.5259210000000  0.5180330000000 1.0
C      1  0.5786420000000  0.5244370000000  0.5699630000000 1.0
C      1  0.4765870000000  0.4979500000000  0.4000830000000 1.0
C      1  0.5210500000000  0.5484050000000  0.4907930000000 1.0
C      1  0.5444420000000  0.5184990000000  0.4639480000000 1.0
C      1  0.5060040000000  0.4613590000000  0.4158490000000 1.0
C      1  0.4923960000000  0.4848830000000  0.4209530000000 1.0
C      1  0.4419030000000  0.4440600000000  0.6038340000000 1.0
C      1  0.4978010000000  0.4996230000000  0.5982960000000 1.0
C      1  0.4831350000000  0.5260170000000  0.4055270000000 1.0
C      1  0.4104290000000  0.5344650000000  0.4895270000000 1.0
C      1  0.5842350000000  0.5613710000000  0.5273450000000 1.0
C      1  0.5545040000000  0.4764090000000  0.4539960000000 1.0
C      1  0.5359630000000  0.6047870000000  0.5133230000000 1.0
C      1  0.6009010000000  0.5377340000000  0.5267090000000 1.0
C      1  0.4457870000000  0.4094320000000  0.5687510000000 1.0
C      1  0.4685540000000  0.5799820000000  0.4378310000000 1.0
C      1  0.5998420000000  0.5230540000000  0.5510900000000 1.0
C      1  0.4515970000000  0.4593480000000  0.5382960000000 1.0
C      1  0.4768310000000  0.4529070000000  0.5462050000000 1.0
C      1  0.3956300000000  0.4717700000000  0.4514120000000 1.0
C      1  0.4848390000000  0.5147530000000  0.6179510000000 1.0
C      1  0.4499350000000  0.4875410000000  0.3989880000000 1.0
C      1  0.4984640000000  0.5063970000000  0.4741920000000 1.0
C      1  0.5649820000000  0.4219300000000  0.5818100000000 1.0
C      1  0.4508220000000  0.5016390000000  0.5538230000000 1.0
C      1  0.5491690000000  0.5017830000000  0.4413710000000 1.0
C      1  0.4614000000000  0.5721710000000  0.5500610000000 1.0
C      1  0.4989690000000  0.5592850000000  0.6105300000000 1.0
C      1  0.5610200000000  0.4200640000000  0.4850940000000 1.0
C      1  0.4489500000000  0.5613770000000  0.5049610000000 1.0
C      1  0.5248790000000  0.4620240000000  0.6188240000000 1.0
C      1  0.3755360000000  0.5061780000000  0.5459020000000 1.0
C      1  0.4285960000000  0.5425300000000  0.5879770000000 1.0
C      1  0.5885060000000  0.4516870000000  0.5216300000000 1.0
C      1  0.4765440000000  0.5269060000000  0.4362790000000 1.0
C      1  0.6027580000000  0.4856810000000  0.4699350000000 1.0
C      1  0.5228790000000  0.5640760000000  0.4027350000000 1.0
C      1  0.4864780000000  0.3944420000000  0.4369920000000 1.0
C      1  0.5615450000000  0.4339260000000  0.3802570000000 1.0
C      1  0.5252170000000  0.5613580000000  0.6048860000000 1.0
C      1  0.4967210000000  0.4114930000000  0.5084230000000 1.0
C      1  0.4059840000000  0.4383690000000  0.5733560000000 1.0
C      1  0.4300930000000  0.4397730000000  0.4369530000000 1.0
C      1  0.5759330000000  0.5707920000000  0.5539500000000 1.0
C      1  0.4931260000000  0.5091410000000  0.5721290000000 1.0
C      1  0.4046570000000  0.5558840000000  0.4718900000000 1.0
C      1  0.5218780000000  0.4707250000000  0.5703840000000 1.0
C      1  0.4389630000000  0.4471050000000  0.4903420000000 1.0
C      1  0.5793170000000  0.4522740000000  0.3723000000000 1.0
C      1  0.4387620000000  0.5650530000000  0.5323400000000 1.0
C      1  0.4472320000000  0.4720590000000  0.4801760000000 1.0
C      1  0.4191690000000  0.4882620000000  0.6046570000000 1.0
C      1  0.5619880000000  0.4603030000000  0.5126430000000 1.0
C      1  0.5577960000000  0.4896200000000  0.5105800000000 1.0
C      1  0.5047370000000  0.4126080000000  0.4247650000000 1.0
C      1  0.4768210000000  0.5417360000000  0.6131990000000 1.0
C      1  0.6122140000000  0.5055750000000  0.4852960000000 1.0
C      1  0.4990990000000  0.5601700000000  0.5042910000000 1.0
C      1  0.5194730000000  0.5798080000000  0.4271040000000 1.0
C      1  0.5203730000000  0.5527240000000  0.5453860000000 1.0
C      1  0.5471340000000  0.4098970000000  0.5637380000000 1.0
C      1  0.5416790000000  0.4416710000000  0.6229600000000 1.0
C      1  0.5147680000000  0.4772030000000  0.5978390000000 1.0
C      1  0.3714540000000  0.4855170000000  0.4971770000000 1.0
C      1  0.5617870000000  0.5019110000000  0.5730210000000 1.0
C      1  0.5252980000000  0.4074680000000  0.4053060000000 1.0
C      1  0.4336370000000  0.4939950000000  0.4904330000000 1.0
C      1  0.4631350000000  0.4008520000000  0.5503560000000 1.0
C      1  0.4830800000000  0.4976080000000  0.4484860000000 1.0
C      1  0.4808570000000  0.4022690000000  0.5304440000000 1.0
C      1  0.4671480000000  0.4737400000000  0.4595940000000 1.0
C      1  0.4363580000000  0.4836680000000  0.5378300000000 1.0
C      1  0.4005470000000  0.4885490000000  0.5833210000000 1.0
C      1  0.4977390000000  0.5446800000000  0.4487480000000 1.0
C      1  0.5467200000000  0.5058970000000  0.4143240000000 1.0
C      1  0.5679830000000  0.5497510000000  0.3776670000000 1.0
C      1  0.4475700000000  0.5360380000000  0.4365720000000 1.0
C      1  0.5830140000000  0.5290540000000  0.3699470000000 1.0
C      1  0.6109260000000  0.5250660000000  0.5036760000000 1.0
C      1  0.4542930000000  0.4283630000000  0.4473520000000 1.0
C      1  0.4445150000000  0.5642660000000  0.4420330000000 1.0
C      1  0.5322850000000  0.4108580000000  0.5416720000000 1.0
C      1  0.5443440000000  0.5456390000000  0.5069420000000 1.0
C      1  0.4286270000000  0.5154980000000  0.4305990000000 1.0
C      1  0.4505450000000  0.5461110000000  0.6032730000000 1.0
C      1  0.5494400000000  0.5570270000000  0.5941090000000 1.0
C      1  0.3809780000000  0.4779330000000  0.4731480000000 1.0
C      1  0.4958070000000  0.5718510000000  0.4408190000000 1.0
C      1  0.4220010000000  0.4970610000000  0.5173340000000 1.0
C      1  0.4351590000000  0.5210220000000  0.4818270000000 1.0
END
