TITL C-599891-72-1368 -0.0441972287006477 125000 -142.424662102378 0 0 26 (C1) n - 1
REM
REM in /home/nfs/bkarasulu/CARBON/AIRSS/Generating-Clusters/TERSOFF/Only-C1/FIRE-HFTN
REM
REM
REM
REM
REM
REM ./C.cell (11c1c37f851c82e70ff6c80c92926a4b)
REM AIRSS Version 0.9.1 bugfix July 2018 build 013d7b7c2542+ Fri, 06 Jul 2018 19:26:36 +0100
REM compiler GCC version 9.2.1 20190827 (Red Hat 9.2.1-1)
REM options -cpp -mtune=generic -march=x86-64 -g -O0 -fpre-include=/usr/include/finclude/math-vector-fortran.h
REM seed -1064310433 -1435540456 1585290809 -1295352740 925430714 1244405490 390492696 -52134430 1246924169 -333946878 -1485522528 -1561750443 -462162113 -283818483 1412970199 -322675283 708629975 1314492535 459932646 2080128639 273908467 -1925845763 -1199183318 -1342160009 -1300184941 -917989405 1549707008 -1874073751 1181184089 -1363634063 -2023989110 -1775546190 -753147012
REM
CELL 1.54180   50.00000   50.00000   50.00000   90.00000   90.00000   90.00000
LATT -1
SFAC C  
C      1  0.4654840000000  0.5344910000000  0.5249220000000 1.0
C      1  0.4370400000000  0.5419690000000  0.5911760000000 1.0
C      1  0.5645680000000  0.5172960000000  0.4578690000000 1.0
C      1  0.4894050000000  0.5645260000000  0.4946900000000 1.0
C      1  0.4893320000000  0.4663320000000  0.4314890000000 1.0
C      1  0.5501740000000  0.4663920000000  0.4501290000000 1.0
C      1  0.5019180000000  0.4753320000000  0.4540510000000 1.0
C      1  0.5241630000000  0.4464400000000  0.4863940000000 1.0
C      1  0.5393270000000  0.5585200000000  0.4766670000000 1.0
C      1  0.4403950000000  0.5229380000000  0.5718180000000 1.0
C      1  0.5193810000000  0.4352710000000  0.5115610000000 1.0
C      1  0.4733670000000  0.5866200000000  0.4962180000000 1.0
C      1  0.4881050000000  0.4637950000000  0.5450620000000 1.0
C      1  0.5253970000000  0.4623550000000  0.4635060000000 1.0
C      1  0.4531080000000  0.5293430000000  0.5477530000000 1.0
C      1  0.5160760000000  0.5666710000000  0.4864890000000 1.0
C      1  0.4227710000000  0.4724310000000  0.5793890000000 1.0
C      1  0.5615720000000  0.4463100000000  0.4354970000000 1.0
C      1  0.4792660000000  0.5386730000000  0.5009980000000 1.0
C      1  0.4836800000000  0.5173340000000  0.4834640000000 1.0
C      1  0.5565360000000  0.5410630000000  0.4665090000000 1.0
C      1  0.5032600000000  0.4491670000000  0.5297120000000 1.0
C      1  0.4918510000000  0.4972570000000  0.4682250000000 1.0
C      1  0.5623730000000  0.4914810000000  0.4522070000000 1.0
C      1  0.4311520000000  0.4968570000000  0.5758720000000 1.0
C      1  0.5303000000000  0.4111340000000  0.5183330000000 1.0
END
