TITL C-599896-8500-855 8.15575787677565 125000 -303.344346733997 0 0 51 (C1) n - 1
REM
REM in /home/nfs/bkarasulu/CARBON/AIRSS/Generating-Clusters/TERSOFF/Only-C1/FIRE-HFTN
REM
REM
REM
REM
REM
REM ./C.cell (11c1c37f851c82e70ff6c80c92926a4b)
REM AIRSS Version 0.9.1 bugfix July 2018 build 013d7b7c2542+ Fri, 06 Jul 2018 19:26:36 +0100
REM compiler GCC version 9.2.1 20190827 (Red Hat 9.2.1-1)
REM options -cpp -mtune=generic -march=x86-64 -g -O0 -fpre-include=/usr/include/finclude/math-vector-fortran.h
REM seed 1118227346 2104473273 -388771495 -1265824575 1588999541 -1281200101 1795184067 -712183341 2092578685 -2030487267 953138037 1954853330 1622405500 -939221472 -239622446 -90986784 -858124527 -1407020974 -1925941303 -511884929 -1622232699 1043290976 -2008829206 1625751350 2146677416 596264852 -263120334 -89155286 -1047825872 795826127 -863095216 957460368 -1367416362
REM
CELL 1.54180   50.00000   50.00000   50.00000   90.00000   90.00000   90.00000
LATT -1
SFAC C  
C      1  0.4360700000000  0.4704450000000  0.4457140000000 1.0
C      1  0.4613560000000  0.5766020000000  0.4815300000000 1.0
C      1  0.4352500000000  0.5215030000000  0.4356730000000 1.0
C      1  0.4373800000000  0.4381880000000  0.5890560000000 1.0
C      1  0.4428080000000  0.4513070000000  0.4627920000000 1.0
C      1  0.4334220000000  0.4950370000000  0.4361150000000 1.0
C      1  0.4502310000000  0.5648210000000  0.4605550000000 1.0
C      1  0.5475800000000  0.4836800000000  0.4573630000000 1.0
C      1  0.4532760000000  0.4395900000000  0.4858990000000 1.0
C      1  0.4959110000000  0.5632270000000  0.5128160000000 1.0
C      1  0.4250890000000  0.4151800000000  0.5797630000000 1.0
C      1  0.4373290000000  0.3891780000000  0.5381770000000 1.0
C      1  0.4720210000000  0.4538820000000  0.5010900000000 1.0
C      1  0.6350240000000  0.5780790000000  0.4414770000000 1.0
C      1  0.5224760000000  0.5701570000000  0.5076660000000 1.0
C      1  0.5266540000000  0.4657380000000  0.5623530000000 1.0
C      1  0.4742830000000  0.6592990000000  0.4747280000000 1.0
C      1  0.5156110000000  0.6022430000000  0.4391490000000 1.0
C      1  0.4750420000000  0.5811030000000  0.5055000000000 1.0
C      1  0.4685350000000  0.6021880000000  0.5216510000000 1.0
C      1  0.5000090000000  0.4728750000000  0.5571050000000 1.0
C      1  0.5396810000000  0.4656440000000  0.4771150000000 1.0
C      1  0.5931360000000  0.5778070000000  0.4732470000000 1.0
C      1  0.6143390000000  0.5780230000000  0.4573440000000 1.0
C      1  0.5495180000000  0.5058590000000  0.4429780000000 1.0
C      1  0.4446340000000  0.4143540000000  0.4943000000000 1.0
C      1  0.5201560000000  0.4028750000000  0.5557890000000 1.0
C      1  0.5382650000000  0.5555190000000  0.4300300000000 1.0
C      1  0.5472630000000  0.5743450000000  0.4993240000000 1.0
C      1  0.4935740000000  0.4853320000000  0.5323650000000 1.0
C      1  0.5276390000000  0.5797140000000  0.4320740000000 1.0
C      1  0.4411820000000  0.5458540000000  0.4443720000000 1.0
C      1  0.4800480000000  0.4616960000000  0.5732950000000 1.0
C      1  0.5612770000000  0.4240170000000  0.5009160000000 1.0
C      1  0.5461170000000  0.5304730000000  0.4337330000000 1.0
C      1  0.5567900000000  0.4141760000000  0.5252820000000 1.0
C      1  0.4384450000000  0.3958580000000  0.5123800000000 1.0
C      1  0.4943350000000  0.4020840000000  0.5621890000000 1.0
C      1  0.4885450000000  0.6415960000000  0.4619690000000 1.0
C      1  0.4898700000000  0.5384830000000  0.5243300000000 1.0
C      1  0.4938220000000  0.4698080000000  0.5084280000000 1.0
C      1  0.5709580000000  0.5767660000000  0.4877120000000 1.0
C      1  0.4693640000000  0.4129460000000  0.5677190000000 1.0
C      1  0.4433100000000  0.4001110000000  0.5630260000000 1.0
C      1  0.5550430000000  0.4431210000000  0.4834590000000 1.0
C      1  0.4646760000000  0.4395180000000  0.5796280000000 1.0
C      1  0.5025930000000  0.6227980000000  0.4496460000000 1.0
C      1  0.5163410000000  0.4704810000000  0.4918210000000 1.0
C      1  0.5428800000000  0.4446570000000  0.5599020000000 1.0
C      1  0.5419470000000  0.4189320000000  0.5484990000000 1.0
C      1  0.4888960000000  0.5128340000000  0.5309550000000 1.0
END
