TITL C-599895-9959-1270 -0.3787870097014 125000 -571.977622822875 0 0 95 (C1) n - 1
REM
REM in /home/nfs/bkarasulu/CARBON/AIRSS/Generating-Clusters/TERSOFF/Only-C1/FIRE-HFTN
REM
REM
REM
REM
REM
REM ./C.cell (11c1c37f851c82e70ff6c80c92926a4b)
REM AIRSS Version 0.9.1 bugfix July 2018 build 013d7b7c2542+ Fri, 06 Jul 2018 19:26:36 +0100
REM compiler GCC version 9.2.1 20190827 (Red Hat 9.2.1-1)
REM options -cpp -mtune=generic -march=x86-64 -g -O0 -fpre-include=/usr/include/finclude/math-vector-fortran.h
REM seed -102742579 -758517474 -1589314896 1802289265 -203810553 147888766 1658040876 -1749584823 1180805533 -893105518 324337630 1466419960 738295992 -1358187958 -1364082656 -492030678 -367844983 1121312666 -2103744157 1226346155 1408072394 907438949 997421241 -441768038 446037803 -2058421318 -524359131 -275169130 2090688753 1850016447 1037232202 2116945494 936750972
REM
CELL 1.54180   50.00000   50.00000   50.00000   90.00000   90.00000   90.00000
LATT -1
SFAC C  
C      1  0.4990050000000  0.5963880000000  0.5313320000000 1.0
C      1  0.4539730000000  0.4809580000000  0.5126320000000 1.0
C      1  0.6076510000000  0.4773720000000  0.4112200000000 1.0
C      1  0.4223840000000  0.5374690000000  0.4799280000000 1.0
C      1  0.5046120000000  0.4412100000000  0.4600370000000 1.0
C      1  0.4258570000000  0.4722850000000  0.5121290000000 1.0
C      1  0.4504150000000  0.5024970000000  0.4706360000000 1.0
C      1  0.5653450000000  0.4392670000000  0.4816670000000 1.0
C      1  0.4668510000000  0.5867840000000  0.4934130000000 1.0
C      1  0.5482390000000  0.5662890000000  0.4681110000000 1.0
C      1  0.4852170000000  0.5485630000000  0.4776530000000 1.0
C      1  0.5670430000000  0.4758320000000  0.4471060000000 1.0
C      1  0.5762550000000  0.5199630000000  0.5249020000000 1.0
C      1  0.4238950000000  0.5085690000000  0.4808340000000 1.0
C      1  0.5258690000000  0.5852300000000  0.4661160000000 1.0
C      1  0.5144550000000  0.4658770000000  0.5899740000000 1.0
C      1  0.4373640000000  0.5236880000000  0.5754600000000 1.0
C      1  0.5526590000000  0.4181320000000  0.4927900000000 1.0
C      1  0.4449270000000  0.4161170000000  0.5247940000000 1.0
C      1  0.5039370000000  0.5427190000000  0.5856480000000 1.0
C      1  0.4458110000000  0.4615300000000  0.4367490000000 1.0
C      1  0.5543880000000  0.4800660000000  0.5344010000000 1.0
C      1  0.4854420000000  0.4461900000000  0.5192480000000 1.0
C      1  0.4696110000000  0.5522840000000  0.5279900000000 1.0
C      1  0.4640900000000  0.5881580000000  0.4647990000000 1.0
C      1  0.5417500000000  0.4853580000000  0.4379770000000 1.0
C      1  0.4899480000000  0.4752460000000  0.5956830000000 1.0
C      1  0.4294820000000  0.4489920000000  0.4568480000000 1.0
C      1  0.5087820000000  0.4608540000000  0.5238450000000 1.0
C      1  0.5878700000000  0.4765050000000  0.4281650000000 1.0
C      1  0.5239810000000  0.5557560000000  0.5258490000000 1.0
C      1  0.5104120000000  0.4628800000000  0.4770010000000 1.0
C      1  0.5106990000000  0.5087010000000  0.4794620000000 1.0
C      1  0.5049090000000  0.5283770000000  0.5607850000000 1.0
C      1  0.4284050000000  0.5515280000000  0.5044480000000 1.0
C      1  0.4794870000000  0.5781660000000  0.4427170000000 1.0
C      1  0.6210670000000  0.4725020000000  0.4841230000000 1.0
C      1  0.5128120000000  0.3891170000000  0.5139480000000 1.0
C      1  0.4170940000000  0.5421050000000  0.5289700000000 1.0
C      1  0.4723660000000  0.5542660000000  0.4276210000000 1.0
C      1  0.4688120000000  0.4037300000000  0.5391230000000 1.0
C      1  0.4525120000000  0.5420060000000  0.5908530000000 1.0
C      1  0.4216840000000  0.5320290000000  0.5535080000000 1.0
C      1  0.5563360000000  0.5526930000000  0.4924580000000 1.0
C      1  0.5171200000000  0.4883850000000  0.4268530000000 1.0
C      1  0.5238180000000  0.5092480000000  0.5511510000000 1.0
C      1  0.4376710000000  0.4268240000000  0.4729070000000 1.0
C      1  0.4637500000000  0.4602060000000  0.5295320000000 1.0
C      1  0.4335820000000  0.4417830000000  0.5314720000000 1.0
C      1  0.4573220000000  0.5080180000000  0.4433230000000 1.0
C      1  0.4917390000000  0.5979760000000  0.5041450000000 1.0
C      1  0.4945000000000  0.4201720000000  0.4749840000000 1.0
C      1  0.5428290000000  0.4843170000000  0.5072950000000 1.0
C      1  0.4923840000000  0.5454070000000  0.4096340000000 1.0
C      1  0.5017050000000  0.5315020000000  0.4673970000000 1.0
C      1  0.4516410000000  0.4188470000000  0.4961390000000 1.0
C      1  0.5547270000000  0.5543240000000  0.4431530000000 1.0
C      1  0.5350480000000  0.4010850000000  0.5042040000000 1.0
C      1  0.5226670000000  0.5636450000000  0.5880690000000 1.0
C      1  0.4536640000000  0.5653840000000  0.5083750000000 1.0
C      1  0.4838960000000  0.4163200000000  0.5602460000000 1.0
C      1  0.6455910000000  0.4660040000000  0.4781650000000 1.0
C      1  0.5538730000000  0.5084650000000  0.5436160000000 1.0
C      1  0.5347030000000  0.5390440000000  0.5060010000000 1.0
C      1  0.4647560000000  0.4830670000000  0.4304610000000 1.0
C      1  0.5897150000000  0.4987450000000  0.5096140000000 1.0
C      1  0.5087140000000  0.4264500000000  0.5650720000000 1.0
C      1  0.4084610000000  0.4647180000000  0.4683800000000 1.0
C      1  0.5317560000000  0.5109720000000  0.4984720000000 1.0
C      1  0.4922420000000  0.4743590000000  0.4260410000000 1.0
C      1  0.4941980000000  0.4861240000000  0.4795880000000 1.0
C      1  0.5260150000000  0.4486520000000  0.5704870000000 1.0
C      1  0.5285040000000  0.5804010000000  0.5677330000000 1.0
C      1  0.5097780000000  0.4846070000000  0.5411670000000 1.0
C      1  0.4968240000000  0.4471490000000  0.4337650000000 1.0
C      1  0.5075720000000  0.5842980000000  0.4440370000000 1.0
C      1  0.4840490000000  0.5354550000000  0.5427340000000 1.0
C      1  0.4793440000000  0.4271540000000  0.4975810000000 1.0
C      1  0.4784060000000  0.5450760000000  0.5974360000000 1.0
C      1  0.5425280000000  0.5461730000000  0.4206450000000 1.0
C      1  0.5942560000000  0.4792350000000  0.4892640000000 1.0
C      1  0.5742130000000  0.4652240000000  0.4732540000000 1.0
C      1  0.5255640000000  0.4627040000000  0.5008170000000 1.0
C      1  0.4874920000000  0.3873450000000  0.5238370000000 1.0
C      1  0.4307520000000  0.5470040000000  0.4539680000000 1.0
C      1  0.4522310000000  0.5362240000000  0.4374570000000 1.0
C      1  0.4446960000000  0.4968310000000  0.5801820000000 1.0
C      1  0.5779660000000  0.5452820000000  0.5101170000000 1.0
C      1  0.4674100000000  0.4893440000000  0.4887790000000 1.0
C      1  0.4647490000000  0.4819100000000  0.5898040000000 1.0
C      1  0.5190930000000  0.5430520000000  0.4079710000000 1.0
C      1  0.5472510000000  0.4590700000000  0.5532940000000 1.0
C      1  0.5187390000000  0.5788980000000  0.5414290000000 1.0
C      1  0.5146390000000  0.5998560000000  0.4873360000000 1.0
C      1  0.4121500000000  0.4834150000000  0.4896620000000 1.0
END
