TITL C-599893-4344-1428 1.4037190944662e-05 125000 -122.768254400744 0 0 21 (C1) n - 1
REM
REM in /home/nfs/bkarasulu/CARBON/AIRSS/Generating-Clusters/TERSOFF/Only-C1/FIRE-HFTN
REM
REM
REM
REM
REM
REM ./C.cell (11c1c37f851c82e70ff6c80c92926a4b)
REM AIRSS Version 0.9.1 bugfix July 2018 build 013d7b7c2542+ Fri, 06 Jul 2018 19:26:36 +0100
REM compiler GCC version 9.2.1 20190827 (Red Hat 9.2.1-1)
REM options -cpp -mtune=generic -march=x86-64 -g -O0 -fpre-include=/usr/include/finclude/math-vector-fortran.h
REM seed 940301852 -2092218673 1544870302 1328085147 1229792689 -1424556310 -474267940 -162322964 -106306460 713441218 851519867 337291537 -23752455 -344298457 -1206728400 1498208375 1829758260 346853345 936002597 195876374 -1872348680 1862903427 233293758 212457326 265265183 -1040547511 -1122326819 -790252914 -848027692 1419986483 752861410 898451335 1990836282
REM
CELL 1.54180   50.00000   50.00000   50.00000   90.00000   90.00000   90.00000
LATT -1
SFAC C  
C      1  0.5724140000000  0.4547830000000  0.4606430000000 1.0
C      1  0.5071720000000  0.4550260000000  0.5283600000000 1.0
C      1  0.5489600000000  0.4970810000000  0.4656140000000 1.0
C      1  0.4520270000000  0.5066490000000  0.4973770000000 1.0
C      1  0.4673920000000  0.5044400000000  0.5603210000000 1.0
C      1  0.4637440000000  0.4848380000000  0.4876260000000 1.0
C      1  0.5071740000000  0.4579540000000  0.5004610000000 1.0
C      1  0.5226480000000  0.5419410000000  0.4714920000000 1.0
C      1  0.4524900000000  0.5276860000000  0.5159620000000 1.0
C      1  0.4833220000000  0.4833090000000  0.5635350000000 1.0
C      1  0.4982270000000  0.4647680000000  0.5515060000000 1.0
C      1  0.4360090000000  0.5731510000000  0.5114640000000 1.0
C      1  0.5389180000000  0.5216390000000  0.4662260000000 1.0
C      1  0.5509760000000  0.4695930000000  0.4705560000000 1.0
C      1  0.4553430000000  0.5544300000000  0.5068490000000 1.0
C      1  0.5924530000000  0.4409240000000  0.4513910000000 1.0
C      1  0.5018830000000  0.5556930000000  0.4806810000000 1.0
C      1  0.5308610000000  0.4574020000000  0.4857320000000 1.0
C      1  0.4787690000000  0.5606480000000  0.4927630000000 1.0
C      1  0.4834800000000  0.4670100000000  0.4884260000000 1.0
C      1  0.4557390000000  0.5210350000000  0.5430160000000 1.0
END
