TITL C-599891-72-1189 0.00265572378882074 125000 -966.664512436055 0 0 157 (C1) n - 1
REM
REM in /home/nfs/bkarasulu/CARBON/AIRSS/Generating-Clusters/TERSOFF/Only-C1/FIRE-HFTN
REM
REM
REM
REM
REM
REM ./C.cell (11c1c37f851c82e70ff6c80c92926a4b)
REM AIRSS Version 0.9.1 bugfix July 2018 build 013d7b7c2542+ Fri, 06 Jul 2018 19:26:36 +0100
REM compiler GCC version 9.2.1 20190827 (Red Hat 9.2.1-1)
REM options -cpp -mtune=generic -march=x86-64 -g -O0 -fpre-include=/usr/include/finclude/math-vector-fortran.h
REM seed -837057519 -826624837 458814192 1407937720 -1035404996 -992770610 -534238781 428031317 587868227 805339262 205351386 2074063684 -1972435838 2020931351 -1368602930 -724923825 840341556 582903849 -1352838105 -541332231 936584819 -1763396291 1155835185 2059456457 -1816555921 -1735626909 -1367448243 -649081759 -690549172 2060166779 1411869293 -497843034 771682133
REM
CELL 1.54180   50.00000   50.00000   50.00000   90.00000   90.00000   90.00000
LATT -1
SFAC C  
C      1  0.4869580000000  0.4946850000000  0.4377500000000 1.0
C      1  0.5152180000000  0.3756650000000  0.4709340000000 1.0
C      1  0.5578440000000  0.4336960000000  0.4192250000000 1.0
C      1  0.5120240000000  0.4974620000000  0.4244980000000 1.0
C      1  0.5872450000000  0.4692520000000  0.5341530000000 1.0
C      1  0.5372950000000  0.5186970000000  0.3916770000000 1.0
C      1  0.5061960000000  0.4878440000000  0.4902650000000 1.0
C      1  0.5429880000000  0.5206500000000  0.5288530000000 1.0
C      1  0.4622010000000  0.4520780000000  0.4500230000000 1.0
C      1  0.4334170000000  0.5231440000000  0.4134960000000 1.0
C      1  0.4138320000000  0.5524830000000  0.5491650000000 1.0
C      1  0.5412730000000  0.6046530000000  0.4907990000000 1.0
C      1  0.4473620000000  0.4613030000000  0.4018330000000 1.0
C      1  0.5762520000000  0.4193170000000  0.4888580000000 1.0
C      1  0.4845540000000  0.4024530000000  0.5342480000000 1.0
C      1  0.5338940000000  0.5100660000000  0.5546090000000 1.0
C      1  0.5386370000000  0.5062380000000  0.6019450000000 1.0
C      1  0.4346580000000  0.5345340000000  0.5564390000000 1.0
C      1  0.4747540000000  0.3957270000000  0.4400280000000 1.0
C      1  0.5387040000000  0.4497140000000  0.5284740000000 1.0
C      1  0.5064180000000  0.4850100000000  0.6321750000000 1.0
C      1  0.5311500000000  0.3954290000000  0.5087800000000 1.0
C      1  0.4706180000000  0.5139740000000  0.4515450000000 1.0
C      1  0.3936700000000  0.5317460000000  0.5054680000000 1.0
C      1  0.4947860000000  0.3756280000000  0.4900120000000 1.0
C      1  0.5502370000000  0.5250540000000  0.4524770000000 1.0
C      1  0.5155100000000  0.4443050000000  0.3990580000000 1.0
C      1  0.5589390000000  0.4608700000000  0.4061390000000 1.0
C      1  0.5930650000000  0.5300610000000  0.5427870000000 1.0
C      1  0.5791450000000  0.5561660000000  0.5390480000000 1.0
C      1  0.5614740000000  0.4951310000000  0.4881000000000 1.0
C      1  0.4817510000000  0.4446460000000  0.5026000000000 1.0
C      1  0.4605170000000  0.5212100000000  0.5044220000000 1.0
C      1  0.4044140000000  0.5139540000000  0.4890520000000 1.0
C      1  0.4371030000000  0.5813130000000  0.6146880000000 1.0
C      1  0.5902310000000  0.5089770000000  0.5630340000000 1.0
C      1  0.5253140000000  0.5703180000000  0.5209640000000 1.0
C      1  0.5811240000000  0.5329800000000  0.4230750000000 1.0
C      1  0.5975450000000  0.5426560000000  0.4730580000000 1.0
C      1  0.5846530000000  0.5643770000000  0.4864990000000 1.0
C      1  0.3873040000000  0.4901780000000  0.5843460000000 1.0
C      1  0.5183930000000  0.5112210000000  0.4830200000000 1.0
C      1  0.5780630000000  0.4032060000000  0.5124990000000 1.0
C      1  0.4928510000000  0.5504540000000  0.3926320000000 1.0
C      1  0.4805120000000  0.5300650000000  0.5448560000000 1.0
C      1  0.5342320000000  0.5857370000000  0.4390430000000 1.0
C      1  0.6217160000000  0.4858950000000  0.4687030000000 1.0
C      1  0.4826140000000  0.4731160000000  0.6255240000000 1.0
C      1  0.5587300000000  0.4846850000000  0.4231670000000 1.0
C      1  0.4188480000000  0.5188180000000  0.6090930000000 1.0
C      1  0.5813000000000  0.4812610000000  0.5597780000000 1.0
C      1  0.4792150000000  0.5389030000000  0.4625780000000 1.0
C      1  0.5328780000000  0.4805320000000  0.4378900000000 1.0
C      1  0.6051980000000  0.4852480000000  0.5178930000000 1.0
C      1  0.5338010000000  0.5393230000000  0.4381130000000 1.0
C      1  0.3586060000000  0.4571610000000  0.5568600000000 1.0
C      1  0.4668060000000  0.5154350000000  0.6136540000000 1.0
C      1  0.5033110000000  0.4488530000000  0.5800050000000 1.0
C      1  0.4057600000000  0.4490880000000  0.4809890000000 1.0
C      1  0.5409670000000  0.4541220000000  0.5568780000000 1.0
C      1  0.5006330000000  0.5834890000000  0.5240820000000 1.0
C      1  0.5181280000000  0.6079310000000  0.4465910000000 1.0
C      1  0.5603270000000  0.4078410000000  0.4677080000000 1.0
C      1  0.5178280000000  0.6456530000000  0.4779350000000 1.0
C      1  0.6087700000000  0.5281340000000  0.4951500000000 1.0
C      1  0.5428240000000  0.5514310000000  0.5783250000000 1.0
C      1  0.5436530000000  0.5091000000000  0.4729120000000 1.0
C      1  0.4907470000000  0.4537710000000  0.4093540000000 1.0
C      1  0.4105280000000  0.3833250000000  0.4902790000000 1.0
C      1  0.5622810000000  0.5123890000000  0.4102500000000 1.0
C      1  0.4284090000000  0.5797010000000  0.4552580000000 1.0
C      1  0.4433850000000  0.5317050000000  0.6141400000000 1.0
C      1  0.5977800000000  0.5276560000000  0.4474240000000 1.0
C      1  0.5475560000000  0.5842740000000  0.5098380000000 1.0
C      1  0.4615580000000  0.5437890000000  0.5600860000000 1.0
C      1  0.5184300000000  0.4941350000000  0.3935840000000 1.0
C      1  0.5200780000000  0.5617180000000  0.4445680000000 1.0
C      1  0.5734330000000  0.4469340000000  0.4935260000000 1.0
C      1  0.4900500000000  0.4896750000000  0.3812410000000 1.0
C      1  0.5293740000000  0.4274050000000  0.4172200000000 1.0
C      1  0.4553980000000  0.5920250000000  0.4987780000000 1.0
C      1  0.4480690000000  0.4855660000000  0.5577110000000 1.0
C      1  0.4922230000000  0.5599340000000  0.4490090000000 1.0
C      1  0.4269250000000  0.6029360000000  0.6250820000000 1.0
C      1  0.4405470000000  0.4571120000000  0.4298090000000 1.0
C      1  0.4660980000000  0.4874810000000  0.6069920000000 1.0
C      1  0.5414340000000  0.5229780000000  0.5789380000000 1.0
C      1  0.5093790000000  0.4944630000000  0.5565250000000 1.0
C      1  0.4599030000000  0.4186490000000  0.5314070000000 1.0
C      1  0.4279700000000  0.5031180000000  0.4332630000000 1.0
C      1  0.5021560000000  0.4223450000000  0.5777540000000 1.0
C      1  0.5332310000000  0.4660140000000  0.3901970000000 1.0
C      1  0.5626770000000  0.5630730000000  0.5617570000000 1.0
C      1  0.3753620000000  0.4327660000000  0.5147710000000 1.0
C      1  0.4680450000000  0.4808720000000  0.5788040000000 1.0
C      1  0.4505340000000  0.4744580000000  0.5297600000000 1.0
C      1  0.5591840000000  0.5816390000000  0.4262460000000 1.0
C      1  0.4204390000000  0.4750990000000  0.4391830000000 1.0
C      1  0.5374590000000  0.3926700000000  0.4788380000000 1.0
C      1  0.4147760000000  0.4063660000000  0.5044280000000 1.0
C      1  0.4098610000000  0.5760830000000  0.5623650000000 1.0
C      1  0.4292510000000  0.5070160000000  0.5638770000000 1.0
C      1  0.4708380000000  0.5609070000000  0.4084280000000 1.0
C      1  0.4461270000000  0.4951110000000  0.5067800000000 1.0
C      1  0.4953380000000  0.4032730000000  0.5603720000000 1.0
C      1  0.5184120000000  0.5411190000000  0.3883580000000 1.0
C      1  0.5669770000000  0.4532240000000  0.5203650000000 1.0
C      1  0.4438350000000  0.5502240000000  0.4140240000000 1.0
C      1  0.5672140000000  0.4180320000000  0.4414690000000 1.0
C      1  0.4384290000000  0.5879300000000  0.4785980000000 1.0
C      1  0.5513550000000  0.4810130000000  0.5982480000000 1.0
C      1  0.3973560000000  0.5457430000000  0.5276620000000 1.0
C      1  0.5713260000000  0.4703980000000  0.4784890000000 1.0
C      1  0.5728850000000  0.5699380000000  0.5123620000000 1.0
C      1  0.4110330000000  0.5044570000000  0.5859840000000 1.0
C      1  0.5651610000000  0.5090940000000  0.5126780000000 1.0
C      1  0.4918720000000  0.5056010000000  0.5373500000000 1.0
C      1  0.3611520000000  0.4422610000000  0.5350470000000 1.0
C      1  0.6126350000000  0.5031710000000  0.4498990000000 1.0
C      1  0.5167520000000  0.4282520000000  0.4428890000000 1.0
C      1  0.6204410000000  0.4783640000000  0.4947540000000 1.0
C      1  0.4916880000000  0.4907690000000  0.5138190000000 1.0
C      1  0.4433500000000  0.5083680000000  0.4576160000000 1.0
C      1  0.5951970000000  0.5141750000000  0.5172430000000 1.0
C      1  0.4673430000000  0.4435930000000  0.4769570000000 1.0
C      1  0.4808090000000  0.5369980000000  0.4912700000000 1.0
C      1  0.5017630000000  0.3911250000000  0.5137460000000 1.0
C      1  0.5154150000000  0.5086380000000  0.6184280000000 1.0
C      1  0.5152510000000  0.4573850000000  0.4523020000000 1.0
C      1  0.5548440000000  0.3950110000000  0.5243570000000 1.0
C      1  0.4867280000000  0.4641490000000  0.4386710000000 1.0
C      1  0.5590250000000  0.4693240000000  0.5736090000000 1.0
C      1  0.5084220000000  0.5332130000000  0.4973310000000 1.0
C      1  0.4938410000000  0.5270860000000  0.6119090000000 1.0
C      1  0.5751070000000  0.5609360000000  0.4187890000000 1.0
C      1  0.4914500000000  0.6048610000000  0.4348020000000 1.0
C      1  0.4151870000000  0.4717690000000  0.4678820000000 1.0
C      1  0.5257480000000  0.6196070000000  0.4717730000000 1.0
C      1  0.5119410000000  0.4466870000000  0.5051170000000 1.0
C      1  0.4955060000000  0.4744480000000  0.5717960000000 1.0
C      1  0.5165340000000  0.4627820000000  0.4818030000000 1.0
C      1  0.4635220000000  0.4471600000000  0.5248980000000 1.0
C      1  0.4729990000000  0.4683270000000  0.3914820000000 1.0
C      1  0.5258960000000  0.5420410000000  0.5176240000000 1.0
C      1  0.4484300000000  0.5581850000000  0.6045390000000 1.0
C      1  0.5193400000000  0.5632100000000  0.5886360000000 1.0
C      1  0.4767020000000  0.5908950000000  0.5148050000000 1.0
C      1  0.4290180000000  0.5674390000000  0.4314760000000 1.0
C      1  0.3985540000000  0.4293140000000  0.4995220000000 1.0
C      1  0.4691070000000  0.5572450000000  0.5844360000000 1.0
C      1  0.4955420000000  0.4102460000000  0.4464150000000 1.0
C      1  0.4274740000000  0.4961660000000  0.4821190000000 1.0
C      1  0.4949310000000  0.5511460000000  0.5958850000000 1.0
C      1  0.3684980000000  0.4742850000000  0.5745480000000 1.0
C      1  0.5095460000000  0.6696310000000  0.4839020000000 1.0
C      1  0.4352820000000  0.4076370000000  0.5236290000000 1.0
C      1  0.4801120000000  0.5785480000000  0.4303680000000 1.0
END
