TITL C-599894-471-1229 -55.1963471982697 125000 -695.142415781304 0 0 116 (C1) n - 1
REM
REM in /home/nfs/bkarasulu/CARBON/AIRSS/Generating-Clusters/TERSOFF/Only-C1/FIRE-HFTN
REM
REM
REM
REM
REM
REM ./C.cell (11c1c37f851c82e70ff6c80c92926a4b)
REM AIRSS Version 0.9.1 bugfix July 2018 build 013d7b7c2542+ Fri, 06 Jul 2018 19:26:36 +0100
REM compiler GCC version 9.2.1 20190827 (Red Hat 9.2.1-1)
REM options -cpp -mtune=generic -march=x86-64 -g -O0 -fpre-include=/usr/include/finclude/math-vector-fortran.h
REM seed 575308420 113106281 2085180474 -1911230430 -14879439 1755367593 -713453496 1315730379 1128266046 -1359587995 -1869735208 390003237 2114494827 -1556584280 595431219 1245252225 -593397118 -874052170 1708544308 53529264 764906091 93639657 121421844 2113559842 329329511 811889354 481476052 1850773084 -56836897 930681413 -1655916369 512959446 1426774557
REM
CELL 1.54180   50.00000   50.00000   50.00000   90.00000   90.00000   90.00000
LATT -1
SFAC C  
C      1  0.5756680000000  0.4653180000000  0.4479500000000 1.0
C      1  0.4554000000000  0.4478650000000  0.5667900000000 1.0
C      1  0.4620720000000  0.4395640000000  0.4788240000000 1.0
C      1  0.5710360000000  0.4710270000000  0.5069920000000 1.0
C      1  0.5496090000000  0.4734630000000  0.4857000000000 1.0
C      1  0.5101030000000  0.5019300000000  0.4384270000000 1.0
C      1  0.5598300000000  0.4500130000000  0.4681330000000 1.0
C      1  0.4754860000000  0.4290280000000  0.5582660000000 1.0
C      1  0.5451770000000  0.4944040000000  0.4645180000000 1.0
C      1  0.6033600000000  0.4924870000000  0.5334830000000 1.0
C      1  0.4873530000000  0.5652770000000  0.5473640000000 1.0
C      1  0.4972990000000  0.4610610000000  0.4033580000000 1.0
C      1  0.4864500000000  0.4912930000000  0.5499980000000 1.0
C      1  0.4708300000000  0.5125970000000  0.4104190000000 1.0
C      1  0.4330090000000  0.4708570000000  0.4273220000000 1.0
C      1  0.5040410000000  0.4301650000000  0.5177750000000 1.0
C      1  0.4940090000000  0.5874390000000  0.4696500000000 1.0
C      1  0.5325650000000  0.5727260000000  0.4937790000000 1.0
C      1  0.5510580000000  0.4295700000000  0.5176950000000 1.0
C      1  0.4720180000000  0.5905980000000  0.4518930000000 1.0
C      1  0.4353170000000  0.5186650000000  0.4557760000000 1.0
C      1  0.4791480000000  0.4340960000000  0.5304390000000 1.0
C      1  0.5089430000000  0.5225730000000  0.4604440000000 1.0
C      1  0.5129670000000  0.5156710000000  0.3973380000000 1.0
C      1  0.5715580000000  0.5416730000000  0.4292950000000 1.0
C      1  0.5793870000000  0.6262530000000  0.5095580000000 1.0
C      1  0.5084200000000  0.5125200000000  0.5917630000000 1.0
C      1  0.5622050000000  0.4736190000000  0.5519960000000 1.0
C      1  0.4918760000000  0.5361430000000  0.5868710000000 1.0
C      1  0.4604880000000  0.5242000000000  0.5144920000000 1.0
C      1  0.5093950000000  0.5592930000000  0.5072880000000 1.0
C      1  0.4853710000000  0.4769800000000  0.4690330000000 1.0
C      1  0.4691590000000  0.4859660000000  0.4489610000000 1.0
C      1  0.4463650000000  0.4523800000000  0.4983880000000 1.0
C      1  0.5218350000000  0.4121410000000  0.5574420000000 1.0
C      1  0.4041490000000  0.4949410000000  0.5800350000000 1.0
C      1  0.4671180000000  0.5539000000000  0.4845840000000 1.0
C      1  0.4101870000000  0.4857830000000  0.4833190000000 1.0
C      1  0.4949820000000  0.5206660000000  0.5427770000000 1.0
C      1  0.5036010000000  0.5441650000000  0.4168040000000 1.0
C      1  0.5215130000000  0.5775920000000  0.4642540000000 1.0
C      1  0.5274130000000  0.4205350000000  0.5308550000000 1.0
C      1  0.4402700000000  0.5596560000000  0.4932290000000 1.0
C      1  0.5936770000000  0.4861620000000  0.4598470000000 1.0
C      1  0.5357140000000  0.5186230000000  0.5158310000000 1.0
C      1  0.5083600000000  0.4118820000000  0.4498400000000 1.0
C      1  0.4977920000000  0.4161040000000  0.5700030000000 1.0
C      1  0.4844940000000  0.4958970000000  0.4284090000000 1.0
C      1  0.4821620000000  0.4193220000000  0.4401590000000 1.0
C      1  0.5358520000000  0.4862500000000  0.5532920000000 1.0
C      1  0.3878150000000  0.5135840000000  0.5653240000000 1.0
C      1  0.4514120000000  0.5459340000000  0.4382920000000 1.0
C      1  0.4979500000000  0.4928210000000  0.4885660000000 1.0
C      1  0.5252340000000  0.5594780000000  0.4398190000000 1.0
C      1  0.4211550000000  0.4627790000000  0.4922510000000 1.0
C      1  0.4706570000000  0.5401120000000  0.5388130000000 1.0
C      1  0.5482650000000  0.5424820000000  0.4453760000000 1.0
C      1  0.5085580000000  0.4864510000000  0.3936640000000 1.0
C      1  0.4666620000000  0.4770400000000  0.5689570000000 1.0
C      1  0.5480350000000  0.5291590000000  0.5706110000000 1.0
C      1  0.5307180000000  0.5067110000000  0.5741230000000 1.0
C      1  0.4074630000000  0.4652450000000  0.5708720000000 1.0
C      1  0.5347250000000  0.4867110000000  0.4385940000000 1.0
C      1  0.4787940000000  0.5028910000000  0.5064260000000 1.0
C      1  0.5653900000000  0.6044530000000  0.5123690000000 1.0
C      1  0.5906040000000  0.5611640000000  0.4315860000000 1.0
C      1  0.5351990000000  0.5549010000000  0.5620300000000 1.0
C      1  0.5735210000000  0.5236530000000  0.5576530000000 1.0
C      1  0.4763910000000  0.4776720000000  0.5970060000000 1.0
C      1  0.4558090000000  0.5310930000000  0.5846880000000 1.0
C      1  0.4967300000000  0.4920930000000  0.6068970000000 1.0
C      1  0.5524190000000  0.5270080000000  0.4941050000000 1.0
C      1  0.4497760000000  0.4511920000000  0.4179180000000 1.0
C      1  0.4842480000000  0.5346000000000  0.4696410000000 1.0
C      1  0.4267370000000  0.4446280000000  0.5586610000000 1.0
C      1  0.5138550000000  0.5347630000000  0.5231320000000 1.0
C      1  0.4418290000000  0.4920630000000  0.4445880000000 1.0
C      1  0.4505670000000  0.5426630000000  0.5602200000000 1.0
C      1  0.5952120000000  0.5025990000000  0.4839540000000 1.0
C      1  0.3901120000000  0.5335610000000  0.5469380000000 1.0
C      1  0.5221090000000  0.4745930000000  0.5005590000000 1.0
C      1  0.5826160000000  0.4959570000000  0.5529680000000 1.0
C      1  0.4777590000000  0.4419760000000  0.4191960000000 1.0
C      1  0.5396180000000  0.5237600000000  0.4678620000000 1.0
C      1  0.4427000000000  0.4925160000000  0.5601650000000 1.0
C      1  0.4293830000000  0.4097550000000  0.5128470000000 1.0
C      1  0.4639850000000  0.4565480000000  0.5204000000000 1.0
C      1  0.4186500000000  0.5596010000000  0.5097820000000 1.0
C      1  0.5750210000000  0.5203760000000  0.4111050000000 1.0
C      1  0.4239490000000  0.5111800000000  0.4833790000000 1.0
C      1  0.5919800000000  0.5425100000000  0.5149680000000 1.0
C      1  0.5301610000000  0.4916210000000  0.5248370000000 1.0
C      1  0.5777100000000  0.5461530000000  0.5392410000000 1.0
C      1  0.4730400000000  0.5397570000000  0.4191900000000 1.0
C      1  0.4014210000000  0.5498270000000  0.5283900000000 1.0
C      1  0.4403020000000  0.4022800000000  0.4876420000000 1.0
C      1  0.4762560000000  0.4812710000000  0.5247740000000 1.0
C      1  0.5639730000000  0.4537930000000  0.5289570000000 1.0
C      1  0.4317270000000  0.5057210000000  0.5827450000000 1.0
C      1  0.4868960000000  0.5721730000000  0.4941600000000 1.0
C      1  0.5950360000000  0.4858070000000  0.5073230000000 1.0
C      1  0.4341510000000  0.5142820000000  0.5109300000000 1.0
C      1  0.5081280000000  0.4477030000000  0.4963730000000 1.0
C      1  0.4231650000000  0.4249190000000  0.5358620000000 1.0
C      1  0.5814300000000  0.5271080000000  0.4935050000000 1.0
C      1  0.4575190000000  0.4149680000000  0.4669550000000 1.0
C      1  0.4300730000000  0.4978730000000  0.5346240000000 1.0
C      1  0.5297550000000  0.4123620000000  0.4669380000000 1.0
C      1  0.5708290000000  0.4939820000000  0.4078480000000 1.0
C      1  0.5508100000000  0.5807420000000  0.5150110000000 1.0
C      1  0.5498570000000  0.4266030000000  0.4819940000000 1.0
C      1  0.5587860000000  0.4762670000000  0.4262090000000 1.0
C      1  0.4517860000000  0.5737720000000  0.4443980000000 1.0
C      1  0.4875260000000  0.4504710000000  0.4765800000000 1.0
C      1  0.5059270000000  0.5573830000000  0.5690530000000 1.0
C      1  0.5540300000000  0.5645470000000  0.5395000000000 1.0
END
