TITL C-599896-8500-1207 -0.218307492227054 125000 -201.862732992992 0 0 35 (C1) n - 1
REM
REM in /home/nfs/bkarasulu/CARBON/AIRSS/Generating-Clusters/TERSOFF/Only-C1/FIRE-HFTN
REM
REM
REM
REM
REM
REM ./C.cell (11c1c37f851c82e70ff6c80c92926a4b)
REM AIRSS Version 0.9.1 bugfix July 2018 build 013d7b7c2542+ Fri, 06 Jul 2018 19:26:36 +0100
REM compiler GCC version 9.2.1 20190827 (Red Hat 9.2.1-1)
REM options -cpp -mtune=generic -march=x86-64 -g -O0 -fpre-include=/usr/include/finclude/math-vector-fortran.h
REM seed 466705158 692577117 1391641150 -1068911859 2022543293 940292951 422694023 -565677593 53651627 -2072247550 741725201 -1756544842 -99969324 -1202644245 -664006667 -829515263 -1322763192 -1509069245 528286465 -96094741 -978805995 2113859097 636415646 -2113547356 -804229787 234766005 -366788855 816599953 1299158564 -16607346 1875980468 -1294869665 1104467192
REM
CELL 1.54180   50.00000   50.00000   50.00000   90.00000   90.00000   90.00000
LATT -1
SFAC C  
C      1  0.5889420000000  0.3973380000000  0.4860640000000 1.0
C      1  0.5505240000000  0.6005770000000  0.4711500000000 1.0
C      1  0.4303020000000  0.5263080000000  0.5619860000000 1.0
C      1  0.4355630000000  0.5238550000000  0.5361440000000 1.0
C      1  0.4932820000000  0.4693330000000  0.5110340000000 1.0
C      1  0.4380320000000  0.5627140000000  0.4831920000000 1.0
C      1  0.4795250000000  0.4743990000000  0.4655060000000 1.0
C      1  0.4773190000000  0.4828550000000  0.4922240000000 1.0
C      1  0.4250150000000  0.5287910000000  0.5878340000000 1.0
C      1  0.4742320000000  0.5994700000000  0.4732130000000 1.0
C      1  0.5831790000000  0.5096130000000  0.4897590000000 1.0
C      1  0.4197250000000  0.5312750000000  0.6136880000000 1.0
C      1  0.5376010000000  0.4182820000000  0.4856260000000 1.0
C      1  0.4409320000000  0.5215540000000  0.5088350000000 1.0
C      1  0.5108230000000  0.4479990000000  0.5142330000000 1.0
C      1  0.4599170000000  0.5032210000000  0.4997260000000 1.0
C      1  0.4910770000000  0.4574770000000  0.4484230000000 1.0
C      1  0.4145230000000  0.5337190000000  0.6391170000000 1.0
C      1  0.5263550000000  0.4222110000000  0.4582230000000 1.0
C      1  0.5834470000000  0.5608950000000  0.4791190000000 1.0
C      1  0.5359970000000  0.4460750000000  0.4997270000000 1.0
C      1  0.4535770000000  0.5834250000000  0.4775730000000 1.0
C      1  0.4989680000000  0.6086410000000  0.4704920000000 1.0
C      1  0.5874990000000  0.5352330000000  0.4844590000000 1.0
C      1  0.5029570000000  0.4208670000000  0.5189830000000 1.0
C      1  0.5557350000000  0.4654270000000  0.4981180000000 1.0
C      1  0.5086480000000  0.4376140000000  0.4454230000000 1.0
C      1  0.5719220000000  0.4860760000000  0.4944600000000 1.0
C      1  0.5153370000000  0.3751060000000  0.5028550000000 1.0
C      1  0.5707200000000  0.5836940000000  0.4744450000000 1.0
C      1  0.4270170000000  0.5380130000000  0.4902880000000 1.0
C      1  0.5647390000000  0.4069540000000  0.4856100000000 1.0
C      1  0.5254770000000  0.6092070000000  0.4697620000000 1.0
C      1  0.5178430000000  0.4020800000000  0.5031180000000 1.0
C      1  0.4032500000000  0.5297000000000  0.4795920000000 1.0
END
