TITL C-599890-3321-668 4.56362767736383 125000 -159.545596190334 0 0 29 (C1) n - 1
REM
REM in /home/nfs/bkarasulu/CARBON/AIRSS/Generating-Clusters/TERSOFF/Only-C1/FIRE-HFTN
REM
REM
REM
REM
REM
REM ./C.cell (11c1c37f851c82e70ff6c80c92926a4b)
REM AIRSS Version 0.9.1 bugfix July 2018 build 013d7b7c2542+ Fri, 06 Jul 2018 19:26:36 +0100
REM compiler GCC version 9.2.1 20190827 (Red Hat 9.2.1-1)
REM options -cpp -mtune=generic -march=x86-64 -g -O0 -fpre-include=/usr/include/finclude/math-vector-fortran.h
REM seed -1821939884 -1802380147 1111005506 -1946674987 260049895 1339353482 -398109381 -1221992248 1405379399 2034261858 711861009 -1571829094 843146220 -572162772 -923768510 796552444 -1454615838 -1906666321 1036055727 1674341909 962204681 -977647278 -1941383018 1818432320 1821940404 1591801315 1232921994 -353288283 911256911 487349429 -2137682796 -347788532 371612215
REM
CELL 1.54180   50.00000   50.00000   50.00000   90.00000   90.00000   90.00000
LATT -1
SFAC C  
C      1  0.4419720000000  0.5308110000000  0.5411990000000 1.0
C      1  0.4266580000000  0.4609280000000  0.5583190000000 1.0
C      1  0.5479320000000  0.5295770000000  0.4717250000000 1.0
C      1  0.5175850000000  0.4854150000000  0.4344850000000 1.0
C      1  0.5210650000000  0.5230870000000  0.4651380000000 1.0
C      1  0.4595250000000  0.4803320000000  0.5885100000000 1.0
C      1  0.4349310000000  0.4814840000000  0.5404660000000 1.0
C      1  0.5571140000000  0.5551530000000  0.4686020000000 1.0
C      1  0.4555690000000  0.5039730000000  0.5429450000000 1.0
C      1  0.4669350000000  0.4997000000000  0.5710320000000 1.0
C      1  0.5064460000000  0.5300380000000  0.4191650000000 1.0
C      1  0.4075310000000  0.4425530000000  0.5522910000000 1.0
C      1  0.4658030000000  0.5583720000000  0.5023100000000 1.0
C      1  0.5217710000000  0.4593720000000  0.4320130000000 1.0
C      1  0.4505400000000  0.5498310000000  0.5224070000000 1.0
C      1  0.6189850000000  0.4238910000000  0.5110510000000 1.0
C      1  0.6057660000000  0.4451850000000  0.5038760000000 1.0
C      1  0.5788060000000  0.4883960000000  0.4891990000000 1.0
C      1  0.5647370000000  0.5094150000000  0.4813380000000 1.0
C      1  0.5149630000000  0.5127770000000  0.4393900000000 1.0
C      1  0.4932890000000  0.5066040000000  0.5025170000000 1.0
C      1  0.4984620000000  0.5468750000000  0.4009470000000 1.0
C      1  0.5005690000000  0.5266130000000  0.4841810000000 1.0
C      1  0.4769630000000  0.5004400000000  0.5226230000000 1.0
C      1  0.4405360000000  0.4617210000000  0.5830830000000 1.0
C      1  0.5263050000000  0.4337740000000  0.4300620000000 1.0
C      1  0.4857530000000  0.5504340000000  0.4863310000000 1.0
C      1  0.4211630000000  0.5364180000000  0.5582160000000 1.0
C      1  0.5923250000000  0.4668340000000  0.4965800000000 1.0
END
