TITL C-599893-4344-53 3.25719685412758e-06 125000 -581.641670804543 0 0 96 (C1) n - 1
REM
REM in /home/nfs/bkarasulu/CARBON/AIRSS/Generating-Clusters/TERSOFF/Only-C1/FIRE-HFTN
REM
REM
REM
REM
REM
REM ./C.cell (11c1c37f851c82e70ff6c80c92926a4b)
REM AIRSS Version 0.9.1 bugfix July 2018 build 013d7b7c2542+ Fri, 06 Jul 2018 19:26:36 +0100
REM compiler GCC version 9.2.1 20190827 (Red Hat 9.2.1-1)
REM options -cpp -mtune=generic -march=x86-64 -g -O0 -fpre-include=/usr/include/finclude/math-vector-fortran.h
REM seed 1766274713 -600159278 -1382805479 770695464 1051922078 847437203 -612654181 -678735624 -1610395402 1932365586 1555167474 -600143751 328300618 2082139848 331428074 1310292974 -711060419 758477871 1419104303 603668551 738245092 -1451243645 -12861726 -943720999 -643864985 790361611 -769483252 -885783969 2075226035 -334272612 922200927 -2071146701 -1710930295
REM
CELL 1.54180   50.00000   50.00000   50.00000   90.00000   90.00000   90.00000
LATT -1
SFAC C  
C      1  0.5486220000000  0.5397300000000  0.5295160000000 1.0
C      1  0.5322640000000  0.4222850000000  0.5494780000000 1.0
C      1  0.5164350000000  0.4924540000000  0.5224440000000 1.0
C      1  0.5275720000000  0.5772820000000  0.5059650000000 1.0
C      1  0.4781200000000  0.4881620000000  0.4454270000000 1.0
C      1  0.6118110000000  0.5062080000000  0.5092470000000 1.0
C      1  0.4353270000000  0.4894690000000  0.5849500000000 1.0
C      1  0.5159690000000  0.4665200000000  0.5605230000000 1.0
C      1  0.4882930000000  0.4304190000000  0.5759510000000 1.0
C      1  0.4103830000000  0.5623110000000  0.5132830000000 1.0
C      1  0.5210190000000  0.5442220000000  0.4427040000000 1.0
C      1  0.4557250000000  0.4721140000000  0.4361620000000 1.0
C      1  0.4167220000000  0.4665240000000  0.5116500000000 1.0
C      1  0.4510140000000  0.4464550000000  0.4477070000000 1.0
C      1  0.5223720000000  0.4032390000000  0.5311750000000 1.0
C      1  0.4854770000000  0.4459250000000  0.4911860000000 1.0
C      1  0.4846510000000  0.6010540000000  0.4526200000000 1.0
C      1  0.4279620000000  0.5586090000000  0.4574680000000 1.0
C      1  0.5751380000000  0.4364330000000  0.4666570000000 1.0
C      1  0.4789430000000  0.4829380000000  0.5836400000000 1.0
C      1  0.5101200000000  0.4591250000000  0.4882840000000 1.0
C      1  0.5043090000000  0.4790480000000  0.4407890000000 1.0
C      1  0.4651350000000  0.5855560000000  0.4426590000000 1.0
C      1  0.5206570000000  0.5053930000000  0.4735640000000 1.0
C      1  0.4019110000000  0.5450980000000  0.4944590000000 1.0
C      1  0.5344990000000  0.4341140000000  0.4064750000000 1.0
C      1  0.5248460000000  0.5818150000000  0.4769530000000 1.0
C      1  0.4437940000000  0.5174540000000  0.4326030000000 1.0
C      1  0.4439100000000  0.5582120000000  0.5479250000000 1.0
C      1  0.5378890000000  0.5617430000000  0.4607060000000 1.0
C      1  0.5624730000000  0.5004280000000  0.5009150000000 1.0
C      1  0.5277020000000  0.5166010000000  0.4471920000000 1.0
C      1  0.4822190000000  0.5825320000000  0.4988490000000 1.0
C      1  0.5348590000000  0.4854560000000  0.4040470000000 1.0
C      1  0.4547320000000  0.4675100000000  0.5879340000000 1.0
C      1  0.4164920000000  0.5371740000000  0.4719320000000 1.0
C      1  0.4896490000000  0.4784520000000  0.5583260000000 1.0
C      1  0.4555850000000  0.5825540000000  0.5077010000000 1.0
C      1  0.4942120000000  0.3995480000000  0.4876750000000 1.0
C      1  0.4289450000000  0.5111640000000  0.5348730000000 1.0
C      1  0.4547590000000  0.5042140000000  0.4845310000000 1.0
C      1  0.4948670000000  0.5435080000000  0.4265670000000 1.0
C      1  0.5706050000000  0.4251430000000  0.4430190000000 1.0
C      1  0.5321730000000  0.4885850000000  0.5496150000000 1.0
C      1  0.5089440000000  0.4233300000000  0.4110410000000 1.0
C      1  0.4356650000000  0.4531050000000  0.4955920000000 1.0
C      1  0.5017700000000  0.5650820000000  0.5120380000000 1.0
C      1  0.4557940000000  0.5619330000000  0.4546970000000 1.0
C      1  0.5279990000000  0.5184820000000  0.5866170000000 1.0
C      1  0.5625690000000  0.5283780000000  0.5514600000000 1.0
C      1  0.5143780000000  0.4770630000000  0.4673770000000 1.0
C      1  0.5647270000000  0.5531080000000  0.4722150000000 1.0
C      1  0.5595330000000  0.4301170000000  0.5485960000000 1.0
C      1  0.4979490000000  0.5370200000000  0.5141480000000 1.0
C      1  0.4355100000000  0.5697240000000  0.5232370000000 1.0
C      1  0.4161750000000  0.4894460000000  0.5257480000000 1.0
C      1  0.4494570000000  0.5159110000000  0.5789680000000 1.0
C      1  0.4638080000000  0.4403500000000  0.5842060000000 1.0
C      1  0.5552920000000  0.4728590000000  0.5001080000000 1.0
C      1  0.5230440000000  0.4962990000000  0.4267580000000 1.0
C      1  0.4811490000000  0.5258090000000  0.5381680000000 1.0
C      1  0.4826200000000  0.4221070000000  0.4756140000000 1.0
C      1  0.4629960000000  0.4597460000000  0.5018260000000 1.0
C      1  0.5092960000000  0.3948030000000  0.5094110000000 1.0
C      1  0.4494370000000  0.5278690000000  0.5494440000000 1.0
C      1  0.4859070000000  0.4945520000000  0.5323850000000 1.0
C      1  0.4723120000000  0.4268480000000  0.4491620000000 1.0
C      1  0.4951260000000  0.5422240000000  0.5621400000000 1.0
C      1  0.5373160000000  0.4600210000000  0.3956810000000 1.0
C      1  0.5451150000000  0.5898520000000  0.5224190000000 1.0
C      1  0.4874890000000  0.4201460000000  0.4265790000000 1.0
C      1  0.4315760000000  0.5139860000000  0.4690710000000 1.0
C      1  0.4318260000000  0.4449080000000  0.4687950000000 1.0
C      1  0.5819170000000  0.4438800000000  0.5431980000000 1.0
C      1  0.5449230000000  0.5096570000000  0.5651180000000 1.0
C      1  0.4863860000000  0.5685260000000  0.5671240000000 1.0
C      1  0.5462100000000  0.5233370000000  0.5070790000000 1.0
C      1  0.5976610000000  0.5306960000000  0.5137650000000 1.0
C      1  0.5178900000000  0.5162090000000  0.5021100000000 1.0
C      1  0.5562770000000  0.4235160000000  0.4206430000000 1.0
C      1  0.4385660000000  0.4911920000000  0.4239860000000 1.0
C      1  0.5137230000000  0.4383840000000  0.5642070000000 1.0
C      1  0.5278480000000  0.4684080000000  0.5079570000000 1.0
C      1  0.5896880000000  0.5322040000000  0.5422080000000 1.0
C      1  0.4978500000000  0.5929200000000  0.4757570000000 1.0
C      1  0.6112960000000  0.4813130000000  0.5197500000000 1.0
C      1  0.5697360000000  0.4534390000000  0.4863200000000 1.0
C      1  0.4601410000000  0.5745040000000  0.5645720000000 1.0
C      1  0.5842280000000  0.5453320000000  0.4910070000000 1.0
C      1  0.4732730000000  0.5404770000000  0.4643160000000 1.0
C      1  0.4661570000000  0.4879400000000  0.5073150000000 1.0
C      1  0.4769470000000  0.5106860000000  0.5901310000000 1.0
C      1  0.6000870000000  0.4609450000000  0.5332270000000 1.0
C      1  0.4686360000000  0.5321190000000  0.4220740000000 1.0
C      1  0.4750740000000  0.5107560000000  0.4648990000000 1.0
C      1  0.5005480000000  0.5257100000000  0.5843860000000 1.0
END
