TITL C-599893-4344-1049 0.161048950876535 125000 -464.826841609926 0 0 78 (C1) n - 1
REM
REM in /home/nfs/bkarasulu/CARBON/AIRSS/Generating-Clusters/TERSOFF/Only-C1/FIRE-HFTN
REM
REM
REM
REM
REM
REM ./C.cell (11c1c37f851c82e70ff6c80c92926a4b)
REM AIRSS Version 0.9.1 bugfix July 2018 build 013d7b7c2542+ Fri, 06 Jul 2018 19:26:36 +0100
REM compiler GCC version 9.2.1 20190827 (Red Hat 9.2.1-1)
REM options -cpp -mtune=generic -march=x86-64 -g -O0 -fpre-include=/usr/include/finclude/math-vector-fortran.h
REM seed 2095586186 -694646322 771400912 -1699574978 552893939 641514284 -105284729 1667054108 -1934473845 598163330 -889403306 -1429421745 957422418 1108791096 -456581069 -512080445 2037110021 784176285 1448286219 -1427559724 -1715506918 -556627651 755095186 1962992648 1703406542 1646420851 -427742476 773669071 -800205576 1473075681 -683762770 -1843630885 240257610
REM
CELL 1.54180   50.00000   50.00000   50.00000   90.00000   90.00000   90.00000
LATT -1
SFAC C  
C      1  0.5512410000000  0.4612410000000  0.5190550000000 1.0
C      1  0.4441710000000  0.4521990000000  0.5836720000000 1.0
C      1  0.5056400000000  0.4871170000000  0.5927170000000 1.0
C      1  0.5021110000000  0.4666850000000  0.5263240000000 1.0
C      1  0.5693790000000  0.4849370000000  0.5216060000000 1.0
C      1  0.4131970000000  0.5219670000000  0.3935400000000 1.0
C      1  0.4851230000000  0.5336100000000  0.5199270000000 1.0
C      1  0.4116730000000  0.4210180000000  0.5714200000000 1.0
C      1  0.4984670000000  0.4724790000000  0.3866930000000 1.0
C      1  0.4840100000000  0.5063060000000  0.4158240000000 1.0
C      1  0.5319210000000  0.5522440000000  0.4495170000000 1.0
C      1  0.4590920000000  0.5195930000000  0.5608020000000 1.0
C      1  0.4758770000000  0.4627410000000  0.5162250000000 1.0
C      1  0.5131670000000  0.4444470000000  0.4544100000000 1.0
C      1  0.5254400000000  0.5603840000000  0.4759590000000 1.0
C      1  0.4958140000000  0.5578170000000  0.5565980000000 1.0
C      1  0.4374460000000  0.5773980000000  0.4383190000000 1.0
C      1  0.5055910000000  0.5135060000000  0.5195590000000 1.0
C      1  0.4586090000000  0.5832640000000  0.4532260000000 1.0
C      1  0.4995400000000  0.5693160000000  0.4845350000000 1.0
C      1  0.4728240000000  0.4487750000000  0.4914300000000 1.0
C      1  0.5549690000000  0.5351250000000  0.5388300000000 1.0
C      1  0.4764510000000  0.4877930000000  0.3956770000000 1.0
C      1  0.4943170000000  0.4466500000000  0.4731940000000 1.0
C      1  0.5864100000000  0.4821070000000  0.5465220000000 1.0
C      1  0.4606250000000  0.4746240000000  0.5800780000000 1.0
C      1  0.5306600000000  0.5072970000000  0.3998390000000 1.0
C      1  0.5064630000000  0.4920690000000  0.5383950000000 1.0
C      1  0.4942490000000  0.5603430000000  0.5109840000000 1.0
C      1  0.5307890000000  0.5166150000000  0.5021140000000 1.0
C      1  0.5038940000000  0.5125530000000  0.4572130000000 1.0
C      1  0.5886390000000  0.4857780000000  0.4981630000000 1.0
C      1  0.4803110000000  0.5810070000000  0.4683250000000 1.0
C      1  0.4113100000000  0.5447270000000  0.4071470000000 1.0
C      1  0.5796850000000  0.5397020000000  0.5863270000000 1.0
C      1  0.5440650000000  0.4762260000000  0.6288300000000 1.0
C      1  0.4504670000000  0.4878260000000  0.3858370000000 1.0
C      1  0.5390000000000  0.5562450000000  0.5262120000000 1.0
C      1  0.4538810000000  0.5264830000000  0.5882980000000 1.0
C      1  0.5245380000000  0.4785680000000  0.3953810000000 1.0
C      1  0.4275020000000  0.4425560000000  0.5611270000000 1.0
C      1  0.5258310000000  0.4527950000000  0.5207270000000 1.0
C      1  0.4061460000000  0.3967840000000  0.6154150000000 1.0
C      1  0.5580640000000  0.5095310000000  0.4105170000000 1.0
C      1  0.4575840000000  0.4905440000000  0.5553030000000 1.0
C      1  0.5250680000000  0.4811940000000  0.6116980000000 1.0
C      1  0.5218130000000  0.5038710000000  0.4769680000000 1.0
C      1  0.4272650000000  0.5008820000000  0.3854490000000 1.0
C      1  0.4491530000000  0.4363940000000  0.4852710000000 1.0
C      1  0.4758060000000  0.5378790000000  0.5473770000000 1.0
C      1  0.4777920000000  0.4874770000000  0.5990910000000 1.0
C      1  0.4204660000000  0.5641270000000  0.4228120000000 1.0
C      1  0.4558250000000  0.4971290000000  0.4565280000000 1.0
C      1  0.5122070000000  0.4931520000000  0.5658720000000 1.0
C      1  0.5418260000000  0.4642310000000  0.4141700000000 1.0
C      1  0.4249100000000  0.5149970000000  0.4883570000000 1.0
C      1  0.5092800000000  0.5216040000000  0.4124050000000 1.0
C      1  0.6348260000000  0.4808390000000  0.5378650000000 1.0
C      1  0.6124770000000  0.4805350000000  0.5530260000000 1.0
C      1  0.6360680000000  0.4828860000000  0.5109200000000 1.0
C      1  0.4799570000000  0.5028130000000  0.4443700000000 1.0
C      1  0.6152010000000  0.4850330000000  0.4939070000000 1.0
C      1  0.4374390000000  0.4353250000000  0.6059750000000 1.0
C      1  0.4539990000000  0.4728590000000  0.5323530000000 1.0
C      1  0.5303840000000  0.4486330000000  0.4343930000000 1.0
C      1  0.5535030000000  0.5104500000000  0.5225540000000 1.0
C      1  0.5677690000000  0.5335710000000  0.4210790000000 1.0
C      1  0.5685400000000  0.5378810000000  0.5628420000000 1.0
C      1  0.5643560000000  0.4822250000000  0.4179840000000 1.0
C      1  0.4299490000000  0.4985130000000  0.4670830000000 1.0
C      1  0.4171740000000  0.4155890000000  0.5994020000000 1.0
C      1  0.4321630000000  0.4549410000000  0.5364660000000 1.0
C      1  0.5573640000000  0.5525580000000  0.4372920000000 1.0
C      1  0.5129830000000  0.5666590000000  0.5342910000000 1.0
C      1  0.4099360000000  0.4835530000000  0.4558970000000 1.0
C      1  0.5147280000000  0.5326230000000  0.4387080000000 1.0
C      1  0.5376200000000  0.5467300000000  0.4977800000000 1.0
C      1  0.4659710000000  0.5118540000000  0.6080040000000 1.0
END
