TITL C-599892-9790-1273 0.769289061328442 125000 -281.210496014521 0 0 48 (C1) n - 1
REM
REM in /home/nfs/bkarasulu/CARBON/AIRSS/Generating-Clusters/TERSOFF/Only-C1/FIRE-HFTN
REM
REM
REM
REM
REM
REM ./C.cell (11c1c37f851c82e70ff6c80c92926a4b)
REM AIRSS Version 0.9.1 bugfix July 2018 build 013d7b7c2542+ Fri, 06 Jul 2018 19:26:36 +0100
REM compiler GCC version 9.2.1 20190827 (Red Hat 9.2.1-1)
REM options -cpp -mtune=generic -march=x86-64 -g -O0 -fpre-include=/usr/include/finclude/math-vector-fortran.h
REM seed 709291784 -987451877 -176292640 -115304072 -31337851 958767231 455960530 -518111596 2107898974 211310363 598185578 1487177502 260024004 -384820559 -1272488207 481060296 -1645758777 -1088220699 1203989079 1925520196 1343714259 1792940815 -1252786809 97597803 -1357690436 403397471 -1220004254 1194421738 -1991107702 -915998657 121164498 -568281283 -397415243
REM
CELL 1.54180   50.00000   50.00000   50.00000   90.00000   90.00000   90.00000
LATT -1
SFAC C  
C      1  0.5501260000000  0.4573200000000  0.4366070000000 1.0
C      1  0.5706980000000  0.5316310000000  0.5154700000000 1.0
C      1  0.4403730000000  0.5331860000000  0.4606250000000 1.0
C      1  0.4703780000000  0.5316510000000  0.5285040000000 1.0
C      1  0.5103530000000  0.4989460000000  0.5438510000000 1.0
C      1  0.4483000000000  0.4285620000000  0.4750780000000 1.0
C      1  0.4481060000000  0.5185040000000  0.5696930000000 1.0
C      1  0.5640760000000  0.5198870000000  0.4670230000000 1.0
C      1  0.6403320000000  0.5669780000000  0.5890510000000 1.0
C      1  0.5069130000000  0.5161900000000  0.5899110000000 1.0
C      1  0.4966850000000  0.5743740000000  0.4567600000000 1.0
C      1  0.5165440000000  0.5190470000000  0.6139570000000 1.0
C      1  0.4119620000000  0.4988110000000  0.4350660000000 1.0
C      1  0.4989070000000  0.4612740000000  0.5130550000000 1.0
C      1  0.4967270000000  0.5131700000000  0.5642490000000 1.0
C      1  0.5379410000000  0.5186280000000  0.4615160000000 1.0
C      1  0.4582550000000  0.5323440000000  0.4802800000000 1.0
C      1  0.4202800000000  0.4465180000000  0.4383560000000 1.0
C      1  0.5889010000000  0.5408450000000  0.5343590000000 1.0
C      1  0.5192600000000  0.5138280000000  0.5208890000000 1.0
C      1  0.5061570000000  0.4716490000000  0.5382940000000 1.0
C      1  0.4838150000000  0.4379890000000  0.5099140000000 1.0
C      1  0.5782240000000  0.5258840000000  0.4889810000000 1.0
C      1  0.4231120000000  0.5210320000000  0.4444710000000 1.0
C      1  0.5436100000000  0.5274330000000  0.5216300000000 1.0
C      1  0.4065930000000  0.4243780000000  0.4300590000000 1.0
C      1  0.4227110000000  0.4851690000000  0.5441180000000 1.0
C      1  0.5114950000000  0.4681700000000  0.4654550000000 1.0
C      1  0.4344140000000  0.4816990000000  0.5202300000000 1.0
C      1  0.5079900000000  0.4645710000000  0.4171690000000 1.0
C      1  0.5016510000000  0.5093530000000  0.4955370000000 1.0
C      1  0.4641030000000  0.4261360000000  0.4964450000000 1.0
C      1  0.4280050000000  0.5012720000000  0.5649910000000 1.0
C      1  0.4105610000000  0.4723320000000  0.4333770000000 1.0
C      1  0.4943500000000  0.4655750000000  0.4422240000000 1.0
C      1  0.5034420000000  0.4787810000000  0.4904350000000 1.0
C      1  0.4718350000000  0.5170570000000  0.5020530000000 1.0
C      1  0.5346480000000  0.4598150000000  0.4143310000000 1.0
C      1  0.5387480000000  0.4606860000000  0.4611160000000 1.0
C      1  0.4450390000000  0.4442390000000  0.4520510000000 1.0
C      1  0.6571970000000  0.5755470000000  0.6069890000000 1.0
C      1  0.4672910000000  0.4592700000000  0.4439320000000 1.0
C      1  0.6060410000000  0.5495540000000  0.5525790000000 1.0
C      1  0.4539940000000  0.4924240000000  0.5055160000000 1.0
C      1  0.5128390000000  0.5254520000000  0.4723970000000 1.0
C      1  0.4718910000000  0.5244860000000  0.5559330000000 1.0
C      1  0.6231840000000  0.5582650000000  0.5708130000000 1.0
C      1  0.5019440000000  0.5500890000000  0.4646600000000 1.0
END
