TITL C-599895-9959-959 0.000244005524474574 125000 -1157.85905652409 0 0 188 (C1) n - 1
REM
REM in /home/nfs/bkarasulu/CARBON/AIRSS/Generating-Clusters/TERSOFF/Only-C1/FIRE-HFTN
REM
REM
REM
REM
REM
REM ./C.cell (11c1c37f851c82e70ff6c80c92926a4b)
REM AIRSS Version 0.9.1 bugfix July 2018 build 013d7b7c2542+ Fri, 06 Jul 2018 19:26:36 +0100
REM compiler GCC version 9.2.1 20190827 (Red Hat 9.2.1-1)
REM options -cpp -mtune=generic -march=x86-64 -g -O0 -fpre-include=/usr/include/finclude/math-vector-fortran.h
REM seed -197364862 2117622194 -840782052 581016341 -906406173 -270731070 1749840392 1901365828 -1276115804 1052480242 -245246826 1071764084 1516090289 -780988516 11849201 1161803113 566231880 1414706632 1713393871 2119105996 1326017346 77006717 -465559084 -1350639003 -1974540077 -547070169 -30095888 -1084232783 1922382031 781298721 -398113259 -661409799 -1860083204
REM
CELL 1.54180   50.00000   50.00000   50.00000   90.00000   90.00000   90.00000
LATT -1
SFAC C  
C      1  0.5348260000000  0.4466590000000  0.5004730000000 1.0
C      1  0.3879540000000  0.4880440000000  0.5663380000000 1.0
C      1  0.5411070000000  0.4466380000000  0.4026590000000 1.0
C      1  0.5856710000000  0.5893720000000  0.4521840000000 1.0
C      1  0.5344620000000  0.4590380000000  0.6331580000000 1.0
C      1  0.5897740000000  0.4218640000000  0.6108190000000 1.0
C      1  0.5321350000000  0.4925450000000  0.5123940000000 1.0
C      1  0.4768710000000  0.4177390000000  0.5727060000000 1.0
C      1  0.3942680000000  0.4785920000000  0.4705770000000 1.0
C      1  0.4848670000000  0.5803260000000  0.5369490000000 1.0
C      1  0.5125460000000  0.5697890000000  0.5785990000000 1.0
C      1  0.4469350000000  0.4536820000000  0.3962740000000 1.0
C      1  0.4520520000000  0.5292310000000  0.4827210000000 1.0
C      1  0.4503880000000  0.4403350000000  0.5032480000000 1.0
C      1  0.5297490000000  0.4618480000000  0.5568890000000 1.0
C      1  0.5849270000000  0.5092590000000  0.6019940000000 1.0
C      1  0.5469520000000  0.3420160000000  0.5760390000000 1.0
C      1  0.4192320000000  0.4096980000000  0.5395690000000 1.0
C      1  0.4952500000000  0.6109540000000  0.4731080000000 1.0
C      1  0.4615210000000  0.4947560000000  0.5566970000000 1.0
C      1  0.5047890000000  0.4983860000000  0.6196560000000 1.0
C      1  0.4039650000000  0.4588680000000  0.4504020000000 1.0
C      1  0.5055700000000  0.4675590000000  0.5436280000000 1.0
C      1  0.5014900000000  0.5079910000000  0.4590820000000 1.0
C      1  0.5323750000000  0.4364850000000  0.6190510000000 1.0
C      1  0.4100530000000  0.3972070000000  0.5852950000000 1.0
C      1  0.5196250000000  0.5122720000000  0.5657980000000 1.0
C      1  0.4903050000000  0.5491280000000  0.4249110000000 1.0
C      1  0.4898390000000  0.3979690000000  0.4742850000000 1.0
C      1  0.5016020000000  0.4246320000000  0.4732070000000 1.0
C      1  0.4386970000000  0.5287170000000  0.4585070000000 1.0
C      1  0.6040570000000  0.5466510000000  0.4406400000000 1.0
C      1  0.5701600000000  0.5935330000000  0.5033830000000 1.0
C      1  0.4166340000000  0.5452670000000  0.4531030000000 1.0
C      1  0.4455720000000  0.4882420000000  0.5048040000000 1.0
C      1  0.4647650000000  0.4821980000000  0.4855100000000 1.0
C      1  0.5551310000000  0.4560110000000  0.5455920000000 1.0
C      1  0.4260970000000  0.4104210000000  0.5673850000000 1.0
C      1  0.5722310000000  0.4627130000000  0.4445370000000 1.0
C      1  0.4629430000000  0.4695220000000  0.3768890000000 1.0
C      1  0.5297480000000  0.4029720000000  0.5819820000000 1.0
C      1  0.4801010000000  0.5707490000000  0.4417590000000 1.0
C      1  0.4708280000000  0.5472770000000  0.6026920000000 1.0
C      1  0.5133670000000  0.5246230000000  0.6076640000000 1.0
C      1  0.5611270000000  0.5178980000000  0.5940630000000 1.0
C      1  0.5269320000000  0.5183370000000  0.5227370000000 1.0
C      1  0.5698670000000  0.5983230000000  0.4742230000000 1.0
C      1  0.5970160000000  0.4703410000000  0.4299790000000 1.0
C      1  0.4830930000000  0.4851600000000  0.3912290000000 1.0
C      1  0.4686870000000  0.4354360000000  0.4076330000000 1.0
C      1  0.5020700000000  0.5678140000000  0.5180540000000 1.0
C      1  0.5966180000000  0.5197130000000  0.4364050000000 1.0
C      1  0.4204590000000  0.5741250000000  0.5768420000000 1.0
C      1  0.4022560000000  0.4697020000000  0.4234510000000 1.0
C      1  0.5545350000000  0.5463200000000  0.3922080000000 1.0
C      1  0.4937410000000  0.5630910000000  0.4909560000000 1.0
C      1  0.5449730000000  0.5082630000000  0.4343510000000 1.0
C      1  0.5307020000000  0.5745440000000  0.4577590000000 1.0
C      1  0.5424100000000  0.5408840000000  0.5191660000000 1.0
C      1  0.5108330000000  0.4853310000000  0.4733190000000 1.0
C      1  0.5615300000000  0.5622030000000  0.4165220000000 1.0
C      1  0.5012000000000  0.5503730000000  0.3972470000000 1.0
C      1  0.4549320000000  0.5311940000000  0.5286510000000 1.0
C      1  0.3927310000000  0.5445860000000  0.3680830000000 1.0
C      1  0.5857090000000  0.5678080000000  0.4327120000000 1.0
C      1  0.4041840000000  0.4310070000000  0.5277440000000 1.0
C      1  0.5963840000000  0.4088410000000  0.5671430000000 1.0
C      1  0.5546090000000  0.3905630000000  0.5892300000000 1.0
C      1  0.6095980000000  0.4399730000000  0.5989160000000 1.0
C      1  0.3878110000000  0.4941510000000  0.4251390000000 1.0
C      1  0.4382220000000  0.5568450000000  0.5654720000000 1.0
C      1  0.4762480000000  0.5155390000000  0.5406980000000 1.0
C      1  0.5635210000000  0.4754870000000  0.4707870000000 1.0
C      1  0.4028250000000  0.4754840000000  0.5846160000000 1.0
C      1  0.5262350000000  0.5363050000000  0.3884230000000 1.0
C      1  0.4753770000000  0.6415470000000  0.4314040000000 1.0
C      1  0.4920510000000  0.4334420000000  0.5928510000000 1.0
C      1  0.4209560000000  0.4604860000000  0.4044810000000 1.0
C      1  0.4502000000000  0.3820730000000  0.5059830000000 1.0
C      1  0.5437300000000  0.5928300000000  0.5160200000000 1.0
C      1  0.4635780000000  0.5691600000000  0.3641650000000 1.0
C      1  0.3789840000000  0.5092550000000  0.4036450000000 1.0
C      1  0.5860330000000  0.5073810000000  0.3745170000000 1.0
C      1  0.5357350000000  0.5658670000000  0.5593130000000 1.0
C      1  0.5299510000000  0.5319970000000  0.4340070000000 1.0
C      1  0.4928480000000  0.4274900000000  0.5274270000000 1.0
C      1  0.5380560000000  0.5596000000000  0.4328650000000 1.0
C      1  0.4379530000000  0.5677650000000  0.3573830000000 1.0
C      1  0.3950440000000  0.4761960000000  0.4999280000000 1.0
C      1  0.3819840000000  0.4974810000000  0.5420240000000 1.0
C      1  0.4526540000000  0.4224250000000  0.4819420000000 1.0
C      1  0.4592790000000  0.5019920000000  0.6080620000000 1.0
C      1  0.4524260000000  0.5088510000000  0.5803780000000 1.0
C      1  0.4388250000000  0.4637520000000  0.5200130000000 1.0
C      1  0.5028380000000  0.5282430000000  0.4401620000000 1.0
C      1  0.5200790000000  0.3680770000000  0.5474800000000 1.0
C      1  0.5744870000000  0.5311360000000  0.3789160000000 1.0
C      1  0.4393320000000  0.5171410000000  0.5069850000000 1.0
C      1  0.6132520000000  0.4663920000000  0.6063740000000 1.0
C      1  0.5154410000000  0.3934820000000  0.5583610000000 1.0
C      1  0.6037490000000  0.4912070000000  0.6070430000000 1.0
C      1  0.5729440000000  0.5025510000000  0.4723160000000 1.0
C      1  0.5807130000000  0.5872270000000  0.5494950000000 1.0
C      1  0.5972590000000  0.4653340000000  0.4018550000000 1.0
C      1  0.3874120000000  0.5028620000000  0.4532030000000 1.0
C      1  0.5095010000000  0.4324050000000  0.5005350000000 1.0
C      1  0.4491040000000  0.4240940000000  0.5767460000000 1.0
C      1  0.4473730000000  0.4293190000000  0.4549480000000 1.0
C      1  0.6146180000000  0.4288700000000  0.5726830000000 1.0
C      1  0.5786360000000  0.4048680000000  0.5897040000000 1.0
C      1  0.4826430000000  0.4829710000000  0.4196560000000 1.0
C      1  0.4207020000000  0.4367930000000  0.4517130000000 1.0
C      1  0.4260260000000  0.5725210000000  0.4536930000000 1.0
C      1  0.4992170000000  0.5797410000000  0.4653200000000 1.0
C      1  0.5183290000000  0.4238900000000  0.5983700000000 1.0
C      1  0.5707230000000  0.5128850000000  0.4460380000000 1.0
C      1  0.4641170000000  0.3965450000000  0.4864670000000 1.0
C      1  0.4994190000000  0.5498440000000  0.5983730000000 1.0
C      1  0.4951580000000  0.4421680000000  0.4487630000000 1.0
C      1  0.5235970000000  0.5083890000000  0.3800390000000 1.0
C      1  0.5534010000000  0.4414050000000  0.5212790000000 1.0
C      1  0.4753570000000  0.4560990000000  0.6026080000000 1.0
C      1  0.4841630000000  0.6268620000000  0.4510430000000 1.0
C      1  0.5766700000000  0.5193640000000  0.4942910000000 1.0
C      1  0.5236810000000  0.4834670000000  0.6343950000000 1.0
C      1  0.4321490000000  0.5745060000000  0.5200190000000 1.0
C      1  0.5561290000000  0.5877090000000  0.5643250000000 1.0
C      1  0.5903050000000  0.5858840000000  0.5221710000000 1.0
C      1  0.4910710000000  0.4792040000000  0.4941700000000 1.0
C      1  0.3910880000000  0.5004000000000  0.5154980000000 1.0
C      1  0.4100240000000  0.5206450000000  0.5099350000000 1.0
C      1  0.5426950000000  0.6017720000000  0.4652510000000 1.0
C      1  0.5313540000000  0.4812720000000  0.4319610000000 1.0
C      1  0.5500020000000  0.4599470000000  0.4261670000000 1.0
C      1  0.4476770000000  0.4480330000000  0.5937160000000 1.0
C      1  0.4190380000000  0.5929040000000  0.5032810000000 1.0
C      1  0.4598440000000  0.4888170000000  0.4342920000000 1.0
C      1  0.5904970000000  0.4928540000000  0.5370460000000 1.0
C      1  0.4924700000000  0.4364840000000  0.3866150000000 1.0
C      1  0.5379470000000  0.6088390000000  0.5740420000000 1.0
C      1  0.4855780000000  0.5632890000000  0.3777820000000 1.0
C      1  0.4823040000000  0.6180900000000  0.5004870000000 1.0
C      1  0.4314350000000  0.3894990000000  0.5238760000000 1.0
C      1  0.4627040000000  0.5272270000000  0.6226970000000 1.0
C      1  0.4819890000000  0.4519690000000  0.5411490000000 1.0
C      1  0.4521840000000  0.5770140000000  0.4425570000000 1.0
C      1  0.4236330000000  0.4623860000000  0.5950480000000 1.0
C      1  0.5040640000000  0.4686200000000  0.4341420000000 1.0
C      1  0.6224390000000  0.5616990000000  0.4884660000000 1.0
C      1  0.6127190000000  0.5731300000000  0.5108200000000 1.0
C      1  0.5244060000000  0.6174940000000  0.4804530000000 1.0
C      1  0.4094620000000  0.4567350000000  0.5166510000000 1.0
C      1  0.5306840000000  0.3426000000000  0.5530280000000 1.0
C      1  0.5462740000000  0.5563690000000  0.4769760000000 1.0
C      1  0.4806980000000  0.4834990000000  0.6113410000000 1.0
C      1  0.4763300000000  0.5419330000000  0.4865110000000 1.0
C      1  0.4774900000000  0.4478980000000  0.3629760000000 1.0
C      1  0.4695960000000  0.4329160000000  0.4363610000000 1.0
C      1  0.4073410000000  0.6152390000000  0.5138780000000 1.0
C      1  0.4128990000000  0.5590880000000  0.3587170000000 1.0
C      1  0.5554010000000  0.3624720000000  0.5912450000000 1.0
C      1  0.5851030000000  0.4192690000000  0.6375050000000 1.0
C      1  0.5340660000000  0.5183280000000  0.5887670000000 1.0
C      1  0.5091450000000  0.6002090000000  0.5731630000000 1.0
C      1  0.5583380000000  0.5408770000000  0.4964350000000 1.0
C      1  0.5772590000000  0.4728840000000  0.5489140000000 1.0
C      1  0.4181410000000  0.5882170000000  0.4755820000000 1.0
C      1  0.5014010000000  0.6197030000000  0.5233620000000 1.0
C      1  0.5061580000000  0.4802840000000  0.5186220000000 1.0
C      1  0.5930550000000  0.4824700000000  0.3814330000000 1.0
C      1  0.4553140000000  0.4825110000000  0.4595610000000 1.0
C      1  0.5909280000000  0.5101130000000  0.5166530000000 1.0
C      1  0.5108970000000  0.4828960000000  0.3821470000000 1.0
C      1  0.4423250000000  0.5551950000000  0.5376270000000 1.0
C      1  0.5174520000000  0.4534840000000  0.3877640000000 1.0
C      1  0.6205040000000  0.5526500000000  0.4632010000000 1.0
C      1  0.5375720000000  0.4752660000000  0.4869050000000 1.0
C      1  0.4929890000000  0.4087990000000  0.5501310000000 1.0
C      1  0.5268960000000  0.6150760000000  0.5096130000000 1.0
C      1  0.5257170000000  0.3206830000000  0.5376870000000 1.0
C      1  0.5311010000000  0.5667190000000  0.5281970000000 1.0
C      1  0.6109040000000  0.4949700000000  0.4357060000000 1.0
C      1  0.3808520000000  0.5269060000000  0.3839240000000 1.0
C      1  0.4948630000000  0.6050380000000  0.5479990000000 1.0
C      1  0.4535450000000  0.5389560000000  0.5806180000000 1.0
C      1  0.3924100000000  0.5308360000000  0.4562700000000 1.0
C      1  0.5052620000000  0.5182970000000  0.5423080000000 1.0
C      1  0.4577910000000  0.4677730000000  0.5440750000000 1.0
END
