TITL C-599897-7526-1156 -10008.5521123048 125000 -1170.73187568511 0 0 191 (C1) n - 1
REM
REM in /home/nfs/bkarasulu/CARBON/AIRSS/Generating-Clusters/TERSOFF/Only-C1/FIRE-HFTN
REM
REM
REM
REM
REM
REM ./C.cell (11c1c37f851c82e70ff6c80c92926a4b)
REM AIRSS Version 0.9.1 bugfix July 2018 build 013d7b7c2542+ Fri, 06 Jul 2018 19:26:36 +0100
REM compiler GCC version 9.2.1 20190827 (Red Hat 9.2.1-1)
REM options -cpp -mtune=generic -march=x86-64 -g -O0 -fpre-include=/usr/include/finclude/math-vector-fortran.h
REM seed 1783023664 -958157072 1176976257 1269199570 1642199611 -818929508 647657399 80785714 264225588 -190460306 -1164734652 -1086310508 1285389765 1068158336 -454472394 92771767 -1486539618 587624876 1660380916 -1458036148 520086249 -968872197 -330263162 485375091 534606093 -203359463 -674787103 -1266479372 742550983 -470477177 1253786842 -1718828221 1858461344
REM
CELL 1.54180   50.00000   50.00000   50.00000   90.00000   90.00000   90.00000
LATT -1
SFAC C  
C      1  0.4706270000000  0.5439610000000  0.3899820000000 1.0
C      1  0.6064670000000  0.5444800000000  0.4690590000000 1.0
C      1  0.5482370000000  0.5226200000000  0.4493700000000 1.0
C      1  0.4516920000000  0.5004920000000  0.6053790000000 1.0
C      1  0.4351520000000  0.6080450000000  0.4518990000000 1.0
C      1  0.4672780000000  0.4331100000000  0.3834100000000 1.0
C      1  0.4290320000000  0.5829040000000  0.4400590000000 1.0
C      1  0.5332160000000  0.4538790000000  0.3865760000000 1.0
C      1  0.5269590000000  0.5557990000000  0.5058270000000 1.0
C      1  0.4423330000000  0.5997960000000  0.5493920000000 1.0
C      1  0.4152750000000  0.4898910000000  0.5153770000000 1.0
C      1  0.5210510000000  0.4704070000000  0.5592820000000 1.0
C      1  0.5178760000000  0.5342670000000  0.5819020000000 1.0
C      1  0.4157090000000  0.5657640000000  0.4577260000000 1.0
C      1  0.5747580000000  0.4094150000000  0.4105830000000 1.0
C      1  0.4037580000000  0.4824980000000  0.4366620000000 1.0
C      1  0.4984000000000  0.4905410000000  0.4041300000000 1.0
C      1  0.4678070000000  0.4498960000000  0.4924240000000 1.0
C      1  0.5902920000000  0.4947660000000  0.5391820000000 1.0
C      1  0.5135030000000  0.4864100000000  0.4302720000000 1.0
C      1  0.3827220000000  0.5574400000000  0.5132120000000 1.0
C      1  0.4123540000000  0.5258450000000  0.4848940000000 1.0
C      1  0.4209200000000  0.4032860000000  0.4958060000000 1.0
C      1  0.4636030000000  0.5950450000000  0.5722230000000 1.0
C      1  0.5947110000000  0.4542640000000  0.4918490000000 1.0
C      1  0.4796890000000  0.4214350000000  0.4063650000000 1.0
C      1  0.4395580000000  0.4383520000000  0.3883610000000 1.0
C      1  0.4569340000000  0.5476590000000  0.5526540000000 1.0
C      1  0.4085650000000  0.3867820000000  0.5688640000000 1.0
C      1  0.5941640000000  0.5708850000000  0.4742260000000 1.0
C      1  0.4859900000000  0.4452660000000  0.3659220000000 1.0
C      1  0.4558470000000  0.5431620000000  0.4796150000000 1.0
C      1  0.4796850000000  0.5793230000000  0.5202550000000 1.0
C      1  0.4839920000000  0.5082820000000  0.4544100000000 1.0
C      1  0.5853020000000  0.5891030000000  0.4974370000000 1.0
C      1  0.5491650000000  0.5487370000000  0.4889800000000 1.0
C      1  0.5661620000000  0.4571560000000  0.5906190000000 1.0
C      1  0.5410590000000  0.4450510000000  0.5939490000000 1.0
C      1  0.5869680000000  0.3691510000000  0.4967950000000 1.0
C      1  0.4396520000000  0.4803340000000  0.5912090000000 1.0
C      1  0.4099320000000  0.5084400000000  0.4245670000000 1.0
C      1  0.4731920000000  0.4217880000000  0.5803660000000 1.0
C      1  0.4625670000000  0.5351830000000  0.5078260000000 1.0
C      1  0.5033030000000  0.5228400000000  0.4895110000000 1.0
C      1  0.5490870000000  0.5729640000000  0.5592520000000 1.0
C      1  0.5824600000000  0.4713090000000  0.4460470000000 1.0
C      1  0.5119370000000  0.6100940000000  0.4711520000000 1.0
C      1  0.4593870000000  0.5150450000000  0.4646230000000 1.0
C      1  0.4362560000000  0.4165460000000  0.4316690000000 1.0
C      1  0.5821260000000  0.5088720000000  0.4189530000000 1.0
C      1  0.4581540000000  0.4235400000000  0.4500160000000 1.0
C      1  0.5484390000000  0.4991630000000  0.6103450000000 1.0
C      1  0.5663750000000  0.4436220000000  0.5391420000000 1.0
C      1  0.4945180000000  0.4821190000000  0.5997830000000 1.0
C      1  0.5162450000000  0.6103320000000  0.4994770000000 1.0
C      1  0.5789940000000  0.4562190000000  0.5638300000000 1.0
C      1  0.3999630000000  0.5752550000000  0.5249470000000 1.0
C      1  0.6051550000000  0.3566810000000  0.5106880000000 1.0
C      1  0.5039970000000  0.5514070000000  0.4890380000000 1.0
C      1  0.3944490000000  0.4730050000000  0.4633040000000 1.0
C      1  0.4226310000000  0.4996820000000  0.4897670000000 1.0
C      1  0.4740570000000  0.3738100000000  0.5325650000000 1.0
C      1  0.4991000000000  0.5410940000000  0.3926960000000 1.0
C      1  0.5625080000000  0.4152960000000  0.5405480000000 1.0
C      1  0.5101340000000  0.5923650000000  0.5954240000000 1.0
C      1  0.4163190000000  0.5478070000000  0.5809350000000 1.0
C      1  0.4096660000000  0.5022060000000  0.5651840000000 1.0
C      1  0.5945570000000  0.4484050000000  0.4351780000000 1.0
C      1  0.5166670000000  0.5592130000000  0.4096310000000 1.0
C      1  0.4976340000000  0.4804230000000  0.5715480000000 1.0
C      1  0.4417500000000  0.4932760000000  0.4687440000000 1.0
C      1  0.4814690000000  0.5587770000000  0.4725160000000 1.0
C      1  0.3787040000000  0.4258380000000  0.5014210000000 1.0
C      1  0.5774330000000  0.5601760000000  0.4299820000000 1.0
C      1  0.5365230000000  0.5149350000000  0.4025820000000 1.0
C      1  0.5647130000000  0.6075770000000  0.4853790000000 1.0
C      1  0.3741220000000  0.5292440000000  0.5625240000000 1.0
C      1  0.5294090000000  0.5631000000000  0.4347480000000 1.0
C      1  0.4894730000000  0.5308150000000  0.5884850000000 1.0
C      1  0.4573010000000  0.5720280000000  0.5905470000000 1.0
C      1  0.4917020000000  0.4926880000000  0.5188530000000 1.0
C      1  0.4939100000000  0.4070030000000  0.5674000000000 1.0
C      1  0.5701360000000  0.4831290000000  0.6024340000000 1.0
C      1  0.4041000000000  0.4255380000000  0.4913390000000 1.0
C      1  0.5238470000000  0.5032890000000  0.4893140000000 1.0
C      1  0.6050840000000  0.5083840000000  0.5184900000000 1.0
C      1  0.5095550000000  0.6032160000000  0.5485210000000 1.0
C      1  0.4286950000000  0.4032310000000  0.5670730000000 1.0
C      1  0.4422650000000  0.3875380000000  0.4985150000000 1.0
C      1  0.4859680000000  0.3833970000000  0.5543440000000 1.0
C      1  0.5895750000000  0.5264190000000  0.5933130000000 1.0
C      1  0.5118000000000  0.4534970000000  0.3678320000000 1.0
C      1  0.4449790000000  0.6188150000000  0.5283100000000 1.0
C      1  0.4468260000000  0.4455770000000  0.4697830000000 1.0
C      1  0.5953790000000  0.4813760000000  0.5635370000000 1.0
C      1  0.4486960000000  0.4223940000000  0.5645860000000 1.0
C      1  0.5406820000000  0.3736380000000  0.4823690000000 1.0
C      1  0.5753960000000  0.5712980000000  0.5461530000000 1.0
C      1  0.3771520000000  0.5164860000000  0.5366700000000 1.0
C      1  0.4708740000000  0.5489890000000  0.5777500000000 1.0
C      1  0.5560830000000  0.5666340000000  0.6076750000000 1.0
C      1  0.4463720000000  0.5694720000000  0.4217610000000 1.0
C      1  0.4757750000000  0.4749900000000  0.5308850000000 1.0
C      1  0.5344140000000  0.5190100000000  0.5991260000000 1.0
C      1  0.5590270000000  0.6008150000000  0.4580680000000 1.0
C      1  0.4273360000000  0.4383030000000  0.4144580000000 1.0
C      1  0.5902600000000  0.5332730000000  0.5173270000000 1.0
C      1  0.5759990000000  0.5486530000000  0.6019390000000 1.0
C      1  0.5102820000000  0.5140290000000  0.3896000000000 1.0
C      1  0.4963720000000  0.4558070000000  0.6117200000000 1.0
C      1  0.5684620000000  0.4996890000000  0.4903150000000 1.0
C      1  0.4883480000000  0.3737390000000  0.4871360000000 1.0
C      1  0.5925100000000  0.4278170000000  0.4861230000000 1.0
C      1  0.5736060000000  0.4720200000000  0.4994370000000 1.0
C      1  0.4815110000000  0.5148560000000  0.5064210000000 1.0
C      1  0.5181090000000  0.4397530000000  0.4324870000000 1.0
C      1  0.5897910000000  0.5485980000000  0.5403560000000 1.0
C      1  0.4456760000000  0.4455020000000  0.5477420000000 1.0
C      1  0.4990550000000  0.5294680000000  0.4404000000000 1.0
C      1  0.4311450000000  0.5639240000000  0.5998120000000 1.0
C      1  0.5317800000000  0.6071880000000  0.4522700000000 1.0
C      1  0.5410270000000  0.5497770000000  0.4604400000000 1.0
C      1  0.4453780000000  0.5453440000000  0.4053670000000 1.0
C      1  0.4762800000000  0.4353880000000  0.6059390000000 1.0
C      1  0.5394220000000  0.4035560000000  0.5481770000000 1.0
C      1  0.4674660000000  0.3774100000000  0.5055260000000 1.0
C      1  0.5301580000000  0.5503580000000  0.5601780000000 1.0
C      1  0.4431200000000  0.6237580000000  0.5019110000000 1.0
C      1  0.4483990000000  0.4686360000000  0.5670020000000 1.0
C      1  0.5689750000000  0.5289180000000  0.4986790000000 1.0
C      1  0.4327900000000  0.5190670000000  0.4096330000000 1.0
C      1  0.4670150000000  0.5547450000000  0.5274020000000 1.0
C      1  0.5782330000000  0.5800530000000  0.4503360000000 1.0
C      1  0.4399080000000  0.6201650000000  0.4754880000000 1.0
C      1  0.5378160000000  0.5989440000000  0.5508400000000 1.0
C      1  0.6160850000000  0.5024950000000  0.4922030000000 1.0
C      1  0.4698290000000  0.4646660000000  0.4301890000000 1.0
C      1  0.4004710000000  0.4980840000000  0.5380110000000 1.0
C      1  0.6084460000000  0.5144910000000  0.4660330000000 1.0
C      1  0.5711640000000  0.5325190000000  0.4310350000000 1.0
C      1  0.5444400000000  0.6153170000000  0.5048700000000 1.0
C      1  0.4738740000000  0.5735900000000  0.4283990000000 1.0
C      1  0.5239990000000  0.5469860000000  0.5325550000000 1.0
C      1  0.4828300000000  0.4364300000000  0.4327190000000 1.0
C      1  0.5231860000000  0.4465960000000  0.6158460000000 1.0
C      1  0.5251980000000  0.4519950000000  0.4999320000000 1.0
C      1  0.4498670000000  0.4979980000000  0.4001590000000 1.0
C      1  0.4467440000000  0.4692470000000  0.4493170000000 1.0
C      1  0.5308160000000  0.4339720000000  0.4072980000000 1.0
C      1  0.5664450000000  0.3844260000000  0.4857220000000 1.0
C      1  0.5788040000000  0.5919920000000  0.5263470000000 1.0
C      1  0.4593590000000  0.4281250000000  0.6264470000000 1.0
C      1  0.4970370000000  0.4600470000000  0.4821010000000 1.0
C      1  0.4142440000000  0.4471350000000  0.4767150000000 1.0
C      1  0.3679040000000  0.5122620000000  0.4901440000000 1.0
C      1  0.4234500000000  0.4627130000000  0.4294800000000 1.0
C      1  0.4733900000000  0.4792090000000  0.5580140000000 1.0
C      1  0.5188720000000  0.4181840000000  0.5608500000000 1.0
C      1  0.5141750000000  0.3717380000000  0.4809470000000 1.0
C      1  0.5930930000000  0.4252340000000  0.4220240000000 1.0
C      1  0.4934770000000  0.5999580000000  0.5723910000000 1.0
C      1  0.5200510000000  0.4917570000000  0.5161990000000 1.0
C      1  0.3985190000000  0.5261810000000  0.5781570000000 1.0
C      1  0.5269180000000  0.4441090000000  0.5690020000000 1.0
C      1  0.4982020000000  0.4829180000000  0.4554940000000 1.0
C      1  0.5705330000000  0.4115840000000  0.4786440000000 1.0
C      1  0.4219310000000  0.5786750000000  0.5432250000000 1.0
C      1  0.5260490000000  0.5149920000000  0.4315250000000 1.0
C      1  0.5608250000000  0.4987840000000  0.4002240000000 1.0
C      1  0.5609040000000  0.4977810000000  0.5401980000000 1.0
C      1  0.4604140000000  0.4524290000000  0.5214880000000 1.0
C      1  0.4995880000000  0.5997250000000  0.5215310000000 1.0
C      1  0.5485360000000  0.4121000000000  0.4055140000000 1.0
C      1  0.4876190000000  0.5557690000000  0.4450000000000 1.0
C      1  0.5550850000000  0.6095820000000  0.5305400000000 1.0
C      1  0.5379640000000  0.4470360000000  0.4522480000000 1.0
C      1  0.5905840000000  0.4981030000000  0.5878870000000 1.0
C      1  0.4718080000000  0.4823840000000  0.4078200000000 1.0
C      1  0.5537750000000  0.4719630000000  0.4545020000000 1.0
C      1  0.5346890000000  0.4871130000000  0.5398650000000 1.0
C      1  0.5468240000000  0.4990410000000  0.4696560000000 1.0
C      1  0.3728860000000  0.5301860000000  0.5121630000000 1.0
C      1  0.5533990000000  0.4559270000000  0.5141770000000 1.0
C      1  0.5545170000000  0.4731670000000  0.3889620000000 1.0
C      1  0.5328590000000  0.5811860000000  0.6060300000000 1.0
C      1  0.5960290000000  0.4970310000000  0.4428490000000 1.0
C      1  0.4795760000000  0.5069490000000  0.6034490000000 1.0
C      1  0.4292140000000  0.5541470000000  0.5557300000000 1.0
C      1  0.5495200000000  0.4249280000000  0.4655830000000 1.0
C      1  0.3755210000000  0.4895200000000  0.4770570000000 1.0
C      1  0.4267750000000  0.5479700000000  0.4758910000000 1.0
END
