TITL C-599894-471-706 0.111896437189949 125000 -594.032402991675 0 0 97 (C1) n - 1
REM
REM in /home/nfs/bkarasulu/CARBON/AIRSS/Generating-Clusters/TERSOFF/Only-C1/FIRE-HFTN
REM
REM
REM
REM
REM
REM ./C.cell (11c1c37f851c82e70ff6c80c92926a4b)
REM AIRSS Version 0.9.1 bugfix July 2018 build 013d7b7c2542+ Fri, 06 Jul 2018 19:26:36 +0100
REM compiler GCC version 9.2.1 20190827 (Red Hat 9.2.1-1)
REM options -cpp -mtune=generic -march=x86-64 -g -O0 -fpre-include=/usr/include/finclude/math-vector-fortran.h
REM seed 2008485758 -129457100 1432765915 1591634219 1546457166 -829443709 -1277176375 1901176980 -103821812 556851306 1811439795 -2089487627 880859168 -1266350958 852437750 -702447140 -874125722 622905940 -40086974 -1678571320 -1063739834 -301462909 1380005623 -190932689 -2120066828 -1427067243 -1440428722 323749251 -484532522 373051492 91863766 -1245007754 -841272641
REM
CELL 1.54180   50.00000   50.00000   50.00000   90.00000   90.00000   90.00000
LATT -1
SFAC C  
C      1  0.3967230000000  0.5161970000000  0.5206680000000 1.0
C      1  0.4334590000000  0.4379280000000  0.4593840000000 1.0
C      1  0.4705050000000  0.5480630000000  0.5766840000000 1.0
C      1  0.4861140000000  0.5783880000000  0.5446310000000 1.0
C      1  0.5773660000000  0.4583770000000  0.5040330000000 1.0
C      1  0.4809900000000  0.4237290000000  0.5123260000000 1.0
C      1  0.5583210000000  0.4787290000000  0.5034720000000 1.0
C      1  0.4643470000000  0.5735800000000  0.5016090000000 1.0
C      1  0.5495650000000  0.4392010000000  0.4264990000000 1.0
C      1  0.4805350000000  0.4886120000000  0.4006630000000 1.0
C      1  0.4180650000000  0.4478860000000  0.5334760000000 1.0
C      1  0.4804230000000  0.4471770000000  0.6295000000000 1.0
C      1  0.4960750000000  0.4851060000000  0.5682960000000 1.0
C      1  0.4388000000000  0.5721870000000  0.5434420000000 1.0
C      1  0.4967010000000  0.5055900000000  0.4665890000000 1.0
C      1  0.4180820000000  0.5254110000000  0.3874460000000 1.0
C      1  0.4842330000000  0.5604110000000  0.5211410000000 1.0
C      1  0.5668090000000  0.4719650000000  0.5742920000000 1.0
C      1  0.5393400000000  0.5719420000000  0.5510280000000 1.0
C      1  0.4460410000000  0.5475840000000  0.4195680000000 1.0
C      1  0.4925530000000  0.5652580000000  0.5685480000000 1.0
C      1  0.4843240000000  0.4533480000000  0.6044840000000 1.0
C      1  0.4707270000000  0.4210560000000  0.4860720000000 1.0
C      1  0.5141900000000  0.4173010000000  0.4550320000000 1.0
C      1  0.6441160000000  0.5536870000000  0.4234640000000 1.0
C      1  0.5831440000000  0.4325840000000  0.5007760000000 1.0
C      1  0.5542740000000  0.3960560000000  0.4805150000000 1.0
C      1  0.4520310000000  0.5108490000000  0.6363650000000 1.0
C      1  0.4099800000000  0.5184020000000  0.5457560000000 1.0
C      1  0.5364150000000  0.5775500000000  0.4757270000000 1.0
C      1  0.4428860000000  0.4239030000000  0.4807010000000 1.0
C      1  0.4145670000000  0.5615910000000  0.5027260000000 1.0
C      1  0.5464890000000  0.5176000000000  0.5591950000000 1.0
C      1  0.5322760000000  0.4739670000000  0.4915770000000 1.0
C      1  0.4246480000000  0.4945470000000  0.4896540000000 1.0
C      1  0.4895780000000  0.4585970000000  0.5776610000000 1.0
C      1  0.4029600000000  0.4666640000000  0.5216370000000 1.0
C      1  0.5985980000000  0.4974330000000  0.4247280000000 1.0
C      1  0.4891500000000  0.4374040000000  0.5579880000000 1.0
C      1  0.5743430000000  0.4087840000000  0.4926090000000 1.0
C      1  0.4653880000000  0.5171160000000  0.6148850000000 1.0
C      1  0.5325930000000  0.5612460000000  0.4516340000000 1.0
C      1  0.4802820000000  0.5674700000000  0.4537270000000 1.0
C      1  0.4580730000000  0.5631670000000  0.4374990000000 1.0
C      1  0.4927120000000  0.4879820000000  0.5402180000000 1.0
C      1  0.5259550000000  0.4942930000000  0.4156390000000 1.0
C      1  0.5145700000000  0.4320540000000  0.5442350000000 1.0
C      1  0.4781910000000  0.4439960000000  0.4418590000000 1.0
C      1  0.5583010000000  0.4474570000000  0.5682910000000 1.0
C      1  0.4372270000000  0.5254350000000  0.5454030000000 1.0
C      1  0.4405210000000  0.4349350000000  0.5402900000000 1.0
C      1  0.4708100000000  0.5042270000000  0.4774630000000 1.0
C      1  0.5725800000000  0.4521310000000  0.4237570000000 1.0
C      1  0.5205350000000  0.4495070000000  0.4980880000000 1.0
C      1  0.5101050000000  0.5783390000000  0.4882890000000 1.0
C      1  0.3973490000000  0.5407660000000  0.5058430000000 1.0
C      1  0.4464540000000  0.5491240000000  0.5596060000000 1.0
C      1  0.5740030000000  0.5381310000000  0.4321640000000 1.0
C      1  0.4679960000000  0.4291240000000  0.5385640000000 1.0
C      1  0.5281370000000  0.5179370000000  0.4305920000000 1.0
C      1  0.5338890000000  0.5207980000000  0.4900900000000 1.0
C      1  0.5609640000000  0.5037460000000  0.5147600000000 1.0
C      1  0.5011330000000  0.4527540000000  0.4265650000000 1.0
C      1  0.4821940000000  0.5797150000000  0.4791960000000 1.0
C      1  0.5984040000000  0.5252980000000  0.4273940000000 1.0
C      1  0.4770760000000  0.4724360000000  0.5243740000000 1.0
C      1  0.4525900000000  0.5205780000000  0.5210600000000 1.0
C      1  0.5014610000000  0.5109340000000  0.5812000000000 1.0
C      1  0.5038170000000  0.5526090000000  0.4479940000000 1.0
C      1  0.5035140000000  0.5238630000000  0.4455690000000 1.0
C      1  0.5467350000000  0.5398110000000  0.4370000000000 1.0
C      1  0.4784790000000  0.5250320000000  0.5916830000000 1.0
C      1  0.4379930000000  0.5732670000000  0.5140550000000 1.0
C      1  0.4032070000000  0.4913040000000  0.5077590000000 1.0
C      1  0.5540520000000  0.5815440000000  0.4993540000000 1.0
C      1  0.5624090000000  0.4980560000000  0.5712990000000 1.0
C      1  0.5231600000000  0.4354100000000  0.4341200000000 1.0
C      1  0.5313400000000  0.3992070000000  0.4673020000000 1.0
C      1  0.4413810000000  0.5263700000000  0.4017710000000 1.0
C      1  0.4503880000000  0.4484600000000  0.4408960000000 1.0
C      1  0.5490760000000  0.5231440000000  0.5314670000000 1.0
C      1  0.5313130000000  0.5377940000000  0.5122430000000 1.0
C      1  0.5121010000000  0.5590080000000  0.5098600000000 1.0
C      1  0.5895990000000  0.4725020000000  0.4234640000000 1.0
C      1  0.4872500000000  0.4245490000000  0.4626370000000 1.0
C      1  0.4605880000000  0.5061060000000  0.3986770000000 1.0
C      1  0.5239670000000  0.5283280000000  0.5727980000000 1.0
C      1  0.4977760000000  0.5133080000000  0.5303550000000 1.0
C      1  0.5089340000000  0.4313810000000  0.5159900000000 1.0
C      1  0.6220410000000  0.5399630000000  0.4253560000000 1.0
C      1  0.5034070000000  0.4770930000000  0.4123710000000 1.0
C      1  0.5393710000000  0.4328630000000  0.5566000000000 1.0
C      1  0.5199360000000  0.4979950000000  0.4817270000000 1.0
C      1  0.5202400000000  0.5568240000000  0.5682570000000 1.0
C      1  0.4782670000000  0.5318040000000  0.5239700000000 1.0
C      1  0.4491660000000  0.5069740000000  0.4955570000000 1.0
C      1  0.5512560000000  0.5800920000000  0.5272260000000 1.0
END
