TITL C-599892-9790-276 1.4452502500972 125000 -75.529390054774 0 0 14 (Cs) n - 1
REM
REM in /home/nfs/bkarasulu/CARBON/AIRSS/Generating-Clusters/TERSOFF/Only-C1/FIRE-HFTN
REM
REM
REM
REM
REM
REM ./C.cell (11c1c37f851c82e70ff6c80c92926a4b)
REM AIRSS Version 0.9.1 bugfix July 2018 build 013d7b7c2542+ Fri, 06 Jul 2018 19:26:36 +0100
REM compiler GCC version 9.2.1 20190827 (Red Hat 9.2.1-1)
REM options -cpp -mtune=generic -march=x86-64 -g -O0 -fpre-include=/usr/include/finclude/math-vector-fortran.h
REM seed 1506376700 -117862823 -588592968 -386205732 1178119498 1081512415 450803377 -538145904 172885154 -401365158 -1460870541 -1510308191 -1274375082 -1941107388 -1938590771 304003704 1856578378 1997069278 1790349792 -572379746 1334248170 -1720168507 -1628336374 -1397843264 194679501 -124592197 -1539577447 -816779315 -1447979366 1606334540 1880216034 638955510 -2035616067
REM
CELL 1.54180   50.00000   50.00000   50.00000   90.00000   90.00000   90.00000
LATT -1
SFAC C  
C      1  0.4776310000000  0.5258990000000  0.4479830000000 1.0
C      1  0.4721280000000  0.5032560000000  0.4633760000000 1.0
C      1  0.4827870000000  0.5472440000000  0.4339490000000 1.0
C      1  0.6042980000000  0.4838500000000  0.5770690000000 1.0
C      1  0.4707480000000  0.5054080000000  0.4916710000000 1.0
C      1  0.5159290000000  0.4981500000000  0.5210990000000 1.0
C      1  0.4937890000000  0.5017280000000  0.5070080000000 1.0
C      1  0.4463590000000  0.5111890000000  0.5039840000000 1.0
C      1  0.5381090000000  0.4945610000000  0.5351480000000 1.0
C      1  0.4640500000000  0.4552540000000  0.4400290000000 1.0
C      1  0.5602900000000  0.4909720000000  0.5491960000000 1.0
C      1  0.5824760000000  0.4873810000000  0.5632480000000 1.0
C      1  0.4679780000000  0.4785100000000  0.4511160000000 1.0
C      1  0.4234280000000  0.5165970000000  0.5151250000000 1.0
END
