TITL C-599896-8500-1045 0.534562985406266 125000 -206.398362413701 0 0 35 (C1) n - 1
REM
REM in /home/nfs/bkarasulu/CARBON/AIRSS/Generating-Clusters/TERSOFF/Only-C1/FIRE-HFTN
REM
REM
REM
REM
REM
REM ./C.cell (11c1c37f851c82e70ff6c80c92926a4b)
REM AIRSS Version 0.9.1 bugfix July 2018 build 013d7b7c2542+ Fri, 06 Jul 2018 19:26:36 +0100
REM compiler GCC version 9.2.1 20190827 (Red Hat 9.2.1-1)
REM options -cpp -mtune=generic -march=x86-64 -g -O0 -fpre-include=/usr/include/finclude/math-vector-fortran.h
REM seed 1494977663 -1647679307 1781384495 1466270691 -2105264712 1705761225 -911123219 868843356 -2094805514 1356232864 -1811565185 -1393206136 622890810 729339634 1337782450 1376063915 1965246654 1709049129 552675970 17537461 -1599411123 -1071224570 215517087 -1210267168 772608738 -592914441 -766546521 -143781778 -2067737306 -1691575306 -152616617 1507532147 2090085957
REM
CELL 1.54180   50.00000   50.00000   50.00000   90.00000   90.00000   90.00000
LATT -1
SFAC C  
C      1  0.4971520000000  0.4601900000000  0.4432890000000 1.0
C      1  0.5177940000000  0.5643800000000  0.5309850000000 1.0
C      1  0.5610730000000  0.5842570000000  0.5182670000000 1.0
C      1  0.4790720000000  0.3624020000000  0.3557310000000 1.0
C      1  0.5091360000000  0.4962140000000  0.5444890000000 1.0
C      1  0.4718260000000  0.5106710000000  0.5159510000000 1.0
C      1  0.4911480000000  0.5443090000000  0.4923280000000 1.0
C      1  0.4935370000000  0.4406330000000  0.4257770000000 1.0
C      1  0.4442990000000  0.5474440000000  0.5330340000000 1.0
C      1  0.5577810000000  0.5284650000000  0.5557520000000 1.0
C      1  0.4754540000000  0.3428390000000  0.3382160000000 1.0
C      1  0.4826880000000  0.3819600000000  0.3732430000000 1.0
C      1  0.4537920000000  0.5102510000000  0.5612340000000 1.0
C      1  0.4513440000000  0.5198800000000  0.5343790000000 1.0
C      1  0.5455990000000  0.5630950000000  0.5254470000000 1.0
C      1  0.5031100000000  0.5438550000000  0.5188000000000 1.0
C      1  0.5265170000000  0.4948060000000  0.5649810000000 1.0
C      1  0.4899210000000  0.4210750000000  0.4082650000000 1.0
C      1  0.5055170000000  0.5746810000000  0.5546020000000 1.0
C      1  0.5483410000000  0.5178350000000  0.5072290000000 1.0
C      1  0.4554390000000  0.5702570000000  0.5421720000000 1.0
C      1  0.4718970000000  0.3235980000000  0.3209880000000 1.0
C      1  0.5176580000000  0.5365090000000  0.5860520000000 1.0
C      1  0.5007430000000  0.4797310000000  0.4608050000000 1.0
C      1  0.5303160000000  0.5061720000000  0.4905150000000 1.0
C      1  0.5042900000000  0.5001640000000  0.4793570000000 1.0
C      1  0.4697240000000  0.5143940000000  0.5826370000000 1.0
C      1  0.4969280000000  0.5173330000000  0.5307810000000 1.0
C      1  0.5552860000000  0.5361530000000  0.5283220000000 1.0
C      1  0.5158890000000  0.5638400000000  0.5786460000000 1.0
C      1  0.4863050000000  0.4015180000000  0.3907540000000 1.0
C      1  0.4780450000000  0.5811040000000  0.5520050000000 1.0
C      1  0.4819710000000  0.5164410000000  0.4884540000000 1.0
C      1  0.4927160000000  0.5241840000000  0.5927070000000 1.0
C      1  0.5376940000000  0.5193620000000  0.5738070000000 1.0
END
