TITL C-599896-8500-310 0.160145813338308 125000 -595.223621676295 0 0 99 (C1) n - 1
REM
REM in /home/nfs/bkarasulu/CARBON/AIRSS/Generating-Clusters/TERSOFF/Only-C1/FIRE-HFTN
REM
REM
REM
REM
REM
REM ./C.cell (11c1c37f851c82e70ff6c80c92926a4b)
REM AIRSS Version 0.9.1 bugfix July 2018 build 013d7b7c2542+ Fri, 06 Jul 2018 19:26:36 +0100
REM compiler GCC version 9.2.1 20190827 (Red Hat 9.2.1-1)
REM options -cpp -mtune=generic -march=x86-64 -g -O0 -fpre-include=/usr/include/finclude/math-vector-fortran.h
REM seed -1385873113 168362783 1753861258 1564777856 351957643 -1475511311 1747584207 -1210757774 -1951412990 -1985282499 1021754814 -181507743 -1840705854 -539451919 2079593105 -835676983 887138627 -792187441 -1401418978 -1934082631 1931650362 -638248815 -2058528683 2057248682 1538250882 450356770 -2018832997 -70877843 -1579873627 -1012544603 841417777 803809490 943027879
REM
CELL 1.54180   50.00000   50.00000   50.00000   90.00000   90.00000   90.00000
LATT -1
SFAC C  
C      1  0.5265730000000  0.5135990000000  0.4233970000000 1.0
C      1  0.4359160000000  0.4995880000000  0.4434850000000 1.0
C      1  0.5003260000000  0.5230990000000  0.5773370000000 1.0
C      1  0.5221700000000  0.6745120000000  0.5346140000000 1.0
C      1  0.5060380000000  0.4984980000000  0.5901790000000 1.0
C      1  0.4957870000000  0.4589180000000  0.4800540000000 1.0
C      1  0.5826450000000  0.5267410000000  0.5284230000000 1.0
C      1  0.5533770000000  0.5459090000000  0.4582220000000 1.0
C      1  0.4586440000000  0.4931150000000  0.4835930000000 1.0
C      1  0.5333720000000  0.5385000000000  0.4364430000000 1.0
C      1  0.5870570000000  0.5120320000000  0.4690360000000 1.0
C      1  0.4824410000000  0.5586490000000  0.4399810000000 1.0
C      1  0.5042900000000  0.4374650000000  0.4975540000000 1.0
C      1  0.5243660000000  0.5823980000000  0.4495380000000 1.0
C      1  0.4504520000000  0.4653110000000  0.4095220000000 1.0
C      1  0.5226900000000  0.5403020000000  0.5703780000000 1.0
C      1  0.5085670000000  0.4500590000000  0.4232920000000 1.0
C      1  0.4408560000000  0.4445480000000  0.5675610000000 1.0
C      1  0.4898220000000  0.4665700000000  0.5292120000000 1.0
C      1  0.4781890000000  0.5134820000000  0.5222970000000 1.0
C      1  0.3913020000000  0.5416400000000  0.5198960000000 1.0
C      1  0.5090120000000  0.5237210000000  0.4763470000000 1.0
C      1  0.4705000000000  0.5748430000000  0.4614460000000 1.0
C      1  0.5430640000000  0.5328190000000  0.5518790000000 1.0
C      1  0.5910830000000  0.4880530000000  0.4571760000000 1.0
C      1  0.5506270000000  0.4857700000000  0.4836080000000 1.0
C      1  0.4809410000000  0.4214110000000  0.4582160000000 1.0
C      1  0.5044430000000  0.5417690000000  0.4954770000000 1.0
C      1  0.5114090000000  0.6026790000000  0.4655770000000 1.0
C      1  0.4571630000000  0.4347620000000  0.4718040000000 1.0
C      1  0.4635460000000  0.5402440000000  0.4294490000000 1.0
C      1  0.5444520000000  0.4801700000000  0.5370270000000 1.0
C      1  0.3977100000000  0.4619750000000  0.5168630000000 1.0
C      1  0.4288730000000  0.4764120000000  0.6029900000000 1.0
C      1  0.5187110000000  0.4751390000000  0.5938260000000 1.0
C      1  0.4504690000000  0.4161580000000  0.5259430000000 1.0
C      1  0.5242440000000  0.5649930000000  0.5823440000000 1.0
C      1  0.5099400000000  0.4481520000000  0.5226370000000 1.0
C      1  0.5642800000000  0.4899240000000  0.5562040000000 1.0
C      1  0.4523430000000  0.5613800000000  0.4794170000000 1.0
C      1  0.5403830000000  0.4353990000000  0.4587590000000 1.0
C      1  0.4387310000000  0.4525750000000  0.4572340000000 1.0
C      1  0.5618250000000  0.5302880000000  0.5072520000000 1.0
C      1  0.4615650000000  0.5577630000000  0.5061860000000 1.0
C      1  0.5650910000000  0.4677960000000  0.4962450000000 1.0
C      1  0.4981260000000  0.5032510000000  0.4607840000000 1.0
C      1  0.4194070000000  0.4879800000000  0.5561790000000 1.0
C      1  0.5530350000000  0.4546460000000  0.4411840000000 1.0
C      1  0.4441780000000  0.4770150000000  0.5217120000000 1.0
C      1  0.5697530000000  0.4896140000000  0.4148830000000 1.0
C      1  0.5536700000000  0.5944670000000  0.4825330000000 1.0
C      1  0.5369950000000  0.5260880000000  0.5234650000000 1.0
C      1  0.4831600000000  0.4834840000000  0.4734420000000 1.0
C      1  0.3982710000000  0.4581460000000  0.4902660000000 1.0
C      1  0.4730880000000  0.5294200000000  0.5712380000000 1.0
C      1  0.5308240000000  0.6122560000000  0.4848640000000 1.0
C      1  0.4261240000000  0.5156160000000  0.5479480000000 1.0
C      1  0.5326160000000  0.4651260000000  0.4215050000000 1.0
C      1  0.5326220000000  0.4398860000000  0.5624490000000 1.0
C      1  0.5499280000000  0.5743210000000  0.4624300000000 1.0
C      1  0.5691110000000  0.5182490000000  0.5536390000000 1.0
C      1  0.5252010000000  0.6543050000000  0.5184240000000 1.0
C      1  0.5674320000000  0.5305410000000  0.4785010000000 1.0
C      1  0.6098980000000  0.5309720000000  0.5255350000000 1.0
C      1  0.4297980000000  0.4948400000000  0.4738240000000 1.0
C      1  0.4428160000000  0.4721060000000  0.4347650000000 1.0
C      1  0.5641080000000  0.4733940000000  0.5790870000000 1.0
C      1  0.5257440000000  0.4995690000000  0.5264080000000 1.0
C      1  0.4563120000000  0.5003040000000  0.5111470000000 1.0
C      1  0.5016310000000  0.5045230000000  0.4332520000000 1.0
C      1  0.5490200000000  0.4249350000000  0.4849690000000 1.0
C      1  0.4836640000000  0.5991220000000  0.4676040000000 1.0
C      1  0.5069740000000  0.4084690000000  0.4941840000000 1.0
C      1  0.4296390000000  0.4699310000000  0.5764200000000 1.0
C      1  0.5553550000000  0.4435850000000  0.5067210000000 1.0
C      1  0.4216190000000  0.5214820000000  0.4882390000000 1.0
C      1  0.4564330000000  0.4242960000000  0.5537490000000 1.0
C      1  0.4419620000000  0.5281290000000  0.4434340000000 1.0
C      1  0.4891210000000  0.3991050000000  0.4745880000000 1.0
C      1  0.4564800000000  0.4340160000000  0.5035760000000 1.0
C      1  0.4981730000000  0.4943530000000  0.5291900000000 1.0
C      1  0.5343380000000  0.4020530000000  0.4930820000000 1.0
C      1  0.5057090000000  0.4328850000000  0.4454130000000 1.0
C      1  0.6354410000000  0.5345710000000  0.5218370000000 1.0
C      1  0.4180200000000  0.4739220000000  0.5314670000000 1.0
C      1  0.4344880000000  0.5410950000000  0.4694460000000 1.0
C      1  0.4641930000000  0.4579300000000  0.5189040000000 1.0
C      1  0.5114360000000  0.5596860000000  0.4369770000000 1.0
C      1  0.4135920000000  0.5260110000000  0.5164460000000 1.0
C      1  0.5282410000000  0.6337650000000  0.5019690000000 1.0
C      1  0.5413550000000  0.4919170000000  0.4125270000000 1.0
C      1  0.5094030000000  0.4233520000000  0.5661140000000 1.0
C      1  0.5379270000000  0.4499110000000  0.5333320000000 1.0
C      1  0.4826520000000  0.5402080000000  0.5131810000000 1.0
C      1  0.5765430000000  0.4731870000000  0.4380880000000 1.0
C      1  0.4828840000000  0.4190030000000  0.5634100000000 1.0
C      1  0.5396130000000  0.4591240000000  0.5832210000000 1.0
C      1  0.4186060000000  0.4666580000000  0.4733280000000 1.0
C      1  0.4479850000000  0.5280460000000  0.5611950000000 1.0
END
