TITL C-599893-4344-1184 -142871.518645612 125000 -727.442835307814 0 0 121 (C1) n - 1
REM
REM in /home/nfs/bkarasulu/CARBON/AIRSS/Generating-Clusters/TERSOFF/Only-C1/FIRE-HFTN
REM
REM
REM
REM
REM
REM ./C.cell (11c1c37f851c82e70ff6c80c92926a4b)
REM AIRSS Version 0.9.1 bugfix July 2018 build 013d7b7c2542+ Fri, 06 Jul 2018 19:26:36 +0100
REM compiler GCC version 9.2.1 20190827 (Red Hat 9.2.1-1)
REM options -cpp -mtune=generic -march=x86-64 -g -O0 -fpre-include=/usr/include/finclude/math-vector-fortran.h
REM seed -1964022469 567271393 -1035467610 293602941 1400510185 -594936990 -449056969 -515640165 -459549773 -1133139495 -1056175925 1110305312 -2067738755 -998451305 -1455167792 -535029070 1176112499 -435513913 -1845135742 1229318887 -1868117688 1070107857 -1508791195 91058118 -1732864944 -645266375 865570777 676469813 -1954714790 466807252 -937325186 -537714637 -687894734
REM
CELL 1.54180   50.00000   50.00000   50.00000   90.00000   90.00000   90.00000
LATT -1
SFAC C  
C      1  0.5314240000000  0.4279480000000  0.5025460000000 1.0
C      1  0.4842050000000  0.4433620000000  0.4066860000000 1.0
C      1  0.5677160000000  0.4549530000000  0.5421120000000 1.0
C      1  0.4641730000000  0.4796790000000  0.4835710000000 1.0
C      1  0.5027920000000  0.4327290000000  0.3885100000000 1.0
C      1  0.4318240000000  0.5131420000000  0.4081230000000 1.0
C      1  0.4999910000000  0.5079150000000  0.4648790000000 1.0
C      1  0.5645590000000  0.5861890000000  0.5912630000000 1.0
C      1  0.4905220000000  0.5715750000000  0.5015800000000 1.0
C      1  0.4926070000000  0.4366200000000  0.4810180000000 1.0
C      1  0.4862380000000  0.4181910000000  0.5019930000000 1.0
C      1  0.5858680000000  0.4547180000000  0.5641290000000 1.0
C      1  0.4765640000000  0.6147440000000  0.5138040000000 1.0
C      1  0.5739550000000  0.4392320000000  0.5195420000000 1.0
C      1  0.5978670000000  0.5633130000000  0.4238140000000 1.0
C      1  0.5296880000000  0.4318070000000  0.3905900000000 1.0
C      1  0.4098450000000  0.5063550000000  0.4663300000000 1.0
C      1  0.5803350000000  0.4344040000000  0.5831430000000 1.0
C      1  0.3799810000000  0.4583630000000  0.5023960000000 1.0
C      1  0.4467500000000  0.4707810000000  0.4226620000000 1.0
C      1  0.4987200000000  0.5441170000000  0.5395440000000 1.0
C      1  0.4928750000000  0.4452610000000  0.4340160000000 1.0
C      1  0.5157910000000  0.5626620000000  0.4932350000000 1.0
C      1  0.4678090000000  0.5984920000000  0.4665820000000 1.0
C      1  0.5842950000000  0.5698870000000  0.5983770000000 1.0
C      1  0.3741810000000  0.4653150000000  0.4767160000000 1.0
C      1  0.5419420000000  0.5923100000000  0.5787120000000 1.0
C      1  0.4387160000000  0.4296050000000  0.5099110000000 1.0
C      1  0.4155590000000  0.4832430000000  0.5651240000000 1.0
C      1  0.4763970000000  0.5950750000000  0.4933350000000 1.0
C      1  0.4143000000000  0.4307250000000  0.5238560000000 1.0
C      1  0.4378390000000  0.4439570000000  0.4852940000000 1.0
C      1  0.4870380000000  0.5023710000000  0.5172770000000 1.0
C      1  0.5623400000000  0.4526870000000  0.4549820000000 1.0
C      1  0.5418670000000  0.5520290000000  0.4944180000000 1.0
C      1  0.5214490000000  0.5624880000000  0.4316650000000 1.0
C      1  0.4131290000000  0.5263250000000  0.5326710000000 1.0
C      1  0.4356810000000  0.4503810000000  0.4384560000000 1.0
C      1  0.5805350000000  0.4073070000000  0.4595450000000 1.0
C      1  0.5678440000000  0.4293990000000  0.4709110000000 1.0
C      1  0.3956210000000  0.4521870000000  0.5257740000000 1.0
C      1  0.4800770000000  0.5035850000000  0.4885390000000 1.0
C      1  0.4957130000000  0.4677200000000  0.5710980000000 1.0
C      1  0.3947330000000  0.4991120000000  0.4431230000000 1.0
C      1  0.5696430000000  0.5193570000000  0.4369700000000 1.0
C      1  0.5534630000000  0.4294620000000  0.5899410000000 1.0
C      1  0.5130590000000  0.4060990000000  0.5721550000000 1.0
C      1  0.5785250000000  0.4758310000000  0.4587580000000 1.0
C      1  0.4584400000000  0.5195150000000  0.4443470000000 1.0
C      1  0.4716360000000  0.4852420000000  0.5320810000000 1.0
C      1  0.5346780000000  0.5124510000000  0.5243820000000 1.0
C      1  0.5242190000000  0.5341970000000  0.4282620000000 1.0
C      1  0.4824440000000  0.5199320000000  0.3987840000000 1.0
C      1  0.4581510000000  0.5242690000000  0.4854070000000 1.0
C      1  0.4373130000000  0.4726300000000  0.4883850000000 1.0
C      1  0.5414440000000  0.4534940000000  0.4350030000000 1.0
C      1  0.5645030000000  0.5674480000000  0.4948900000000 1.0
C      1  0.5196210000000  0.5845220000000  0.5641430000000 1.0
C      1  0.5145450000000  0.5863560000000  0.4458400000000 1.0
C      1  0.4530130000000  0.6113580000000  0.5738020000000 1.0
C      1  0.4550940000000  0.5229550000000  0.3930070000000 1.0
C      1  0.5412290000000  0.4672230000000  0.5433850000000 1.0
C      1  0.5828940000000  0.4883310000000  0.4837480000000 1.0
C      1  0.4513190000000  0.5538220000000  0.5218560000000 1.0
C      1  0.4608340000000  0.5102060000000  0.5797310000000 1.0
C      1  0.4780920000000  0.4370550000000  0.4570560000000 1.0
C      1  0.5041750000000  0.4103780000000  0.5446610000000 1.0
C      1  0.4111320000000  0.5068020000000  0.5143580000000 1.0
C      1  0.3771200000000  0.4782270000000  0.4526970000000 1.0
C      1  0.4491140000000  0.4375630000000  0.4596730000000 1.0
C      1  0.4459500000000  0.5458440000000  0.4952140000000 1.0
C      1  0.5377660000000  0.4532900000000  0.5898210000000 1.0
C      1  0.5592720000000  0.4286710000000  0.4981860000000 1.0
C      1  0.5432010000000  0.5214610000000  0.4459840000000 1.0
C      1  0.4935820000000  0.4216730000000  0.5876820000000 1.0
C      1  0.5057760000000  0.4913480000000  0.4374330000000 1.0
C      1  0.5144870000000  0.4642850000000  0.4374100000000 1.0
C      1  0.5444920000000  0.5226250000000  0.4967210000000 1.0
C      1  0.3999870000000  0.4692940000000  0.5480970000000 1.0
C      1  0.6078220000000  0.5236680000000  0.5915600000000 1.0
C      1  0.5340580000000  0.4823990000000  0.5202670000000 1.0
C      1  0.4350720000000  0.4986100000000  0.5755360000000 1.0
C      1  0.4726440000000  0.5926140000000  0.5695350000000 1.0
C      1  0.5812370000000  0.4937740000000  0.4372330000000 1.0
C      1  0.5286180000000  0.5075590000000  0.4749680000000 1.0
C      1  0.5158510000000  0.5576250000000  0.5570740000000 1.0
C      1  0.5843250000000  0.5416800000000  0.4290750000000 1.0
C      1  0.5302710000000  0.6014190000000  0.4646550000000 1.0
C      1  0.5267830000000  0.4759220000000  0.4934080000000 1.0
C      1  0.6094560000000  0.4994960000000  0.5806950000000 1.0
C      1  0.5725990000000  0.5108000000000  0.4946160000000 1.0
C      1  0.4817540000000  0.4422210000000  0.5705390000000 1.0
C      1  0.6026050000000  0.4761550000000  0.5700480000000 1.0
C      1  0.4826260000000  0.4917080000000  0.5789700000000 1.0
C      1  0.5118050000000  0.4118370000000  0.5167590000000 1.0
C      1  0.4042650000000  0.5098660000000  0.4175720000000 1.0
C      1  0.4185490000000  0.4940560000000  0.4903460000000 1.0
C      1  0.5173740000000  0.4498830000000  0.4881910000000 1.0
C      1  0.4781070000000  0.4268250000000  0.5456950000000 1.0
C      1  0.5990490000000  0.5478050000000  0.5983010000000 1.0
C      1  0.5891610000000  0.3858640000000  0.4475020000000 1.0
C      1  0.4995510000000  0.6149320000000  0.5309410000000 1.0
C      1  0.4870400000000  0.5930870000000  0.4467270000000 1.0
C      1  0.4681800000000  0.5654270000000  0.5785430000000 1.0
C      1  0.4644340000000  0.4239940000000  0.5204400000000 1.0
C      1  0.5460910000000  0.4404860000000  0.4101480000000 1.0
C      1  0.5530730000000  0.5209670000000  0.5464920000000 1.0
C      1  0.5246730000000  0.4655590000000  0.5675760000000 1.0
C      1  0.4645190000000  0.5386570000000  0.5820250000000 1.0
C      1  0.4625110000000  0.4604580000000  0.4013810000000 1.0
C      1  0.4303760000000  0.5462020000000  0.5388940000000 1.0
C      1  0.5061540000000  0.5193500000000  0.5289030000000 1.0
C      1  0.4423990000000  0.6061900000000  0.4603530000000 1.0
C      1  0.4792140000000  0.5583790000000  0.5245580000000 1.0
C      1  0.5392420000000  0.4062140000000  0.5823550000000 1.0
C      1  0.4463090000000  0.4984770000000  0.4291990000000 1.0
C      1  0.5052730000000  0.5141500000000  0.4163680000000 1.0
C      1  0.5234450000000  0.6174250000000  0.5149040000000 1.0
C      1  0.4974690000000  0.6007450000000  0.5563580000000 1.0
C      1  0.4826420000000  0.5290930000000  0.4502600000000 1.0
C      1  0.5318070000000  0.6129440000000  0.4893060000000 1.0
END
