TITL C-599891-72-539 0.000267971678272126 125000 -809.616775751292 0 0 132 (C1) n - 1
REM
REM in /home/nfs/bkarasulu/CARBON/AIRSS/Generating-Clusters/TERSOFF/Only-C1/FIRE-HFTN
REM
REM
REM
REM
REM
REM ./C.cell (11c1c37f851c82e70ff6c80c92926a4b)
REM AIRSS Version 0.9.1 bugfix July 2018 build 013d7b7c2542+ Fri, 06 Jul 2018 19:26:36 +0100
REM compiler GCC version 9.2.1 20190827 (Red Hat 9.2.1-1)
REM options -cpp -mtune=generic -march=x86-64 -g -O0 -fpre-include=/usr/include/finclude/math-vector-fortran.h
REM seed -663901942 1825219542 153953979 1765072899 -1313198767 -803238955 -2103540705 -349586609 -1909814038 -134277678 1953367038 517701896 203608509 30890945 -1478049612 -1894804748 -609853215 2074629149 -1716908755 36992436 95685146 -595919353 579272362 1780666318 868933465 -1188334725 374744668 -1715471965 834114180 -350908663 -1580818729 -1658820476 1707049748
REM
CELL 1.54180   50.00000   50.00000   50.00000   90.00000   90.00000   90.00000
LATT -1
SFAC C  
C      1  0.5291680000000  0.4809000000000  0.4601650000000 1.0
C      1  0.5777190000000  0.5155980000000  0.4853020000000 1.0
C      1  0.5769000000000  0.4553180000000  0.5690880000000 1.0
C      1  0.5662180000000  0.5626590000000  0.5166200000000 1.0
C      1  0.5957180000000  0.5209470000000  0.5362730000000 1.0
C      1  0.4710820000000  0.4637480000000  0.5483260000000 1.0
C      1  0.5128550000000  0.4900140000000  0.3812170000000 1.0
C      1  0.4309230000000  0.4969170000000  0.4290700000000 1.0
C      1  0.4687200000000  0.4359140000000  0.5480660000000 1.0
C      1  0.4209020000000  0.5208250000000  0.4448400000000 1.0
C      1  0.5163380000000  0.5671940000000  0.5960010000000 1.0
C      1  0.5300850000000  0.4107470000000  0.5398540000000 1.0
C      1  0.4902620000000  0.3974570000000  0.4856810000000 1.0
C      1  0.5457090000000  0.5783420000000  0.5027700000000 1.0
C      1  0.4400430000000  0.4365460000000  0.4794710000000 1.0
C      1  0.4396260000000  0.5442300000000  0.4525410000000 1.0
C      1  0.4817100000000  0.5311540000000  0.5708840000000 1.0
C      1  0.4246350000000  0.5375840000000  0.5799110000000 1.0
C      1  0.4687480000000  0.5150110000000  0.4769100000000 1.0
C      1  0.4623830000000  0.4160160000000  0.5289430000000 1.0
C      1  0.4182280000000  0.4088100000000  0.5158800000000 1.0
C      1  0.5717700000000  0.5348590000000  0.4648620000000 1.0
C      1  0.4638470000000  0.6091180000000  0.4546740000000 1.0
C      1  0.5151590000000  0.4873720000000  0.5546950000000 1.0
C      1  0.5567620000000  0.5104480000000  0.5054570000000 1.0
C      1  0.5390250000000  0.5510640000000  0.5941010000000 1.0
C      1  0.5242830000000  0.5042300000000  0.4736450000000 1.0
C      1  0.5974150000000  0.4971320000000  0.4772650000000 1.0
C      1  0.5319220000000  0.6001900000000  0.5160950000000 1.0
C      1  0.5596150000000  0.4159850000000  0.4637270000000 1.0
C      1  0.5114580000000  0.6102530000000  0.5760910000000 1.0
C      1  0.4504090000000  0.3855700000000  0.4594780000000 1.0
C      1  0.4197200000000  0.5192460000000  0.5118530000000 1.0
C      1  0.5335060000000  0.5707130000000  0.4777610000000 1.0
C      1  0.5185030000000  0.4018760000000  0.4870730000000 1.0
C      1  0.4296620000000  0.5595470000000  0.5652710000000 1.0
C      1  0.5007630000000  0.4703770000000  0.4245770000000 1.0
C      1  0.4625140000000  0.4457940000000  0.4651070000000 1.0
C      1  0.5648140000000  0.4434460000000  0.4686050000000 1.0
C      1  0.4562460000000  0.5894260000000  0.5284820000000 1.0
C      1  0.4908150000000  0.6136290000000  0.4438490000000 1.0
C      1  0.5317540000000  0.4086960000000  0.4621960000000 1.0
C      1  0.5529850000000  0.4887610000000  0.5249940000000 1.0
C      1  0.5437940000000  0.4910210000000  0.5527330000000 1.0
C      1  0.5490730000000  0.5240700000000  0.4230300000000 1.0
C      1  0.4745470000000  0.4832340000000  0.5095430000000 1.0
C      1  0.5510580000000  0.4799120000000  0.4417850000000 1.0
C      1  0.4623340000000  0.4250810000000  0.5750380000000 1.0
C      1  0.4781020000000  0.5094570000000  0.5020070000000 1.0
C      1  0.4007410000000  0.5106560000000  0.4919430000000 1.0
C      1  0.5726140000000  0.4643190000000  0.4509080000000 1.0
C      1  0.4844790000000  0.4659180000000  0.5920780000000 1.0
C      1  0.5171310000000  0.4584980000000  0.5113420000000 1.0
C      1  0.4878600000000  0.4573220000000  0.4729220000000 1.0
C      1  0.4024500000000  0.3778940000000  0.4636260000000 1.0
C      1  0.4706970000000  0.4899810000000  0.6006190000000 1.0
C      1  0.6027310000000  0.4928020000000  0.5402470000000 1.0
C      1  0.6161400000000  0.4289880000000  0.4987860000000 1.0
C      1  0.4862340000000  0.4146610000000  0.4403500000000 1.0
C      1  0.4923600000000  0.4640170000000  0.4996230000000 1.0
C      1  0.4725480000000  0.5585940000000  0.3872450000000 1.0
C      1  0.4870120000000  0.5454080000000  0.5466500000000 1.0
C      1  0.4843460000000  0.4361150000000  0.5911650000000 1.0
C      1  0.4929030000000  0.5279310000000  0.5219590000000 1.0
C      1  0.4682020000000  0.5409250000000  0.4386880000000 1.0
C      1  0.4585490000000  0.4905390000000  0.4319300000000 1.0
C      1  0.3907590000000  0.4855560000000  0.4495060000000 1.0
C      1  0.4925370000000  0.5563300000000  0.4536650000000 1.0
C      1  0.4274000000000  0.5142980000000  0.5931110000000 1.0
C      1  0.5018090000000  0.5681350000000  0.6198710000000 1.0
C      1  0.5446430000000  0.4642470000000  0.5127300000000 1.0
C      1  0.6206690000000  0.4532350000000  0.5094440000000 1.0
C      1  0.5322400000000  0.4237360000000  0.5653380000000 1.0
C      1  0.5317560000000  0.5197400000000  0.4953260000000 1.0
C      1  0.5550540000000  0.5434030000000  0.4433280000000 1.0
C      1  0.5066280000000  0.5571840000000  0.4807900000000 1.0
C      1  0.4325700000000  0.5437510000000  0.5016140000000 1.0
C      1  0.5123870000000  0.5713080000000  0.4367950000000 1.0
C      1  0.4426460000000  0.4939760000000  0.6026000000000 1.0
C      1  0.5819940000000  0.4004850000000  0.4718230000000 1.0
C      1  0.5616860000000  0.4509580000000  0.4954950000000 1.0
C      1  0.5527960000000  0.5296170000000  0.5868030000000 1.0
C      1  0.6035300000000  0.4088950000000  0.4860570000000 1.0
C      1  0.4723310000000  0.4658000000000  0.4238890000000 1.0
C      1  0.5550120000000  0.5074300000000  0.5723900000000 1.0
C      1  0.4683050000000  0.4389300000000  0.4368430000000 1.0
C      1  0.4087560000000  0.4784040000000  0.4297880000000 1.0
C      1  0.4634420000000  0.6070950000000  0.4838100000000 1.0
C      1  0.5386580000000  0.5662560000000  0.4490470000000 1.0
C      1  0.5048800000000  0.6229700000000  0.4674800000000 1.0
C      1  0.4763880000000  0.3961710000000  0.4605470000000 1.0
C      1  0.4482350000000  0.5336740000000  0.4797410000000 1.0
C      1  0.4911450000000  0.6150280000000  0.4914760000000 1.0
C      1  0.4993830000000  0.5975580000000  0.3978000000000 1.0
C      1  0.5031410000000  0.6032790000000  0.5141400000000 1.0
C      1  0.4263650000000  0.5694190000000  0.4624570000000 1.0
C      1  0.4859410000000  0.5810880000000  0.3813280000000 1.0
C      1  0.6170670000000  0.4771840000000  0.5212130000000 1.0
C      1  0.4935050000000  0.4725530000000  0.5646940000000 1.0
C      1  0.4831530000000  0.5142020000000  0.5916610000000 1.0
C      1  0.4390540000000  0.4086610000000  0.5676030000000 1.0
C      1  0.4250150000000  0.3916980000000  0.4701970000000 1.0
C      1  0.4761160000000  0.4023830000000  0.5092850000000 1.0
C      1  0.5120090000000  0.5390510000000  0.5023270000000 1.0
C      1  0.5065120000000  0.5064840000000  0.5365740000000 1.0
C      1  0.4247880000000  0.4139330000000  0.4883630000000 1.0
C      1  0.4950010000000  0.5723950000000  0.5508290000000 1.0
C      1  0.4289320000000  0.5718980000000  0.4919720000000 1.0
C      1  0.5467010000000  0.6192150000000  0.5292780000000 1.0
C      1  0.4868400000000  0.5681850000000  0.6412030000000 1.0
C      1  0.5184550000000  0.4857260000000  0.4076410000000 1.0
C      1  0.4672010000000  0.5447030000000  0.4093950000000 1.0
C      1  0.5563060000000  0.4380690000000  0.5706320000000 1.0
C      1  0.3997400000000  0.5093710000000  0.4636060000000 1.0
C      1  0.5031450000000  0.5959260000000  0.4255430000000 1.0
C      1  0.5069490000000  0.4659700000000  0.4528180000000 1.0
C      1  0.5292440000000  0.4042920000000  0.5135670000000 1.0
C      1  0.4468920000000  0.5920520000000  0.5015750000000 1.0
C      1  0.4358010000000  0.4067860000000  0.5379810000000 1.0
C      1  0.5426130000000  0.4963880000000  0.4198630000000 1.0
C      1  0.5272740000000  0.4148920000000  0.4135040000000 1.0
C      1  0.5918130000000  0.4763120000000  0.5609830000000 1.0
C      1  0.5080050000000  0.5830470000000  0.5739330000000 1.0
C      1  0.5828190000000  0.5441680000000  0.5286110000000 1.0
C      1  0.4399120000000  0.5781190000000  0.5487760000000 1.0
C      1  0.4336100000000  0.4989750000000  0.5281690000000 1.0
C      1  0.5153300000000  0.4132490000000  0.4381830000000 1.0
C      1  0.4560820000000  0.4805510000000  0.5307570000000 1.0
C      1  0.4728070000000  0.5110390000000  0.4479920000000 1.0
C      1  0.5962100000000  0.4779980000000  0.4582500000000 1.0
C      1  0.4848180000000  0.5906150000000  0.5320090000000 1.0
C      1  0.5103720000000  0.4249520000000  0.5840940000000 1.0
END
