TITL C-599894-471-720 0.0205092735287861 125000 -1014.8517933567 0 0 168 (C1) n - 1
REM
REM in /home/nfs/bkarasulu/CARBON/AIRSS/Generating-Clusters/TERSOFF/Only-C1/FIRE-HFTN
REM
REM
REM
REM
REM
REM ./C.cell (11c1c37f851c82e70ff6c80c92926a4b)
REM AIRSS Version 0.9.1 bugfix July 2018 build 013d7b7c2542+ Fri, 06 Jul 2018 19:26:36 +0100
REM compiler GCC version 9.2.1 20190827 (Red Hat 9.2.1-1)
REM options -cpp -mtune=generic -march=x86-64 -g -O0 -fpre-include=/usr/include/finclude/math-vector-fortran.h
REM seed 1559402212 947526921 1671007252 -1834855518 1452629258 -533900551 -1138111646 -1668695534 -2027651867 1354950245 441094005 -1449770526 -990732339 279436402 -109022469 1759871075 645912477 1069713146 682863119 822956949 -1298624311 -1189259304 -89812146 1325920448 72749763 760266545 1128030852 -137907036 1046923318 1913740908 -1065596096 1863362783 -2048801583
REM
CELL 1.54180   50.00000   50.00000   50.00000   90.00000   90.00000   90.00000
LATT -1
SFAC C  
C      1  0.4106640000000  0.5139220000000  0.3916080000000 1.0
C      1  0.6076670000000  0.4408560000000  0.5900750000000 1.0
C      1  0.4027460000000  0.5302800000000  0.5714410000000 1.0
C      1  0.6075550000000  0.4670430000000  0.4081460000000 1.0
C      1  0.4672430000000  0.6020240000000  0.4751710000000 1.0
C      1  0.5292540000000  0.5240920000000  0.3816710000000 1.0
C      1  0.4901080000000  0.3981990000000  0.5429900000000 1.0
C      1  0.5916400000000  0.5295460000000  0.5561280000000 1.0
C      1  0.5315120000000  0.4823970000000  0.5777280000000 1.0
C      1  0.4326460000000  0.5089760000000  0.4081890000000 1.0
C      1  0.4419280000000  0.4315610000000  0.4169390000000 1.0
C      1  0.4534720000000  0.4414540000000  0.4406510000000 1.0
C      1  0.4732440000000  0.5070400000000  0.6067310000000 1.0
C      1  0.5417160000000  0.4301760000000  0.5170690000000 1.0
C      1  0.5470800000000  0.5993320000000  0.4409240000000 1.0
C      1  0.3958880000000  0.5449710000000  0.4908290000000 1.0
C      1  0.5153830000000  0.5821310000000  0.5125740000000 1.0
C      1  0.4511570000000  0.5993200000000  0.4993440000000 1.0
C      1  0.4075940000000  0.5660190000000  0.5058570000000 1.0
C      1  0.5651390000000  0.5925680000000  0.4604660000000 1.0
C      1  0.5382090000000  0.4585480000000  0.5170820000000 1.0
C      1  0.4437770000000  0.3885970000000  0.5169240000000 1.0
C      1  0.4241420000000  0.4878750000000  0.5633530000000 1.0
C      1  0.5572620000000  0.5129730000000  0.6003920000000 1.0
C      1  0.4714930000000  0.4601090000000  0.4876040000000 1.0
C      1  0.4705100000000  0.5838960000000  0.4513580000000 1.0
C      1  0.5729190000000  0.5279740000000  0.5802140000000 1.0
C      1  0.5964750000000  0.4756000000000  0.4313620000000 1.0
C      1  0.5787760000000  0.4221460000000  0.4882990000000 1.0
C      1  0.4767860000000  0.4464210000000  0.5399350000000 1.0
C      1  0.4299620000000  0.4242950000000  0.5584870000000 1.0
C      1  0.4805440000000  0.4056710000000  0.4654430000000 1.0
C      1  0.4737740000000  0.6039540000000  0.5549700000000 1.0
C      1  0.5511870000000  0.4898700000000  0.4226480000000 1.0
C      1  0.4718290000000  0.4333610000000  0.6000230000000 1.0
C      1  0.4962920000000  0.5621930000000  0.5038650000000 1.0
C      1  0.4633010000000  0.3712640000000  0.5105410000000 1.0
C      1  0.5033190000000  0.5166560000000  0.4848450000000 1.0
C      1  0.5292450000000  0.5233680000000  0.6082860000000 1.0
C      1  0.4980700000000  0.5823100000000  0.4380090000000 1.0
C      1  0.4632920000000  0.5967930000000  0.5273630000000 1.0
C      1  0.5151970000000  0.6108480000000  0.4735130000000 1.0
C      1  0.4617040000000  0.4552860000000  0.5615400000000 1.0
C      1  0.5670650000000  0.5603440000000  0.5002140000000 1.0
C      1  0.5743690000000  0.5407190000000  0.4144510000000 1.0
C      1  0.4926940000000  0.4464680000000  0.4777930000000 1.0
C      1  0.4999880000000  0.3912260000000  0.4812820000000 1.0
C      1  0.5018640000000  0.5013330000000  0.6166360000000 1.0
C      1  0.4509290000000  0.6085470000000  0.5725210000000 1.0
C      1  0.5006670000000  0.3909400000000  0.5665770000000 1.0
C      1  0.4996770000000  0.4709920000000  0.6204290000000 1.0
C      1  0.4476250000000  0.4748880000000  0.3783220000000 1.0
C      1  0.5488620000000  0.5440460000000  0.4567910000000 1.0
C      1  0.4341210000000  0.4178680000000  0.4804060000000 1.0
C      1  0.4551690000000  0.5689290000000  0.5331430000000 1.0
C      1  0.4564040000000  0.4213800000000  0.4621620000000 1.0
C      1  0.3913320000000  0.4390240000000  0.4808910000000 1.0
C      1  0.6120970000000  0.4232910000000  0.5241910000000 1.0
C      1  0.5374510000000  0.4592550000000  0.5922210000000 1.0
C      1  0.5688220000000  0.4731220000000  0.4385860000000 1.0
C      1  0.4606700000000  0.4696250000000  0.4406890000000 1.0
C      1  0.4786790000000  0.4922130000000  0.4428360000000 1.0
C      1  0.5223970000000  0.4374150000000  0.3936740000000 1.0
C      1  0.4727010000000  0.5254450000000  0.5849190000000 1.0
C      1  0.4870720000000  0.3719780000000  0.4979010000000 1.0
C      1  0.5184870000000  0.4966760000000  0.4716480000000 1.0
C      1  0.4554260000000  0.4970540000000  0.3934560000000 1.0
C      1  0.5145630000000  0.5021230000000  0.5679650000000 1.0
C      1  0.6077960000000  0.5399860000000  0.4945730000000 1.0
C      1  0.4010640000000  0.4843120000000  0.4704160000000 1.0
C      1  0.4994500000000  0.5249740000000  0.5767840000000 1.0
C      1  0.4011140000000  0.4636790000000  0.4916520000000 1.0
C      1  0.4296140000000  0.5472680000000  0.4388590000000 1.0
C      1  0.5436870000000  0.3699410000000  0.4791280000000 1.0
C      1  0.5926130000000  0.4357460000000  0.5096550000000 1.0
C      1  0.4891810000000  0.6199220000000  0.4783760000000 1.0
C      1  0.5063780000000  0.5445910000000  0.4844430000000 1.0
C      1  0.5590090000000  0.5546220000000  0.5811160000000 1.0
C      1  0.5627040000000  0.4488460000000  0.4523240000000 1.0
C      1  0.5300720000000  0.5110410000000  0.4276120000000 1.0
C      1  0.4849690000000  0.4221410000000  0.5320820000000 1.0
C      1  0.5850910000000  0.4629680000000  0.5147200000000 1.0
C      1  0.5433540000000  0.4162990000000  0.5414480000000 1.0
C      1  0.4302790000000  0.4184020000000  0.3976890000000 1.0
C      1  0.4689790000000  0.4934030000000  0.5217050000000 1.0
C      1  0.4476940000000  0.4759190000000  0.5747610000000 1.0
C      1  0.4834500000000  0.5036540000000  0.3893300000000 1.0
C      1  0.5306680000000  0.4949220000000  0.3818170000000 1.0
C      1  0.5485870000000  0.5424430000000  0.3973300000000 1.0
C      1  0.5604090000000  0.4772570000000  0.5154760000000 1.0
C      1  0.4443830000000  0.5017670000000  0.4812850000000 1.0
C      1  0.4991780000000  0.5275850000000  0.3808920000000 1.0
C      1  0.5703140000000  0.5716560000000  0.5604450000000 1.0
C      1  0.5105320000000  0.5035350000000  0.5406800000000 1.0
C      1  0.3913810000000  0.5199390000000  0.5008300000000 1.0
C      1  0.6029660000000  0.5410170000000  0.4640190000000 1.0
C      1  0.5897810000000  0.5570630000000  0.5434660000000 1.0
C      1  0.5107160000000  0.4594670000000  0.4359300000000 1.0
C      1  0.3771420000000  0.4882170000000  0.4570750000000 1.0
C      1  0.4566150000000  0.5268470000000  0.4810240000000 1.0
C      1  0.6145530000000  0.5176110000000  0.5120300000000 1.0
C      1  0.5467140000000  0.4184490000000  0.4896180000000 1.0
C      1  0.5544640000000  0.4388300000000  0.5827750000000 1.0
C      1  0.5262990000000  0.5536110000000  0.4672390000000 1.0
C      1  0.5165240000000  0.4505030000000  0.6091660000000 1.0
C      1  0.4587730000000  0.5131540000000  0.5393820000000 1.0
C      1  0.4739980000000  0.5540670000000  0.5189930000000 1.0
C      1  0.4522570000000  0.5233230000000  0.5656170000000 1.0
C      1  0.5310600000000  0.5527530000000  0.5938320000000 1.0
C      1  0.5067790000000  0.5303620000000  0.4295740000000 1.0
C      1  0.4959450000000  0.4860160000000  0.5258660000000 1.0
C      1  0.4719000000000  0.4603470000000  0.6139460000000 1.0
C      1  0.5302680000000  0.5964710000000  0.4931840000000 1.0
C      1  0.3969820000000  0.5113140000000  0.5274570000000 1.0
C      1  0.4345520000000  0.4143000000000  0.5091930000000 1.0
C      1  0.4115960000000  0.4611770000000  0.5201110000000 1.0
C      1  0.5933740000000  0.4582210000000  0.3868140000000 1.0
C      1  0.4959100000000  0.5896560000000  0.5687800000000 1.0
C      1  0.5358910000000  0.5445050000000  0.5295070000000 1.0
C      1  0.6066750000000  0.5128700000000  0.5381190000000 1.0
C      1  0.4098020000000  0.4855870000000  0.5373760000000 1.0
C      1  0.5589830000000  0.5193730000000  0.4599570000000 1.0
C      1  0.5309870000000  0.5641290000000  0.4058140000000 1.0
C      1  0.4817970000000  0.5207540000000  0.4402570000000 1.0
C      1  0.4083730000000  0.5594410000000  0.5340510000000 1.0
C      1  0.5293450000000  0.3931740000000  0.4834340000000 1.0
C      1  0.5920180000000  0.5416940000000  0.4373160000000 1.0
C      1  0.5087270000000  0.4584740000000  0.4071750000000 1.0
C      1  0.5566490000000  0.5844280000000  0.4866880000000 1.0
C      1  0.4491390000000  0.6297990000000  0.5902280000000 1.0
C      1  0.4248620000000  0.5870160000000  0.4968920000000 1.0
C      1  0.5556220000000  0.5042480000000  0.5040570000000 1.0
C      1  0.5819760000000  0.4388070000000  0.5862190000000 1.0
C      1  0.4077180000000  0.4202270000000  0.4706640000000 1.0
C      1  0.3966040000000  0.5353600000000  0.5445220000000 1.0
C      1  0.4258550000000  0.5151540000000  0.5739310000000 1.0
C      1  0.5112080000000  0.5725410000000  0.5843750000000 1.0
C      1  0.5473710000000  0.4377650000000  0.3830270000000 1.0
C      1  0.4237770000000  0.4996210000000  0.4611790000000 1.0
C      1  0.4678280000000  0.5375380000000  0.4579330000000 1.0
C      1  0.5011770000000  0.4272020000000  0.5993960000000 1.0
C      1  0.4308590000000  0.5695620000000  0.5478710000000 1.0
C      1  0.5153480000000  0.4093650000000  0.5819120000000 1.0
C      1  0.4478190000000  0.6497690000000  0.6069200000000 1.0
C      1  0.5509420000000  0.5870220000000  0.5472910000000 1.0
C      1  0.5118840000000  0.4665660000000  0.5150340000000 1.0
C      1  0.4307820000000  0.5886240000000  0.5689540000000 1.0
C      1  0.5131720000000  0.4419110000000  0.4581760000000 1.0
C      1  0.5050920000000  0.4837960000000  0.4496570000000 1.0
C      1  0.5464500000000  0.5008310000000  0.4767290000000 1.0
C      1  0.5653280000000  0.4595860000000  0.3845920000000 1.0
C      1  0.5930530000000  0.5589690000000  0.5131860000000 1.0
C      1  0.5048880000000  0.4827930000000  0.3910710000000 1.0
C      1  0.4579370000000  0.4829280000000  0.4975490000000 1.0
C      1  0.5399980000000  0.4182760000000  0.5694100000000 1.0
C      1  0.5089570000000  0.5591690000000  0.4233600000000 1.0
C      1  0.5319040000000  0.5724840000000  0.5329240000000 1.0
C      1  0.4583040000000  0.4823690000000  0.6012550000000 1.0
C      1  0.4240090000000  0.4335180000000  0.5296210000000 1.0
C      1  0.5394930000000  0.4370670000000  0.4656240000000 1.0
C      1  0.4541060000000  0.5602720000000  0.4478130000000 1.0
C      1  0.5191390000000  0.6009540000000  0.4468320000000 1.0
C      1  0.5547930000000  0.5344780000000  0.5104720000000 1.0
C      1  0.5843570000000  0.4324450000000  0.4620990000000 1.0
C      1  0.4527040000000  0.4315640000000  0.5764720000000 1.0
C      1  0.5529240000000  0.4833980000000  0.3943810000000 1.0
C      1  0.5139470000000  0.5287950000000  0.5317750000000 1.0
C      1  0.4274770000000  0.5173690000000  0.4360990000000 1.0
END
