TITL C-599892-9790-453 16630.6407688473 125000 -1118.73729789732 0 0 183 (C1) n - 1
REM
REM in /home/nfs/bkarasulu/CARBON/AIRSS/Generating-Clusters/TERSOFF/Only-C1/FIRE-HFTN
REM
REM
REM
REM
REM
REM ./C.cell (11c1c37f851c82e70ff6c80c92926a4b)
REM AIRSS Version 0.9.1 bugfix July 2018 build 013d7b7c2542+ Fri, 06 Jul 2018 19:26:36 +0100
REM compiler GCC version 9.2.1 20190827 (Red Hat 9.2.1-1)
REM options -cpp -mtune=generic -march=x86-64 -g -O0 -fpre-include=/usr/include/finclude/math-vector-fortran.h
REM seed -1598982108 2113231777 -1677085693 -1675387296 -96654826 -1641488747 -114108493 1586112038 282354497 947676790 -2136531042 1380855470 -1818360495 -2052630228 -2105617994 2037506760 -203304895 63712230 1353339898 40037002 1149648710 481625215 -2102583367 632033530 -1408541521 -255673011 -1037386524 920479641 2107046242 326198772 1217827483 -944443593 -1316395883
REM
CELL 1.54180   50.00000   50.00000   50.00000   90.00000   90.00000   90.00000
LATT -1
SFAC C  
C      1  0.3926360000000  0.5013040000000  0.4927170000000 1.0
C      1  0.4674100000000  0.5796250000000  0.5893240000000 1.0
C      1  0.4398530000000  0.4995960000000  0.4803760000000 1.0
C      1  0.4147220000000  0.5818810000000  0.4957630000000 1.0
C      1  0.4881940000000  0.5915280000000  0.4286730000000 1.0
C      1  0.6089060000000  0.4324140000000  0.4970970000000 1.0
C      1  0.4260300000000  0.5552230000000  0.4980350000000 1.0
C      1  0.4321800000000  0.5483030000000  0.4303290000000 1.0
C      1  0.5343630000000  0.4590100000000  0.4655030000000 1.0
C      1  0.6005270000000  0.5277240000000  0.4641230000000 1.0
C      1  0.3634830000000  0.5107530000000  0.4300260000000 1.0
C      1  0.6364680000000  0.5628340000000  0.5056390000000 1.0
C      1  0.4519550000000  0.4117760000000  0.4425450000000 1.0
C      1  0.4930220000000  0.4406170000000  0.6251190000000 1.0
C      1  0.4862430000000  0.5985590000000  0.5796710000000 1.0
C      1  0.4678900000000  0.4557600000000  0.5371150000000 1.0
C      1  0.5070870000000  0.4957510000000  0.3510710000000 1.0
C      1  0.5256480000000  0.5503790000000  0.4479530000000 1.0
C      1  0.4103570000000  0.5439040000000  0.5601780000000 1.0
C      1  0.4213710000000  0.4165440000000  0.5717330000000 1.0
C      1  0.6158520000000  0.5809680000000  0.4974550000000 1.0
C      1  0.5019480000000  0.5692080000000  0.4127070000000 1.0
C      1  0.4114310000000  0.5346220000000  0.5876100000000 1.0
C      1  0.4980570000000  0.6052540000000  0.4553330000000 1.0
C      1  0.5852140000000  0.5127270000000  0.5126870000000 1.0
C      1  0.4086160000000  0.4991440000000  0.4426330000000 1.0
C      1  0.5699830000000  0.5051090000000  0.5374360000000 1.0
C      1  0.4452660000000  0.4802520000000  0.4111270000000 1.0
C      1  0.5353480000000  0.4079040000000  0.4906080000000 1.0
C      1  0.4378290000000  0.4744250000000  0.4948170000000 1.0
C      1  0.4952080000000  0.3808290000000  0.5006270000000 1.0
C      1  0.6109490000000  0.4091800000000  0.6025430000000 1.0
C      1  0.5278630000000  0.6076890000000  0.4579190000000 1.0
C      1  0.5503640000000  0.5778480000000  0.4136320000000 1.0
C      1  0.5400320000000  0.4639920000000  0.5471720000000 1.0
C      1  0.4220450000000  0.4561660000000  0.4811520000000 1.0
C      1  0.4288870000000  0.5011370000000  0.4216820000000 1.0
C      1  0.5099190000000  0.4156200000000  0.4750770000000 1.0
C      1  0.5167920000000  0.4691740000000  0.3926940000000 1.0
C      1  0.4890510000000  0.3749990000000  0.4728180000000 1.0
C      1  0.5369820000000  0.4353260000000  0.5852970000000 1.0
C      1  0.4689250000000  0.5462460000000  0.3814370000000 1.0
C      1  0.5473580000000  0.5080430000000  0.4564380000000 1.0
C      1  0.6267190000000  0.5383970000000  0.4659880000000 1.0
C      1  0.5162870000000  0.3766160000000  0.3534000000000 1.0
C      1  0.4130620000000  0.5047520000000  0.4708750000000 1.0
C      1  0.4897600000000  0.4253220000000  0.4132050000000 1.0
C      1  0.5644010000000  0.5504380000000  0.4895250000000 1.0
C      1  0.6233970000000  0.4895720000000  0.4989120000000 1.0
C      1  0.5294180000000  0.5628530000000  0.5169250000000 1.0
C      1  0.4212540000000  0.3954900000000  0.5554510000000 1.0
C      1  0.4589150000000  0.4670070000000  0.5124220000000 1.0
C      1  0.4295290000000  0.6027490000000  0.4847880000000 1.0
C      1  0.4305580000000  0.5340540000000  0.5176200000000 1.0
C      1  0.6011610000000  0.4405590000000  0.5214280000000 1.0
C      1  0.4742120000000  0.5239790000000  0.5010690000000 1.0
C      1  0.5049430000000  0.6072250000000  0.5365210000000 1.0
C      1  0.5030460000000  0.4040490000000  0.5640690000000 1.0
C      1  0.5917530000000  0.5888830000000  0.4879670000000 1.0
C      1  0.5955670000000  0.5120330000000  0.4409320000000 1.0
C      1  0.3837360000000  0.4739610000000  0.4981200000000 1.0
C      1  0.4615490000000  0.4737920000000  0.5587330000000 1.0
C      1  0.5285980000000  0.5788810000000  0.6042890000000 1.0
C      1  0.5541570000000  0.5218080000000  0.5553600000000 1.0
C      1  0.3942610000000  0.5241340000000  0.5433050000000 1.0
C      1  0.4775470000000  0.4052610000000  0.4308720000000 1.0
C      1  0.4961350000000  0.5050250000000  0.4365010000000 1.0
C      1  0.6401260000000  0.5111460000000  0.5016620000000 1.0
C      1  0.4689770000000  0.5628510000000  0.5226660000000 1.0
C      1  0.3894240000000  0.5203680000000  0.5146140000000 1.0
C      1  0.5658100000000  0.5784810000000  0.4829680000000 1.0
C      1  0.5143850000000  0.4175490000000  0.5864770000000 1.0
C      1  0.6533150000000  0.5691410000000  0.5262250000000 1.0
C      1  0.4810220000000  0.5371980000000  0.5255420000000 1.0
C      1  0.4491700000000  0.4616010000000  0.5815880000000 1.0
C      1  0.3858390000000  0.4729280000000  0.5555700000000 1.0
C      1  0.4306430000000  0.4409590000000  0.5764640000000 1.0
C      1  0.4694800000000  0.5046390000000  0.4769280000000 1.0
C      1  0.4733330000000  0.4714130000000  0.4579150000000 1.0
C      1  0.5700220000000  0.4779680000000  0.4883990000000 1.0
C      1  0.6389350000000  0.5379370000000  0.4915560000000 1.0
C      1  0.4944260000000  0.5471010000000  0.3934930000000 1.0
C      1  0.3823990000000  0.4914450000000  0.4344460000000 1.0
C      1  0.5458530000000  0.4661240000000  0.4031000000000 1.0
C      1  0.5419070000000  0.5414840000000  0.5042950000000 1.0
C      1  0.5530830000000  0.4029970000000  0.4408680000000 1.0
C      1  0.5351000000000  0.4620720000000  0.5753840000000 1.0
C      1  0.5241060000000  0.5917390000000  0.5539620000000 1.0
C      1  0.4701870000000  0.4456430000000  0.4691900000000 1.0
C      1  0.4906370000000  0.4116770000000  0.5396470000000 1.0
C      1  0.4708790000000  0.5664430000000  0.4934890000000 1.0
C      1  0.5565670000000  0.6036860000000  0.4184970000000 1.0
C      1  0.3765950000000  0.4649010000000  0.4309990000000 1.0
C      1  0.4775990000000  0.3962000000000  0.5180790000000 1.0
C      1  0.5204370000000  0.4638450000000  0.4412280000000 1.0
C      1  0.5027450000000  0.5442340000000  0.4636040000000 1.0
C      1  0.5299720000000  0.5248140000000  0.6195310000000 1.0
C      1  0.5444880000000  0.6182700000000  0.4377860000000 1.0
C      1  0.5007040000000  0.4191830000000  0.6109940000000 1.0
C      1  0.5021140000000  0.6048890000000  0.5074550000000 1.0
C      1  0.5864860000000  0.4173700000000  0.5988040000000 1.0
C      1  0.5559900000000  0.4534710000000  0.4846140000000 1.0
C      1  0.5051040000000  0.5210160000000  0.5676210000000 1.0
C      1  0.5146130000000  0.5901480000000  0.5816740000000 1.0
C      1  0.5431170000000  0.4352550000000  0.5039730000000 1.0
C      1  0.5852310000000  0.5316340000000  0.4891170000000 1.0
C      1  0.5589210000000  0.4906730000000  0.4133540000000 1.0
C      1  0.5162630000000  0.5015630000000  0.5187510000000 1.0
C      1  0.4497540000000  0.5777240000000  0.5377590000000 1.0
C      1  0.4665880000000  0.4667300000000  0.4013020000000 1.0
C      1  0.5870810000000  0.4571910000000  0.5370660000000 1.0
C      1  0.5301000000000  0.5511850000000  0.6123480000000 1.0
C      1  0.5418370000000  0.5071080000000  0.4289530000000 1.0
C      1  0.4318720000000  0.3881960000000  0.5320950000000 1.0
C      1  0.5618930000000  0.4258550000000  0.5938120000000 1.0
C      1  0.4415960000000  0.5154790000000  0.5351830000000 1.0
C      1  0.4548300000000  0.6157550000000  0.4910130000000 1.0
C      1  0.5127340000000  0.4598350000000  0.4837190000000 1.0
C      1  0.5222530000000  0.4972550000000  0.6132730000000 1.0
C      1  0.4653180000000  0.6022540000000  0.4176410000000 1.0
C      1  0.4882700000000  0.5293110000000  0.5894450000000 1.0
C      1  0.4489740000000  0.3992020000000  0.5125570000000 1.0
C      1  0.4926790000000  0.4399470000000  0.5359550000000 1.0
C      1  0.6092480000000  0.4335650000000  0.4703580000000 1.0
C      1  0.4398900000000  0.5781880000000  0.5822430000000 1.0
C      1  0.4920170000000  0.4522230000000  0.4008700000000 1.0
C      1  0.4944970000000  0.4905630000000  0.6174010000000 1.0
C      1  0.5235940000000  0.3850480000000  0.5059510000000 1.0
C      1  0.4816880000000  0.4654130000000  0.6191530000000 1.0
C      1  0.5398270000000  0.5912670000000  0.4785310000000 1.0
C      1  0.4967480000000  0.5640880000000  0.4827380000000 1.0
C      1  0.4360220000000  0.4157440000000  0.4924630000000 1.0
C      1  0.4509680000000  0.4242080000000  0.4680180000000 1.0
C      1  0.4301200000000  0.5667160000000  0.5570450000000 1.0
C      1  0.5178820000000  0.5810330000000  0.4968720000000 1.0
C      1  0.5658480000000  0.4757210000000  0.5406700000000 1.0
C      1  0.4772090000000  0.5112970000000  0.6084640000000 1.0
C      1  0.3914140000000  0.4485970000000  0.5117320000000 1.0
C      1  0.4952450000000  0.4382880000000  0.4791250000000 1.0
C      1  0.5532130000000  0.4002490000000  0.4676920000000 1.0
C      1  0.4264650000000  0.5241770000000  0.6070510000000 1.0
C      1  0.4548050000000  0.4647200000000  0.6093770000000 1.0
C      1  0.5504090000000  0.4997840000000  0.4831000000000 1.0
C      1  0.5488880000000  0.4155590000000  0.4157100000000 1.0
C      1  0.4127390000000  0.4341570000000  0.4969060000000 1.0
C      1  0.5543500000000  0.5502550000000  0.5549460000000 1.0
C      1  0.5422650000000  0.5968200000000  0.6202090000000 1.0
C      1  0.5281420000000  0.5640210000000  0.4236620000000 1.0
C      1  0.5949480000000  0.4880340000000  0.4994050000000 1.0
C      1  0.4834180000000  0.6117090000000  0.4828220000000 1.0
C      1  0.6014360000000  0.4398740000000  0.4455740000000 1.0
C      1  0.4795550000000  0.5551260000000  0.5939830000000 1.0
C      1  0.4889660000000  0.3838840000000  0.4467810000000 1.0
C      1  0.4503580000000  0.5156720000000  0.6154110000000 1.0
C      1  0.4428150000000  0.5579780000000  0.4524580000000 1.0
C      1  0.4333790000000  0.5275670000000  0.4116730000000 1.0
C      1  0.4949430000000  0.4775180000000  0.4415010000000 1.0
C      1  0.5199180000000  0.4532540000000  0.5273620000000 1.0
C      1  0.5353180000000  0.5142030000000  0.5033160000000 1.0
C      1  0.3875060000000  0.4997190000000  0.5573180000000 1.0
C      1  0.5596040000000  0.4418900000000  0.4122730000000 1.0
C      1  0.5318440000000  0.5104020000000  0.5697380000000 1.0
C      1  0.5378740000000  0.4015700000000  0.3942990000000 1.0
C      1  0.4911810000000  0.5150890000000  0.5425690000000 1.0
C      1  0.5376320000000  0.5696430000000  0.5428610000000 1.0
C      1  0.4520900000000  0.6235930000000  0.5186160000000 1.0
C      1  0.4636260000000  0.5013360000000  0.5489600000000 1.0
C      1  0.5164620000000  0.5137640000000  0.4199910000000 1.0
C      1  0.5105050000000  0.4957110000000  0.3782740000000 1.0
C      1  0.4814010000000  0.6101190000000  0.5536930000000 1.0
C      1  0.5329650000000  0.4877650000000  0.5880960000000 1.0
C      1  0.5857630000000  0.4974750000000  0.4201920000000 1.0
C      1  0.4341780000000  0.4643160000000  0.6275390000000 1.0
C      1  0.5084040000000  0.4749500000000  0.5083770000000 1.0
C      1  0.3877040000000  0.4511560000000  0.5396590000000 1.0
C      1  0.5085030000000  0.5207970000000  0.3938570000000 1.0
C      1  0.5274950000000  0.3887600000000  0.3735600000000 1.0
C      1  0.4480580000000  0.5579040000000  0.4795180000000 1.0
C      1  0.5850150000000  0.4447000000000  0.4249870000000 1.0
C      1  0.4868330000000  0.5205020000000  0.4578610000000 1.0
C      1  0.4457590000000  0.5340680000000  0.3873740000000 1.0
C      1  0.4569440000000  0.6059670000000  0.5400620000000 1.0
C      1  0.4800880000000  0.4810100000000  0.5029340000000 1.0
END
