TITL C-599892-9790-1423 0.461186208647138 125000 -724.237115638966 0 0 120 (C1) n - 1
REM
REM in /home/nfs/bkarasulu/CARBON/AIRSS/Generating-Clusters/TERSOFF/Only-C1/FIRE-HFTN
REM
REM
REM
REM
REM
REM ./C.cell (11c1c37f851c82e70ff6c80c92926a4b)
REM AIRSS Version 0.9.1 bugfix July 2018 build 013d7b7c2542+ Fri, 06 Jul 2018 19:26:36 +0100
REM compiler GCC version 9.2.1 20190827 (Red Hat 9.2.1-1)
REM options -cpp -mtune=generic -march=x86-64 -g -O0 -fpre-include=/usr/include/finclude/math-vector-fortran.h
REM seed -578830247 -649430024 404851 -1323965923 -518584370 1970777571 -648053418 -1101769252 -708564961 1339382857 -710119916 1484823822 410314027 -207263561 1449905962 316983085 595742896 1300361093 -2073935213 -1890206340 616902124 -649047832 -1675059894 1565659082 -831898052 -2143320866 -429710890 1529562505 -2142070560 318320196 1817112690 1594199941 427349237
REM
CELL 1.54180   50.00000   50.00000   50.00000   90.00000   90.00000   90.00000
LATT -1
SFAC C  
C      1  0.4954380000000  0.4968030000000  0.4334280000000 1.0
C      1  0.6847520000000  0.4593470000000  0.4275280000000 1.0
C      1  0.5529750000000  0.5298550000000  0.4691530000000 1.0
C      1  0.4918760000000  0.4893480000000  0.4957930000000 1.0
C      1  0.5128960000000  0.5048480000000  0.4819770000000 1.0
C      1  0.4943640000000  0.5696830000000  0.5778500000000 1.0
C      1  0.5990190000000  0.5093280000000  0.5664730000000 1.0
C      1  0.5780970000000  0.4901360000000  0.5683960000000 1.0
C      1  0.5035810000000  0.5533130000000  0.4764390000000 1.0
C      1  0.5657020000000  0.4873690000000  0.5195150000000 1.0
C      1  0.5212730000000  0.5099480000000  0.5541560000000 1.0
C      1  0.4775380000000  0.4396520000000  0.4219860000000 1.0
C      1  0.5118030000000  0.4569730000000  0.5794300000000 1.0
C      1  0.6380630000000  0.4970970000000  0.4788960000000 1.0
C      1  0.5165160000000  0.4374300000000  0.4615240000000 1.0
C      1  0.5165920000000  0.4334610000000  0.5632610000000 1.0
C      1  0.4477330000000  0.4483930000000  0.5621900000000 1.0
C      1  0.5303990000000  0.3927900000000  0.5123640000000 1.0
C      1  0.4461720000000  0.5652930000000  0.5655840000000 1.0
C      1  0.6197360000000  0.5124400000000  0.4932740000000 1.0
C      1  0.4789910000000  0.5126920000000  0.5403860000000 1.0
C      1  0.4158860000000  0.5611310000000  0.4962820000000 1.0
C      1  0.4603140000000  0.5506280000000  0.4872800000000 1.0
C      1  0.5329520000000  0.3707340000000  0.4965390000000 1.0
C      1  0.5317360000000  0.5907410000000  0.5186410000000 1.0
C      1  0.5235720000000  0.6440630000000  0.5205430000000 1.0
C      1  0.3921320000000  0.5495120000000  0.4847060000000 1.0
C      1  0.4767950000000  0.5083900000000  0.4145170000000 1.0
C      1  0.3952800000000  0.5419130000000  0.4581300000000 1.0
C      1  0.5277750000000  0.6183700000000  0.5193780000000 1.0
C      1  0.5539550000000  0.5442190000000  0.5917080000000 1.0
C      1  0.5000840000000  0.4116930000000  0.5525480000000 1.0
C      1  0.6022030000000  0.5512940000000  0.5406920000000 1.0
C      1  0.4693740000000  0.4337000000000  0.4730480000000 1.0
C      1  0.5258490000000  0.4368310000000  0.4895750000000 1.0
C      1  0.5240290000000  0.5011220000000  0.4379580000000 1.0
C      1  0.4854620000000  0.5606080000000  0.4977180000000 1.0
C      1  0.4297650000000  0.4497560000000  0.4167790000000 1.0
C      1  0.4824570000000  0.4762870000000  0.4527630000000 1.0
C      1  0.4382760000000  0.5663910000000  0.4787440000000 1.0
C      1  0.6029940000000  0.5266100000000  0.4035570000000 1.0
C      1  0.4392060000000  0.5172130000000  0.4542440000000 1.0
C      1  0.5547780000000  0.4299910000000  0.5277960000000 1.0
C      1  0.4945140000000  0.5583120000000  0.5242080000000 1.0
C      1  0.6542440000000  0.4838260000000  0.4626570000000 1.0
C      1  0.5180760000000  0.5153380000000  0.5821910000000 1.0
C      1  0.4428590000000  0.4422200000000  0.4808050000000 1.0
C      1  0.5430670000000  0.4334460000000  0.5519260000000 1.0
C      1  0.4878590000000  0.4450760000000  0.4502800000000 1.0
C      1  0.5379090000000  0.5183720000000  0.4912050000000 1.0
C      1  0.5448400000000  0.5175060000000  0.5931210000000 1.0
C      1  0.6199310000000  0.5120930000000  0.5215560000000 1.0
C      1  0.4503990000000  0.4302910000000  0.4205080000000 1.0
C      1  0.4684550000000  0.5359870000000  0.4170490000000 1.0
C      1  0.4281930000000  0.4249300000000  0.4981460000000 1.0
C      1  0.5431850000000  0.5235430000000  0.4416080000000 1.0
C      1  0.5362920000000  0.4698920000000  0.5890210000000 1.0
C      1  0.4754720000000  0.4071650000000  0.5137140000000 1.0
C      1  0.5778960000000  0.5331360000000  0.4090010000000 1.0
C      1  0.4696580000000  0.4818920000000  0.4794590000000 1.0
C      1  0.4277290000000  0.4768590000000  0.5130810000000 1.0
C      1  0.5525080000000  0.5384090000000  0.4193670000000 1.0
C      1  0.6697250000000  0.4713650000000  0.4451180000000 1.0
C      1  0.5267010000000  0.4859220000000  0.4624130000000 1.0
C      1  0.5026510000000  0.4954950000000  0.5387700000000 1.0
C      1  0.4443450000000  0.4700090000000  0.4895250000000 1.0
C      1  0.4283410000000  0.5655680000000  0.5456110000000 1.0
C      1  0.4665070000000  0.4693960000000  0.5583650000000 1.0
C      1  0.4160280000000  0.4571520000000  0.5318790000000 1.0
C      1  0.3767060000000  0.5328750000000  0.5018670000000 1.0
C      1  0.3777850000000  0.4375570000000  0.4073250000000 1.0
C      1  0.4265700000000  0.4298040000000  0.5261170000000 1.0
C      1  0.5039470000000  0.4470990000000  0.5065590000000 1.0
C      1  0.5739050000000  0.5642350000000  0.4982090000000 1.0
C      1  0.5012650000000  0.4742790000000  0.5180680000000 1.0
C      1  0.4359800000000  0.4910680000000  0.4430210000000 1.0
C      1  0.4129110000000  0.5324580000000  0.4152080000000 1.0
C      1  0.4577040000000  0.5581220000000  0.4296590000000 1.0
C      1  0.4217750000000  0.4625270000000  0.5610470000000 1.0
C      1  0.6094850000000  0.5244050000000  0.5448260000000 1.0
C      1  0.5916470000000  0.5648910000000  0.5201880000000 1.0
C      1  0.4464280000000  0.4918180000000  0.5967870000000 1.0
C      1  0.4805990000000  0.5409860000000  0.5426180000000 1.0
C      1  0.4479980000000  0.4247000000000  0.5465130000000 1.0
C      1  0.4811400000000  0.4608850000000  0.4023320000000 1.0
C      1  0.4639830000000  0.5270790000000  0.4694280000000 1.0
C      1  0.4634580000000  0.4841000000000  0.4044580000000 1.0
C      1  0.4862480000000  0.4702200000000  0.5794130000000 1.0
C      1  0.3526650000000  0.4320350000000  0.4030700000000 1.0
C      1  0.5194470000000  0.5726290000000  0.5643340000000 1.0
C      1  0.6008550000000  0.5283580000000  0.4795310000000 1.0
C      1  0.4162580000000  0.5318200000000  0.4425940000000 1.0
C      1  0.3887600000000  0.5173320000000  0.5207410000000 1.0
C      1  0.4756820000000  0.4914600000000  0.5965570000000 1.0
C      1  0.4032990000000  0.4432190000000  0.4116720000000 1.0
C      1  0.4728590000000  0.4118900000000  0.5416490000000 1.0
C      1  0.5163450000000  0.5738450000000  0.5354670000000 1.0
C      1  0.4725440000000  0.5560740000000  0.5659500000000 1.0
C      1  0.5767210000000  0.5430900000000  0.4786580000000 1.0
C      1  0.4344940000000  0.5002430000000  0.5281070000000 1.0
C      1  0.5736080000000  0.4773180000000  0.5433730000000 1.0
C      1  0.4163360000000  0.5222430000000  0.5266830000000 1.0
C      1  0.4828430000000  0.4288920000000  0.4979950000000 1.0
C      1  0.5429720000000  0.5651700000000  0.5782960000000 1.0
C      1  0.5213450000000  0.5774230000000  0.3989210000000 1.0
C      1  0.5416500000000  0.4185740000000  0.5053190000000 1.0
C      1  0.4945840000000  0.5124840000000  0.5977950000000 1.0
C      1  0.4244680000000  0.4820800000000  0.5826280000000 1.0
C      1  0.4392160000000  0.4768560000000  0.4189290000000 1.0
C      1  0.5411140000000  0.5223380000000  0.5387670000000 1.0
C      1  0.5364540000000  0.5583420000000  0.4082350000000 1.0
C      1  0.4439400000000  0.5710760000000  0.4501240000000 1.0
C      1  0.4575360000000  0.4949180000000  0.5444880000000 1.0
C      1  0.5164180000000  0.3925410000000  0.5374780000000 1.0
C      1  0.5563470000000  0.4911230000000  0.5875000000000 1.0
C      1  0.6278440000000  0.5194610000000  0.4002330000000 1.0
C      1  0.4947890000000  0.5264500000000  0.4687140000000 1.0
C      1  0.5507680000000  0.5797100000000  0.5012180000000 1.0
C      1  0.4219870000000  0.5505470000000  0.5229320000000 1.0
C      1  0.5505430000000  0.5107570000000  0.5150610000000 1.0
END
