TITL C-599891-72-584 -224.207805169013 125000 -1146.57592068758 0 0 189 (C1) n - 1
REM
REM in /home/nfs/bkarasulu/CARBON/AIRSS/Generating-Clusters/TERSOFF/Only-C1/FIRE-HFTN
REM
REM
REM
REM
REM
REM ./C.cell (11c1c37f851c82e70ff6c80c92926a4b)
REM AIRSS Version 0.9.1 bugfix July 2018 build 013d7b7c2542+ Fri, 06 Jul 2018 19:26:36 +0100
REM compiler GCC version 9.2.1 20190827 (Red Hat 9.2.1-1)
REM options -cpp -mtune=generic -march=x86-64 -g -O0 -fpre-include=/usr/include/finclude/math-vector-fortran.h
REM seed 1692036642 1029930105 1392976398 -1301997731 -2125797437 -1146420410 -43563387 -27907872 1171907805 1985023889 753241468 -1633692994 1392862103 -1564969869 -539402999 379968542 -1992309654 -1828921432 -2144758501 -1635614883 -1752938500 1461739794 956109696 1063976045 677447032 -599024943 -698856899 1733361706 1677124486 1078885755 -1067937250 -876459594 932053552
REM
CELL 1.54180   50.00000   50.00000   50.00000   90.00000   90.00000   90.00000
LATT -1
SFAC C  
C      1  0.4345130000000  0.5336820000000  0.4887870000000 1.0
C      1  0.6474180000000  0.5111230000000  0.5057120000000 1.0
C      1  0.5655360000000  0.5796430000000  0.4458450000000 1.0
C      1  0.5244290000000  0.4226210000000  0.5908790000000 1.0
C      1  0.5806380000000  0.5308640000000  0.4649260000000 1.0
C      1  0.5228820000000  0.6049070000000  0.4904670000000 1.0
C      1  0.4443580000000  0.5489710000000  0.5906640000000 1.0
C      1  0.5990360000000  0.4354540000000  0.5112130000000 1.0
C      1  0.5592340000000  0.5870160000000  0.5285810000000 1.0
C      1  0.5079340000000  0.3892230000000  0.5519350000000 1.0
C      1  0.3740710000000  0.5314020000000  0.4310300000000 1.0
C      1  0.5013830000000  0.4580800000000  0.5517730000000 1.0
C      1  0.5248810000000  0.4443260000000  0.6334020000000 1.0
C      1  0.5051590000000  0.4858260000000  0.5475490000000 1.0
C      1  0.4891200000000  0.3826010000000  0.6668820000000 1.0
C      1  0.5055540000000  0.5730520000000  0.4046440000000 1.0
C      1  0.5278640000000  0.4352400000000  0.3755670000000 1.0
C      1  0.4493810000000  0.5041130000000  0.4113420000000 1.0
C      1  0.4780750000000  0.6273950000000  0.4939930000000 1.0
C      1  0.5239750000000  0.4425860000000  0.5430990000000 1.0
C      1  0.5780560000000  0.5315330000000  0.4361380000000 1.0
C      1  0.4544060000000  0.5826940000000  0.5573390000000 1.0
C      1  0.4856550000000  0.5880550000000  0.4595380000000 1.0
C      1  0.5312820000000  0.4955870000000  0.6084320000000 1.0
C      1  0.4699280000000  0.4858690000000  0.4012070000000 1.0
C      1  0.5327730000000  0.4262200000000  0.4952190000000 1.0
C      1  0.4077070000000  0.5837740000000  0.5439170000000 1.0
C      1  0.5775580000000  0.4481980000000  0.5728820000000 1.0
C      1  0.5121200000000  0.5895200000000  0.4687680000000 1.0
C      1  0.6151150000000  0.4706220000000  0.3419410000000 1.0
C      1  0.4635310000000  0.5118140000000  0.5509290000000 1.0
C      1  0.4738870000000  0.5050680000000  0.4933620000000 1.0
C      1  0.5637750000000  0.4944420000000  0.5600560000000 1.0
C      1  0.5403100000000  0.4383320000000  0.4494880000000 1.0
C      1  0.6001600000000  0.4480740000000  0.5885550000000 1.0
C      1  0.5499530000000  0.5921690000000  0.4997110000000 1.0
C      1  0.5718760000000  0.5575010000000  0.4266120000000 1.0
C      1  0.6150840000000  0.4560170000000  0.5207310000000 1.0
C      1  0.3972140000000  0.5321550000000  0.5182140000000 1.0
C      1  0.4246310000000  0.5849750000000  0.4689570000000 1.0
C      1  0.4939810000000  0.5579480000000  0.5891090000000 1.0
C      1  0.5515490000000  0.4427420000000  0.4791590000000 1.0
C      1  0.5697930000000  0.3930760000000  0.5153870000000 1.0
C      1  0.4827750000000  0.5912990000000  0.4094920000000 1.0
C      1  0.4628130000000  0.5495680000000  0.4007030000000 1.0
C      1  0.4465090000000  0.4270860000000  0.4446920000000 1.0
C      1  0.4390440000000  0.5759260000000  0.5108160000000 1.0
C      1  0.5540860000000  0.4889570000000  0.4679640000000 1.0
C      1  0.4938540000000  0.3535900000000  0.5040720000000 1.0
C      1  0.4403840000000  0.5097510000000  0.5345920000000 1.0
C      1  0.5144650000000  0.3545350000000  0.4843650000000 1.0
C      1  0.5860190000000  0.4149150000000  0.4489020000000 1.0
C      1  0.5811170000000  0.4445670000000  0.4903620000000 1.0
C      1  0.4096050000000  0.4783530000000  0.5099660000000 1.0
C      1  0.5679730000000  0.5088110000000  0.4202700000000 1.0
C      1  0.5291060000000  0.4458450000000  0.6062710000000 1.0
C      1  0.5418300000000  0.4709420000000  0.4856010000000 1.0
C      1  0.5732640000000  0.4260920000000  0.5554980000000 1.0
C      1  0.4937590000000  0.4784320000000  0.4226710000000 1.0
C      1  0.4139490000000  0.5150620000000  0.4780290000000 1.0
C      1  0.4980780000000  0.3626720000000  0.5507860000000 1.0
C      1  0.5808430000000  0.4814040000000  0.4616340000000 1.0
C      1  0.5000280000000  0.5577990000000  0.5367810000000 1.0
C      1  0.3861600000000  0.4706610000000  0.5233860000000 1.0
C      1  0.4525430000000  0.4012690000000  0.5418450000000 1.0
C      1  0.5499550000000  0.5058660000000  0.6268010000000 1.0
C      1  0.4608800000000  0.4211110000000  0.6039380000000 1.0
C      1  0.4590730000000  0.4260300000000  0.5551620000000 1.0
C      1  0.5407500000000  0.5337500000000  0.5000450000000 1.0
C      1  0.5935530000000  0.4711720000000  0.4841870000000 1.0
C      1  0.5055120000000  0.6129750000000  0.5326640000000 1.0
C      1  0.5347170000000  0.5197530000000  0.5271410000000 1.0
C      1  0.4125540000000  0.4833340000000  0.4790030000000 1.0
C      1  0.5900760000000  0.4395490000000  0.4376920000000 1.0
C      1  0.4715470000000  0.5668860000000  0.4722380000000 1.0
C      1  0.5870170000000  0.4682220000000  0.4366970000000 1.0
C      1  0.3662550000000  0.5057330000000  0.4314100000000 1.0
C      1  0.5569950000000  0.5189380000000  0.5475920000000 1.0
C      1  0.6109090000000  0.4804400000000  0.5055280000000 1.0
C      1  0.5219860000000  0.5659010000000  0.5834850000000 1.0
C      1  0.5328760000000  0.5790810000000  0.4093190000000 1.0
C      1  0.4551910000000  0.4830950000000  0.4983980000000 1.0
C      1  0.4957840000000  0.4515140000000  0.4730520000000 1.0
C      1  0.5207150000000  0.4762390000000  0.5033620000000 1.0
C      1  0.3952750000000  0.5463360000000  0.4430170000000 1.0
C      1  0.5339990000000  0.4302740000000  0.4011950000000 1.0
C      1  0.5881720000000  0.5263770000000  0.6572320000000 1.0
C      1  0.4691930000000  0.4404100000000  0.4359640000000 1.0
C      1  0.4644920000000  0.4664730000000  0.3808200000000 1.0
C      1  0.4955640000000  0.4472650000000  0.4241990000000 1.0
C      1  0.4564210000000  0.5704730000000  0.5314650000000 1.0
C      1  0.5050890000000  0.5850920000000  0.5434060000000 1.0
C      1  0.4434920000000  0.5322750000000  0.4124390000000 1.0
C      1  0.4289090000000  0.4314020000000  0.3987220000000 1.0
C      1  0.5303670000000  0.6252310000000  0.5427320000000 1.0
C      1  0.5613530000000  0.4136820000000  0.5330530000000 1.0
C      1  0.5272810000000  0.5657610000000  0.4674280000000 1.0
C      1  0.5174820000000  0.4025090000000  0.5746440000000 1.0
C      1  0.4435810000000  0.5646040000000  0.4822140000000 1.0
C      1  0.4385330000000  0.4889200000000  0.4322910000000 1.0
C      1  0.4171300000000  0.5471990000000  0.5814600000000 1.0
C      1  0.5012470000000  0.4021910000000  0.5272200000000 1.0
C      1  0.4559010000000  0.4748050000000  0.4503260000000 1.0
C      1  0.5400740000000  0.5032310000000  0.4255150000000 1.0
C      1  0.5238780000000  0.4916960000000  0.5258710000000 1.0
C      1  0.3869370000000  0.5377840000000  0.5439400000000 1.0
C      1  0.6054100000000  0.5282390000000  0.5205370000000 1.0
C      1  0.4548090000000  0.6256100000000  0.4805630000000 1.0
C      1  0.5647560000000  0.5443210000000  0.4847530000000 1.0
C      1  0.3883140000000  0.4609200000000  0.5494910000000 1.0
C      1  0.4576540000000  0.3767990000000  0.5309340000000 1.0
C      1  0.5462460000000  0.6021000000000  0.5503920000000 1.0
C      1  0.6207720000000  0.5064490000000  0.5107340000000 1.0
C      1  0.6184840000000  0.5744680000000  0.5230370000000 1.0
C      1  0.5468370000000  0.5512860000000  0.5816180000000 1.0
C      1  0.4920350000000  0.5109100000000  0.5521450000000 1.0
C      1  0.5364230000000  0.5041260000000  0.4532810000000 1.0
C      1  0.4750940000000  0.5511060000000  0.5258770000000 1.0
C      1  0.5629970000000  0.3842390000000  0.4888820000000 1.0
C      1  0.5087130000000  0.4470690000000  0.3610950000000 1.0
C      1  0.3894150000000  0.5538450000000  0.4719280000000 1.0
C      1  0.5143220000000  0.5158030000000  0.4649940000000 1.0
C      1  0.4765080000000  0.4456330000000  0.5434190000000 1.0
C      1  0.5622550000000  0.5450280000000  0.5580780000000 1.0
C      1  0.5229100000000  0.4370730000000  0.4263100000000 1.0
C      1  0.5993020000000  0.5552610000000  0.5272060000000 1.0
C      1  0.5381440000000  0.6491650000000  0.4353500000000 1.0
C      1  0.5172800000000  0.5409310000000  0.4799320000000 1.0
C      1  0.4210970000000  0.5429030000000  0.4287800000000 1.0
C      1  0.4100320000000  0.5823250000000  0.5141930000000 1.0
C      1  0.5542330000000  0.5603180000000  0.4039300000000 1.0
C      1  0.4363050000000  0.4853390000000  0.5202890000000 1.0
C      1  0.4480040000000  0.4303220000000  0.5810090000000 1.0
C      1  0.4229200000000  0.4424490000000  0.5826060000000 1.0
C      1  0.5689300000000  0.5159850000000  0.6422570000000 1.0
C      1  0.5739800000000  0.5633000000000  0.5383550000000 1.0
C      1  0.3897310000000  0.5301240000000  0.4893890000000 1.0
C      1  0.5019900000000  0.6175870000000  0.5053410000000 1.0
C      1  0.5052860000000  0.5217460000000  0.3987240000000 1.0
C      1  0.4295760000000  0.5974300000000  0.5574780000000 1.0
C      1  0.3733310000000  0.4828240000000  0.4433360000000 1.0
C      1  0.5387840000000  0.4707190000000  0.5954440000000 1.0
C      1  0.4653020000000  0.5676150000000  0.5796030000000 1.0
C      1  0.4599940000000  0.5293670000000  0.6053180000000 1.0
C      1  0.5098890000000  0.3410850000000  0.4607990000000 1.0
C      1  0.4850590000000  0.4593620000000  0.3630500000000 1.0
C      1  0.3834030000000  0.5184290000000  0.5652210000000 1.0
C      1  0.4803070000000  0.4439940000000  0.5151640000000 1.0
C      1  0.6071040000000  0.5366230000000  0.6719380000000 1.0
C      1  0.5253520000000  0.5864750000000  0.5643860000000 1.0
C      1  0.5109300000000  0.5323920000000  0.5430830000000 1.0
C      1  0.4887190000000  0.5316400000000  0.6024140000000 1.0
C      1  0.4420700000000  0.4494390000000  0.3837670000000 1.0
C      1  0.4291980000000  0.4202270000000  0.4233700000000 1.0
C      1  0.5393440000000  0.3682830000000  0.4868430000000 1.0
C      1  0.3909300000000  0.4735400000000  0.4612620000000 1.0
C      1  0.4019560000000  0.5594090000000  0.5578200000000 1.0
C      1  0.5074670000000  0.5106580000000  0.6049530000000 1.0
C      1  0.4886080000000  0.5477580000000  0.4842610000000 1.0
C      1  0.5959810000000  0.4814950000000  0.3896720000000 1.0
C      1  0.5381330000000  0.4274220000000  0.5237410000000 1.0
C      1  0.6057320000000  0.4761070000000  0.3656370000000 1.0
C      1  0.4953780000000  0.4639220000000  0.4989430000000 1.0
C      1  0.4694470000000  0.4087610000000  0.6257500000000 1.0
C      1  0.4008270000000  0.5232990000000  0.5862880000000 1.0
C      1  0.5058230000000  0.4244860000000  0.4826240000000 1.0
C      1  0.4924480000000  0.5465530000000  0.4000950000000 1.0
C      1  0.4895710000000  0.4175470000000  0.5064150000000 1.0
C      1  0.4789610000000  0.3954220000000  0.6465840000000 1.0
C      1  0.4368480000000  0.4382280000000  0.4701100000000 1.0
C      1  0.4353850000000  0.6113300000000  0.4683030000000 1.0
C      1  0.4409040000000  0.4686050000000  0.4750320000000 1.0
C      1  0.4594020000000  0.5781210000000  0.3991640000000 1.0
C      1  0.5843680000000  0.4859290000000  0.4144640000000 1.0
C      1  0.4802620000000  0.3591090000000  0.5284750000000 1.0
C      1  0.4839200000000  0.4810820000000  0.4518550000000 1.0
C      1  0.4764890000000  0.5317920000000  0.5044610000000 1.0
C      1  0.4273160000000  0.5301220000000  0.5187040000000 1.0
C      1  0.5457610000000  0.5961830000000  0.4299710000000 1.0
C      1  0.5763370000000  0.3960350000000  0.4661150000000 1.0
C      1  0.4903840000000  0.5021010000000  0.4696130000000 1.0
C      1  0.4801940000000  0.6012540000000  0.4355090000000 1.0
C      1  0.4012660000000  0.4522840000000  0.5709210000000 1.0
C      1  0.5597160000000  0.4708290000000  0.5753460000000 1.0
C      1  0.5154130000000  0.4989670000000  0.4124000000000 1.0
C      1  0.3998240000000  0.5784020000000  0.4846940000000 1.0
C      1  0.5564290000000  0.5722060000000  0.4747310000000 1.0
C      1  0.3615220000000  0.4730210000000  0.5117620000000 1.0
C      1  0.5427410000000  0.6237130000000  0.4321720000000 1.0
END
