TITL C-599895-9959-510 0.00479841230166086 125000 -487.352661210582 0 0 81 (C1) n - 1
REM
REM in /home/nfs/bkarasulu/CARBON/AIRSS/Generating-Clusters/TERSOFF/Only-C1/FIRE-HFTN
REM
REM
REM
REM
REM
REM ./C.cell (11c1c37f851c82e70ff6c80c92926a4b)
REM AIRSS Version 0.9.1 bugfix July 2018 build 013d7b7c2542+ Fri, 06 Jul 2018 19:26:36 +0100
REM compiler GCC version 9.2.1 20190827 (Red Hat 9.2.1-1)
REM options -cpp -mtune=generic -march=x86-64 -g -O0 -fpre-include=/usr/include/finclude/math-vector-fortran.h
REM seed -1342718209 -642848082 -1282095749 973088559 595853728 1387879673 -987586191 -1064543518 -1742006530 1428777904 1142792389 283171095 738930059 -1807707848 1875625391 -678435719 -710675200 -482910154 886497926 328015789 592994521 1458426113 1837842018 1038242894 1415389680 418144610 953575880 1663162237 405862220 -82421019 576159115 -204463049 -1779803659
REM
CELL 1.54180   50.00000   50.00000   50.00000   90.00000   90.00000   90.00000
LATT -1
SFAC C  
C      1  0.4827780000000  0.5708910000000  0.4479270000000 1.0
C      1  0.4191680000000  0.4872480000000  0.5051190000000 1.0
C      1  0.5272500000000  0.4033520000000  0.5128070000000 1.0
C      1  0.4412490000000  0.4490540000000  0.4801460000000 1.0
C      1  0.4830370000000  0.5275720000000  0.5030880000000 1.0
C      1  0.4639620000000  0.5128450000000  0.4441490000000 1.0
C      1  0.4651780000000  0.5875780000000  0.4882540000000 1.0
C      1  0.4976770000000  0.5766440000000  0.5400770000000 1.0
C      1  0.5340720000000  0.5631790000000  0.5657820000000 1.0
C      1  0.5059780000000  0.5493370000000  0.3747370000000 1.0
C      1  0.5109480000000  0.5403470000000  0.5057380000000 1.0
C      1  0.4873710000000  0.4846060000000  0.3848980000000 1.0
C      1  0.4458700000000  0.5311130000000  0.4582800000000 1.0
C      1  0.5403500000000  0.5486390000000  0.4115400000000 1.0
C      1  0.4433650000000  0.5317790000000  0.5375530000000 1.0
C      1  0.5835510000000  0.4978070000000  0.5732260000000 1.0
C      1  0.5405340000000  0.5365880000000  0.4352010000000 1.0
C      1  0.5416650000000  0.4435980000000  0.5752940000000 1.0
C      1  0.5407010000000  0.5029810000000  0.4708390000000 1.0
C      1  0.4632220000000  0.4882940000000  0.5541000000000 1.0
C      1  0.4728200000000  0.4380240000000  0.4433010000000 1.0
C      1  0.5189390000000  0.5669010000000  0.5219240000000 1.0
C      1  0.4641380000000  0.5069090000000  0.4990090000000 1.0
C      1  0.5961850000000  0.4612810000000  0.6024390000000 1.0
C      1  0.4712290000000  0.4850750000000  0.4835570000000 1.0
C      1  0.5690170000000  0.4576610000000  0.5148300000000 1.0
C      1  0.5734040000000  0.5170610000000  0.5279320000000 1.0
C      1  0.5822610000000  0.4960500000000  0.5450200000000 1.0
C      1  0.5496290000000  0.4660560000000  0.5900900000000 1.0
C      1  0.5499570000000  0.5314330000000  0.5329860000000 1.0
C      1  0.5316390000000  0.4304780000000  0.4114700000000 1.0
C      1  0.4988290000000  0.4699780000000  0.5221100000000 1.0
C      1  0.5030180000000  0.4754400000000  0.4543570000000 1.0
C      1  0.5672620000000  0.5033290000000  0.4800620000000 1.0
C      1  0.4182270000000  0.4630140000000  0.4896860000000 1.0
C      1  0.4327730000000  0.5347200000000  0.4842840000000 1.0
C      1  0.5422030000000  0.4502730000000  0.5115120000000 1.0
C      1  0.4542580000000  0.5738880000000  0.5106030000000 1.0
C      1  0.4487290000000  0.4366140000000  0.4558310000000 1.0
C      1  0.4596160000000  0.4726930000000  0.5764810000000 1.0
C      1  0.5229250000000  0.4806090000000  0.4755940000000 1.0
C      1  0.4643810000000  0.4593350000000  0.4928450000000 1.0
C      1  0.5216880000000  0.4687080000000  0.5030590000000 1.0
C      1  0.4654750000000  0.5141280000000  0.4161300000000 1.0
C      1  0.5235340000000  0.5207900000000  0.5263610000000 1.0
C      1  0.5037750000000  0.5138270000000  0.5466160000000 1.0
C      1  0.5344900000000  0.4267770000000  0.5259120000000 1.0
C      1  0.4597420000000  0.5811850000000  0.4601620000000 1.0
C      1  0.4902600000000  0.5362380000000  0.5606360000000 1.0
C      1  0.4974370000000  0.4519160000000  0.4387240000000 1.0
C      1  0.5108360000000  0.4479200000000  0.4139920000000 1.0
C      1  0.5766960000000  0.4748870000000  0.5888020000000 1.0
C      1  0.4786020000000  0.4507000000000  0.5152720000000 1.0
C      1  0.4351710000000  0.5084700000000  0.4955100000000 1.0
C      1  0.4897910000000  0.4893950000000  0.5421470000000 1.0
C      1  0.5054040000000  0.5614270000000  0.5655260000000 1.0
C      1  0.4795720000000  0.4922050000000  0.4575020000000 1.0
C      1  0.5804810000000  0.5142090000000  0.5007060000000 1.0
C      1  0.5179080000000  0.5467980000000  0.4768400000000 1.0
C      1  0.5437290000000  0.5590980000000  0.5385970000000 1.0
C      1  0.4647330000000  0.5461670000000  0.5490710000000 1.0
C      1  0.5184530000000  0.3832440000000  0.4979690000000 1.0
C      1  0.5357690000000  0.4289480000000  0.5538820000000 1.0
C      1  0.5278600000000  0.5550640000000  0.3889160000000 1.0
C      1  0.4406090000000  0.5037720000000  0.5440630000000 1.0
C      1  0.4369250000000  0.5511420000000  0.5077660000000 1.0
C      1  0.4732170000000  0.4281170000000  0.5294030000000 1.0
C      1  0.4774160000000  0.5100630000000  0.3910820000000 1.0
C      1  0.5319020000000  0.5282390000000  0.4604960000000 1.0
C      1  0.4699330000000  0.5716330000000  0.5346050000000 1.0
C      1  0.3799640000000  0.4669300000000  0.5644450000000 1.0
C      1  0.5315210000000  0.4795860000000  0.6055250000000 1.0
C      1  0.5089450000000  0.3643580000000  0.4827210000000 1.0
C      1  0.5050230000000  0.5703840000000  0.4669820000000 1.0
C      1  0.5913100000000  0.5209870000000  0.5855430000000 1.0
C      1  0.4946720000000  0.5893300000000  0.4872380000000 1.0
C      1  0.4856210000000  0.5320690000000  0.3757900000000 1.0
C      1  0.4181900000000  0.4887930000000  0.5335970000000 1.0
C      1  0.3982090000000  0.4777810000000  0.5493300000000 1.0
C      1  0.5845100000000  0.4712230000000  0.5319020000000 1.0
C      1  0.5012610000000  0.4632170000000  0.3925020000000 1.0
END
