TITL C-599894-471-902 75580.4725734267 125000 -977.961606199996 0 0 158 (C1) n - 1
REM
REM in /home/nfs/bkarasulu/CARBON/AIRSS/Generating-Clusters/TERSOFF/Only-C1/FIRE-HFTN
REM
REM
REM
REM
REM
REM ./C.cell (11c1c37f851c82e70ff6c80c92926a4b)
REM AIRSS Version 0.9.1 bugfix July 2018 build 013d7b7c2542+ Fri, 06 Jul 2018 19:26:36 +0100
REM compiler GCC version 9.2.1 20190827 (Red Hat 9.2.1-1)
REM options -cpp -mtune=generic -march=x86-64 -g -O0 -fpre-include=/usr/include/finclude/math-vector-fortran.h
REM seed 759202992 83033067 1906156942 1550591793 1774400029 -2032843106 1777776915 -461680619 -440242811 -1762365746 -307052357 -504945494 -1683619619 1019530812 943723433 2008039470 915801933 -1413998714 -2111433363 -377247407 -1050914444 -188411565 1045797015 -1798817909 -1193091716 1343294672 1268104314 271309296 -1948338205 -881720075 -638229759 -1062008817 -1779226741
REM
CELL 1.54180   50.00000   50.00000   50.00000   90.00000   90.00000   90.00000
LATT -1
SFAC C  
C      1  0.5801780000000  0.5248950000000  0.4280770000000 1.0
C      1  0.4676440000000  0.5679240000000  0.4239590000000 1.0
C      1  0.4862260000000  0.6019560000000  0.5307050000000 1.0
C      1  0.4043240000000  0.4497230000000  0.4656450000000 1.0
C      1  0.5239500000000  0.5658000000000  0.4732290000000 1.0
C      1  0.5155560000000  0.4367610000000  0.4997110000000 1.0
C      1  0.5402360000000  0.4872680000000  0.5963720000000 1.0
C      1  0.5649940000000  0.4871300000000  0.4904460000000 1.0
C      1  0.5117990000000  0.5529930000000  0.4146710000000 1.0
C      1  0.4575370000000  0.5249200000000  0.4730120000000 1.0
C      1  0.4589060000000  0.4639660000000  0.3833450000000 1.0
C      1  0.5246850000000  0.4681600000000  0.3891670000000 1.0
C      1  0.5014240000000  0.5026100000000  0.4504760000000 1.0
C      1  0.5007890000000  0.4700060000000  0.6192510000000 1.0
C      1  0.4453750000000  0.4768930000000  0.5156620000000 1.0
C      1  0.5641140000000  0.5480170000000  0.4220410000000 1.0
C      1  0.4943050000000  0.4428140000000  0.4552800000000 1.0
C      1  0.5071600000000  0.5574460000000  0.5361860000000 1.0
C      1  0.6269570000000  0.4835310000000  0.4842140000000 1.0
C      1  0.5421280000000  0.5483700000000  0.4619360000000 1.0
C      1  0.4733530000000  0.4735100000000  0.5162000000000 1.0
C      1  0.4487020000000  0.5945250000000  0.5630430000000 1.0
C      1  0.5256070000000  0.4621840000000  0.5046150000000 1.0
C      1  0.5199160000000  0.3914140000000  0.4650480000000 1.0
C      1  0.5869670000000  0.4947650000000  0.5080090000000 1.0
C      1  0.5305730000000  0.5748800000000  0.4992600000000 1.0
C      1  0.4358940000000  0.5694710000000  0.4924810000000 1.0
C      1  0.4111190000000  0.4923530000000  0.4332540000000 1.0
C      1  0.5858040000000  0.5608930000000  0.4897120000000 1.0
C      1  0.4885010000000  0.4878020000000  0.5671650000000 1.0
C      1  0.5631240000000  0.5624200000000  0.4472750000000 1.0
C      1  0.4942800000000  0.4346470000000  0.4815130000000 1.0
C      1  0.4067710000000  0.4987910000000  0.5478720000000 1.0
C      1  0.6215340000000  0.5413590000000  0.5339380000000 1.0
C      1  0.5312110000000  0.4038190000000  0.5375280000000 1.0
C      1  0.5465830000000  0.4814220000000  0.4041820000000 1.0
C      1  0.5404590000000  0.5030150000000  0.4866100000000 1.0
C      1  0.5603320000000  0.4114490000000  0.4955390000000 1.0
C      1  0.4611090000000  0.6091660000000  0.5417910000000 1.0
C      1  0.5055010000000  0.5435850000000  0.6077210000000 1.0
C      1  0.4436220000000  0.5802080000000  0.4318770000000 1.0
C      1  0.4831480000000  0.4552990000000  0.6025730000000 1.0
C      1  0.4564480000000  0.5017910000000  0.4574230000000 1.0
C      1  0.4693880000000  0.4724850000000  0.5838540000000 1.0
C      1  0.4426040000000  0.4704960000000  0.5741840000000 1.0
C      1  0.5757180000000  0.5476280000000  0.5109980000000 1.0
C      1  0.4293720000000  0.4997730000000  0.4105010000000 1.0
C      1  0.6082950000000  0.5537270000000  0.5538050000000 1.0
C      1  0.5381200000000  0.5399340000000  0.4122420000000 1.0
C      1  0.4952610000000  0.5170700000000  0.6081370000000 1.0
C      1  0.3874230000000  0.5136790000000  0.4990600000000 1.0
C      1  0.4631940000000  0.5729960000000  0.4838130000000 1.0
C      1  0.4330360000000  0.5458160000000  0.5092230000000 1.0
C      1  0.4909460000000  0.5344500000000  0.4026170000000 1.0
C      1  0.5679190000000  0.4486330000000  0.5688600000000 1.0
C      1  0.4637910000000  0.5417790000000  0.4102040000000 1.0
C      1  0.5706130000000  0.4311650000000  0.5439670000000 1.0
C      1  0.5262600000000  0.5191260000000  0.5618840000000 1.0
C      1  0.5248250000000  0.6028900000000  0.5026230000000 1.0
C      1  0.5663490000000  0.6216960000000  0.4803570000000 1.0
C      1  0.4662640000000  0.3988260000000  0.4718230000000 1.0
C      1  0.5033630000000  0.5072650000000  0.4017340000000 1.0
C      1  0.4372050000000  0.4242830000000  0.4152950000000 1.0
C      1  0.4957990000000  0.5714050000000  0.4324400000000 1.0
C      1  0.6039190000000  0.4388560000000  0.4876040000000 1.0
C      1  0.4611450000000  0.5484000000000  0.5527770000000 1.0
C      1  0.5807750000000  0.5754680000000  0.4655090000000 1.0
C      1  0.5535270000000  0.5405830000000  0.5273210000000 1.0
C      1  0.5884930000000  0.5633000000000  0.5692200000000 1.0
C      1  0.4749320000000  0.4705810000000  0.4246450000000 1.0
C      1  0.5702480000000  0.5112940000000  0.4496470000000 1.0
C      1  0.5664900000000  0.4361770000000  0.4272960000000 1.0
C      1  0.4395950000000  0.4820350000000  0.3906870000000 1.0
C      1  0.5132590000000  0.4144200000000  0.5188500000000 1.0
C      1  0.4830640000000  0.4545480000000  0.5352140000000 1.0
C      1  0.4463840000000  0.4243630000000  0.5470300000000 1.0
C      1  0.3987760000000  0.6036020000000  0.5801660000000 1.0
C      1  0.4729830000000  0.4277630000000  0.5382060000000 1.0
C      1  0.5651120000000  0.5698760000000  0.5806500000000 1.0
C      1  0.5219540000000  0.4014410000000  0.5640890000000 1.0
C      1  0.5349160000000  0.5101750000000  0.4081020000000 1.0
C      1  0.5120750000000  0.5665240000000  0.5925480000000 1.0
C      1  0.4921580000000  0.3874520000000  0.4615190000000 1.0
C      1  0.5641840000000  0.4613260000000  0.4157330000000 1.0
C      1  0.4157380000000  0.4236670000000  0.5063700000000 1.0
C      1  0.5406420000000  0.4575560000000  0.4558650000000 1.0
C      1  0.4904430000000  0.4287940000000  0.5960910000000 1.0
C      1  0.5478430000000  0.5208730000000  0.4658520000000 1.0
C      1  0.5601570000000  0.4778720000000  0.5759970000000 1.0
C      1  0.4698870000000  0.4494960000000  0.4428990000000 1.0
C      1  0.5469040000000  0.4039370000000  0.4691750000000 1.0
C      1  0.5595830000000  0.4159920000000  0.4449920000000 1.0
C      1  0.5095590000000  0.4498030000000  0.4051230000000 1.0
C      1  0.3910440000000  0.4941870000000  0.5203230000000 1.0
C      1  0.4660660000000  0.5151750000000  0.6021560000000 1.0
C      1  0.6127990000000  0.5034890000000  0.4981780000000 1.0
C      1  0.4845820000000  0.4101740000000  0.5198400000000 1.0
C      1  0.5067230000000  0.4885670000000  0.3780440000000 1.0
C      1  0.3872770000000  0.4667020000000  0.5093080000000 1.0
C      1  0.5581260000000  0.4078800000000  0.5295390000000 1.0
C      1  0.4359750000000  0.4500710000000  0.5559050000000 1.0
C      1  0.5883520000000  0.4909640000000  0.5367480000000 1.0
C      1  0.5173280000000  0.4883500000000  0.4964340000000 1.0
C      1  0.5176270000000  0.4486120000000  0.4395470000000 1.0
C      1  0.6230760000000  0.4569530000000  0.4820560000000 1.0
C      1  0.4911890000000  0.4945080000000  0.5064500000000 1.0
C      1  0.4197230000000  0.4259400000000  0.4773480000000 1.0
C      1  0.6337320000000  0.4688790000000  0.5564470000000 1.0
C      1  0.5508490000000  0.5201720000000  0.5482230000000 1.0
C      1  0.4851480000000  0.5201580000000  0.5161130000000 1.0
C      1  0.4763110000000  0.4150400000000  0.4929550000000 1.0
C      1  0.5026060000000  0.5799270000000  0.4597040000000 1.0
C      1  0.4960930000000  0.6049040000000  0.5038190000000 1.0
C      1  0.4388810000000  0.5158780000000  0.5904620000000 1.0
C      1  0.4221770000000  0.5661320000000  0.4443160000000 1.0
C      1  0.5011010000000  0.4666360000000  0.5528020000000 1.0
C      1  0.4719200000000  0.5480740000000  0.4729760000000 1.0
C      1  0.4386100000000  0.4826110000000  0.4686300000000 1.0
C      1  0.5749120000000  0.4397370000000  0.4938510000000 1.0
C      1  0.4067640000000  0.4485320000000  0.5184980000000 1.0
C      1  0.4183540000000  0.5395300000000  0.4343240000000 1.0
C      1  0.4297310000000  0.4099560000000  0.5277490000000 1.0
C      1  0.4864210000000  0.5351640000000  0.5419790000000 1.0
C      1  0.5676890000000  0.4978160000000  0.5548340000000 1.0
C      1  0.4280980000000  0.4960340000000  0.5711390000000 1.0
C      1  0.4913620000000  0.4937450000000  0.4267390000000 1.0
C      1  0.5305090000000  0.5564480000000  0.5208910000000 1.0
C      1  0.4170880000000  0.5730850000000  0.4714130000000 1.0
C      1  0.5142030000000  0.4935720000000  0.6097480000000 1.0
C      1  0.5062660000000  0.4110510000000  0.5836440000000 1.0
C      1  0.4380450000000  0.5467250000000  0.5366930000000 1.0
C      1  0.4024520000000  0.5180180000000  0.4463920000000 1.0
C      1  0.4983530000000  0.5141740000000  0.5604130000000 1.0
C      1  0.4494020000000  0.4298790000000  0.4391030000000 1.0
C      1  0.5441780000000  0.6216520000000  0.4955010000000 1.0
C      1  0.5811910000000  0.6035580000000  0.4672140000000 1.0
C      1  0.3902490000000  0.5187830000000  0.4723380000000 1.0
C      1  0.6240940000000  0.5252290000000  0.5124800000000 1.0
C      1  0.5684070000000  0.4504610000000  0.5223240000000 1.0
C      1  0.4279600000000  0.4614480000000  0.5312000000000 1.0
C      1  0.4180070000000  0.4716250000000  0.4525740000000 1.0
C      1  0.4643040000000  0.5713420000000  0.5706080000000 1.0
C      1  0.5615940000000  0.4612600000000  0.4763620000000 1.0
C      1  0.4425990000000  0.4141930000000  0.4622070000000 1.0
C      1  0.4383010000000  0.5280610000000  0.4145160000000 1.0
C      1  0.4215860000000  0.5353370000000  0.5996860000000 1.0
C      1  0.4924410000000  0.5778560000000  0.5750510000000 1.0
C      1  0.4808110000000  0.4558800000000  0.3999470000000 1.0
C      1  0.4392170000000  0.5216340000000  0.4955560000000 1.0
C      1  0.4839960000000  0.5921450000000  0.4803150000000 1.0
C      1  0.5007210000000  0.5829560000000  0.5475420000000 1.0
C      1  0.4352380000000  0.4930400000000  0.4955610000000 1.0
C      1  0.5282590000000  0.4636330000000  0.5500520000000 1.0
C      1  0.3820530000000  0.4592880000000  0.4819680000000 1.0
C      1  0.6120330000000  0.4802260000000  0.5475300000000 1.0
C      1  0.5396680000000  0.5723270000000  0.5888340000000 1.0
C      1  0.5429560000000  0.4627570000000  0.5263830000000 1.0
C      1  0.4238330000000  0.6006150000000  0.5736990000000 1.0
END
