TITL C-599895-9959-657 0.647286881624094 125000 -840.900253450689 0 0 137 (C1) n - 1
REM
REM in /home/nfs/bkarasulu/CARBON/AIRSS/Generating-Clusters/TERSOFF/Only-C1/FIRE-HFTN
REM
REM
REM
REM
REM
REM ./C.cell (11c1c37f851c82e70ff6c80c92926a4b)
REM AIRSS Version 0.9.1 bugfix July 2018 build 013d7b7c2542+ Fri, 06 Jul 2018 19:26:36 +0100
REM compiler GCC version 9.2.1 20190827 (Red Hat 9.2.1-1)
REM options -cpp -mtune=generic -march=x86-64 -g -O0 -fpre-include=/usr/include/finclude/math-vector-fortran.h
REM seed 1067387787 -533713332 1719340232 1465971808 1574847873 453504211 -1670609123 1453377177 868153487 -28827731 1928009164 1761152165 1685027513 615737427 485367056 2139879195 1443131097 -2126342914 1768262120 1820997507 1100112655 610131861 1070856303 -1419072548 -2037081724 28829908 502703363 1331824804 -157268126 1600436483 771781890 1493170647 1314506087
REM
CELL 1.54180   50.00000   50.00000   50.00000   90.00000   90.00000   90.00000
LATT -1
SFAC C  
C      1  0.4882950000000  0.5788120000000  0.4241650000000 1.0
C      1  0.4507560000000  0.4291700000000  0.4479590000000 1.0
C      1  0.4330700000000  0.5460730000000  0.4667810000000 1.0
C      1  0.5734790000000  0.4891560000000  0.4224880000000 1.0
C      1  0.5369760000000  0.4661550000000  0.5105380000000 1.0
C      1  0.6399080000000  0.5591700000000  0.5735950000000 1.0
C      1  0.4332030000000  0.5266110000000  0.4240340000000 1.0
C      1  0.4966290000000  0.4251890000000  0.4265740000000 1.0
C      1  0.4913220000000  0.4373260000000  0.6197490000000 1.0
C      1  0.4991090000000  0.5293990000000  0.5017510000000 1.0
C      1  0.6464280000000  0.5460930000000  0.5497560000000 1.0
C      1  0.5637960000000  0.5567130000000  0.4253580000000 1.0
C      1  0.5800060000000  0.5362880000000  0.4321330000000 1.0
C      1  0.6072670000000  0.5328500000000  0.5222290000000 1.0
C      1  0.5421150000000  0.4468820000000  0.4232270000000 1.0
C      1  0.4069350000000  0.4803190000000  0.4397810000000 1.0
C      1  0.4973820000000  0.5714270000000  0.5644630000000 1.0
C      1  0.6071090000000  0.4282500000000  0.5975990000000 1.0
C      1  0.4923390000000  0.4240130000000  0.3990730000000 1.0
C      1  0.4824440000000  0.4814200000000  0.5140270000000 1.0
C      1  0.4492460000000  0.4566310000000  0.4391160000000 1.0
C      1  0.4463780000000  0.5528680000000  0.4206570000000 1.0
C      1  0.4409130000000  0.5004840000000  0.4124400000000 1.0
C      1  0.4814790000000  0.5596590000000  0.5474540000000 1.0
C      1  0.4383140000000  0.4708680000000  0.6025880000000 1.0
C      1  0.5590950000000  0.5147760000000  0.4810690000000 1.0
C      1  0.6046210000000  0.4561860000000  0.5306670000000 1.0
C      1  0.6288480000000  0.5263980000000  0.5396070000000 1.0
C      1  0.5966710000000  0.4895720000000  0.4926420000000 1.0
C      1  0.5279030000000  0.5237420000000  0.4428680000000 1.0
C      1  0.5133640000000  0.4188260000000  0.4819960000000 1.0
C      1  0.3975380000000  0.5270720000000  0.5423540000000 1.0
C      1  0.4989280000000  0.4710960000000  0.5849050000000 1.0
C      1  0.4341480000000  0.5924080000000  0.5073470000000 1.0
C      1  0.5981200000000  0.6037850000000  0.4989690000000 1.0
C      1  0.4472600000000  0.5221420000000  0.6063730000000 1.0
C      1  0.5188250000000  0.5373980000000  0.5205080000000 1.0
C      1  0.5581920000000  0.5782190000000  0.4924190000000 1.0
C      1  0.3875470000000  0.4540510000000  0.5434920000000 1.0
C      1  0.4650340000000  0.5463180000000  0.5313120000000 1.0
C      1  0.4703450000000  0.4715030000000  0.4508300000000 1.0
C      1  0.4285140000000  0.5528050000000  0.5712010000000 1.0
C      1  0.6226400000000  0.4741970000000  0.5425650000000 1.0
C      1  0.4090010000000  0.5003980000000  0.4597890000000 1.0
C      1  0.6002880000000  0.4308690000000  0.5721330000000 1.0
C      1  0.4544940000000  0.4430390000000  0.5609640000000 1.0
C      1  0.5344110000000  0.5128230000000  0.4675120000000 1.0
C      1  0.5819980000000  0.4875150000000  0.3965980000000 1.0
C      1  0.4679110000000  0.5004600000000  0.4029790000000 1.0
C      1  0.3848160000000  0.5505440000000  0.5339090000000 1.0
C      1  0.4827580000000  0.4528490000000  0.5991350000000 1.0
C      1  0.4878560000000  0.4387590000000  0.3773170000000 1.0
C      1  0.5985680000000  0.5584280000000  0.5141370000000 1.0
C      1  0.4631140000000  0.5435970000000  0.4699450000000 1.0
C      1  0.4709630000000  0.6196340000000  0.4937410000000 1.0
C      1  0.5545060000000  0.4712430000000  0.4333230000000 1.0
C      1  0.5100730000000  0.5201790000000  0.4233650000000 1.0
C      1  0.3997260000000  0.4790490000000  0.5468970000000 1.0
C      1  0.4902260000000  0.4853270000000  0.5617760000000 1.0
C      1  0.4405190000000  0.5056780000000  0.5574550000000 1.0
C      1  0.5182020000000  0.4398750000000  0.4374690000000 1.0
C      1  0.4974420000000  0.5004070000000  0.4968770000000 1.0
C      1  0.5409310000000  0.5703670000000  0.4214310000000 1.0
C      1  0.5173620000000  0.4921910000000  0.4776940000000 1.0
C      1  0.5311300000000  0.4172250000000  0.5058810000000 1.0
C      1  0.3870270000000  0.4341180000000  0.5257080000000 1.0
C      1  0.5740210000000  0.4425080000000  0.4661590000000 1.0
C      1  0.6694580000000  0.5522620000000  0.5363410000000 1.0
C      1  0.5688250000000  0.3914760000000  0.5460420000000 1.0
C      1  0.4613800000000  0.5750810000000  0.4331450000000 1.0
C      1  0.5161850000000  0.4273610000000  0.5288660000000 1.0
C      1  0.5790680000000  0.4397560000000  0.4931980000000 1.0
C      1  0.4688750000000  0.5047730000000  0.5667380000000 1.0
C      1  0.3891870000000  0.4971780000000  0.5045370000000 1.0
C      1  0.4625180000000  0.4065240000000  0.4877520000000 1.0
C      1  0.4403480000000  0.4185140000000  0.4732840000000 1.0
C      1  0.4216050000000  0.5248910000000  0.4505010000000 1.0
C      1  0.4355060000000  0.4964540000000  0.6118770000000 1.0
C      1  0.5617070000000  0.5137100000000  0.5116750000000 1.0
C      1  0.4822270000000  0.4636960000000  0.3696770000000 1.0
C      1  0.5318770000000  0.4658970000000  0.4795340000000 1.0
C      1  0.4755740000000  0.4875490000000  0.3795820000000 1.0
C      1  0.4107010000000  0.5782780000000  0.5004650000000 1.0
C      1  0.5326600000000  0.5790430000000  0.4842170000000 1.0
C      1  0.4101970000000  0.4909110000000  0.4869010000000 1.0
C      1  0.5614150000000  0.4222940000000  0.5088670000000 1.0
C      1  0.5072360000000  0.5713830000000  0.4797890000000 1.0
C      1  0.4709980000000  0.4215160000000  0.5531370000000 1.0
C      1  0.4226980000000  0.5289070000000  0.5561930000000 1.0
C      1  0.6138700000000  0.4257370000000  0.6226500000000 1.0
C      1  0.4520040000000  0.6003550000000  0.4848230000000 1.0
C      1  0.6330580000000  0.5712570000000  0.5956440000000 1.0
C      1  0.3902330000000  0.5715490000000  0.5182520000000 1.0
C      1  0.5952710000000  0.4615240000000  0.5039550000000 1.0
C      1  0.4779870000000  0.4167950000000  0.4461340000000 1.0
C      1  0.4547090000000  0.4701800000000  0.5147660000000 1.0
C      1  0.5528800000000  0.4867620000000  0.5205360000000 1.0
C      1  0.4529640000000  0.5287730000000  0.5152270000000 1.0
C      1  0.4557860000000  0.4526030000000  0.5888750000000 1.0
C      1  0.4733700000000  0.6269410000000  0.5197100000000 1.0
C      1  0.4876360000000  0.4081180000000  0.4735050000000 1.0
C      1  0.5848380000000  0.5799300000000  0.5018820000000 1.0
C      1  0.4533960000000  0.5902970000000  0.4572780000000 1.0
C      1  0.4405880000000  0.5955710000000  0.5357910000000 1.0
C      1  0.5833820000000  0.5032070000000  0.4685850000000 1.0
C      1  0.5740720000000  0.4154760000000  0.5339240000000 1.0
C      1  0.4448250000000  0.4612020000000  0.5408030000000 1.0
C      1  0.5149340000000  0.5772810000000  0.4209290000000 1.0
C      1  0.5836550000000  0.5092010000000  0.4404610000000 1.0
C      1  0.5181430000000  0.4425000000000  0.4665990000000 1.0
C      1  0.4140920000000  0.5631010000000  0.4775920000000 1.0
C      1  0.5777040000000  0.4244210000000  0.4446100000000 1.0
C      1  0.4977250000000  0.4738470000000  0.5368670000000 1.0
C      1  0.4308590000000  0.4751290000000  0.4252010000000 1.0
C      1  0.5921000000000  0.5109310000000  0.5131590000000 1.0
C      1  0.4714860000000  0.5189770000000  0.5914850000000 1.0
C      1  0.4322490000000  0.5773230000000  0.5566590000000 1.0
C      1  0.4584020000000  0.6173920000000  0.5418230000000 1.0
C      1  0.4884410000000  0.5505640000000  0.4837200000000 1.0
C      1  0.5182760000000  0.4556750000000  0.5295810000000 1.0
C      1  0.5617340000000  0.4259490000000  0.4224000000000 1.0
C      1  0.3968220000000  0.4233810000000  0.5033850000000 1.0
C      1  0.6316940000000  0.4990880000000  0.5461320000000 1.0
C      1  0.4148380000000  0.4200680000000  0.4840940000000 1.0
C      1  0.4515590000000  0.5094740000000  0.4946710000000 1.0
C      1  0.4854830000000  0.5074790000000  0.4241370000000 1.0
C      1  0.4648630000000  0.5146070000000  0.4699940000000 1.0
C      1  0.4948330000000  0.4154050000000  0.5424490000000 1.0
C      1  0.4758380000000  0.4987700000000  0.4497820000000 1.0
C      1  0.5452010000000  0.5340060000000  0.5245150000000 1.0
C      1  0.3900310000000  0.5015500000000  0.5323420000000 1.0
C      1  0.5930440000000  0.4341330000000  0.5452420000000 1.0
C      1  0.4603720000000  0.6284250000000  0.5666860000000 1.0
C      1  0.4336030000000  0.5462000000000  0.5986680000000 1.0
C      1  0.4364920000000  0.4857800000000  0.4979550000000 1.0
C      1  0.5570230000000  0.4653530000000  0.4616240000000 1.0
C      1  0.4275550000000  0.4808550000000  0.5517240000000 1.0
END
