TITL C-599892-9790-539 0.0975150714584207 125000 -570.385012363078 0 0 94 (C1) n - 1
REM
REM in /home/nfs/bkarasulu/CARBON/AIRSS/Generating-Clusters/TERSOFF/Only-C1/FIRE-HFTN
REM
REM
REM
REM
REM
REM ./C.cell (11c1c37f851c82e70ff6c80c92926a4b)
REM AIRSS Version 0.9.1 bugfix July 2018 build 013d7b7c2542+ Fri, 06 Jul 2018 19:26:36 +0100
REM compiler GCC version 9.2.1 20190827 (Red Hat 9.2.1-1)
REM options -cpp -mtune=generic -march=x86-64 -g -O0 -fpre-include=/usr/include/finclude/math-vector-fortran.h
REM seed 202664 -1475267745 -2037512313 545737590 755260153 -108971285 -578458534 -194761822 -449879010 -1917477934 98265658 1374399768 155323433 1823024572 -779679237 -1630221040 -1348589249 -1382952587 -108198966 -2063199641 919844806 2079366374 1344660518 925112948 -1207657383 -557980438 912588259 -602817859 -1292692353 -649354423 -1384147560 1415838139 -914828612
REM
CELL 1.54180   50.00000   50.00000   50.00000   90.00000   90.00000   90.00000
LATT -1
SFAC C  
C      1  0.4575280000000  0.4642680000000  0.4440240000000 1.0
C      1  0.5346780000000  0.5398020000000  0.4854560000000 1.0
C      1  0.5509390000000  0.4956850000000  0.4975850000000 1.0
C      1  0.5123580000000  0.5173350000000  0.5234120000000 1.0
C      1  0.4383740000000  0.5073070000000  0.5512580000000 1.0
C      1  0.4833740000000  0.5430610000000  0.4965260000000 1.0
C      1  0.4110420000000  0.5300660000000  0.4956030000000 1.0
C      1  0.4633400000000  0.4143680000000  0.5201760000000 1.0
C      1  0.6021850000000  0.4113690000000  0.5594780000000 1.0
C      1  0.5079060000000  0.4484510000000  0.4435330000000 1.0
C      1  0.4143000000000  0.4830140000000  0.4822150000000 1.0
C      1  0.4603190000000  0.5214110000000  0.4374870000000 1.0
C      1  0.4003070000000  0.5020890000000  0.4982160000000 1.0
C      1  0.5459030000000  0.5403710000000  0.5674330000000 1.0
C      1  0.4689830000000  0.5317640000000  0.5763660000000 1.0
C      1  0.4577490000000  0.4532550000000  0.5696840000000 1.0
C      1  0.5176520000000  0.5480240000000  0.5657300000000 1.0
C      1  0.4327370000000  0.4434090000000  0.5591460000000 1.0
C      1  0.4341500000000  0.4506450000000  0.4561320000000 1.0
C      1  0.4292550000000  0.4843780000000  0.5337650000000 1.0
C      1  0.4409580000000  0.4948010000000  0.4802790000000 1.0
C      1  0.4799470000000  0.4590780000000  0.4843480000000 1.0
C      1  0.4210590000000  0.5692710000000  0.5283400000000 1.0
C      1  0.4040040000000  0.5493050000000  0.5168300000000 1.0
C      1  0.5522160000000  0.4927760000000  0.5786380000000 1.0
C      1  0.5414820000000  0.4287050000000  0.4807380000000 1.0
C      1  0.5748690000000  0.5123430000000  0.5418060000000 1.0
C      1  0.5628840000000  0.5663920000000  0.4247040000000 1.0
C      1  0.5069080000000  0.5051480000000  0.5892770000000 1.0
C      1  0.5776360000000  0.5204630000000  0.4674210000000 1.0
C      1  0.5105540000000  0.5353580000000  0.5017870000000 1.0
C      1  0.5856350000000  0.4247140000000  0.5436700000000 1.0
C      1  0.5064420000000  0.5833980000000  0.5244630000000 1.0
C      1  0.5547010000000  0.5208790000000  0.5867010000000 1.0
C      1  0.4611760000000  0.4793280000000  0.4927460000000 1.0
C      1  0.4577240000000  0.4811790000000  0.5202680000000 1.0
C      1  0.4390950000000  0.4174160000000  0.5084500000000 1.0
C      1  0.5070010000000  0.4980440000000  0.4699370000000 1.0
C      1  0.5899450000000  0.4693430000000  0.4207290000000 1.0
C      1  0.4403000000000  0.5709190000000  0.5478680000000 1.0
C      1  0.5424530000000  0.4750160000000  0.5137220000000 1.0
C      1  0.4010660000000  0.4950580000000  0.5260780000000 1.0
C      1  0.4977270000000  0.5303110000000  0.5790800000000 1.0
C      1  0.5555260000000  0.5199190000000  0.4847980000000 1.0
C      1  0.4520150000000  0.5360020000000  0.4608790000000 1.0
C      1  0.4569260000000  0.5491130000000  0.5556750000000 1.0
C      1  0.5010200000000  0.5873230000000  0.4713670000000 1.0
C      1  0.5864570000000  0.5124590000000  0.3986920000000 1.0
C      1  0.4592660000000  0.5314800000000  0.5087920000000 1.0
C      1  0.5654710000000  0.4873290000000  0.5534350000000 1.0
C      1  0.4826690000000  0.4548000000000  0.4562620000000 1.0
C      1  0.5246890000000  0.5079930000000  0.4218930000000 1.0
C      1  0.5753810000000  0.4475000000000  0.4249880000000 1.0
C      1  0.4395870000000  0.5244520000000  0.4857520000000 1.0
C      1  0.4569960000000  0.4781850000000  0.5848770000000 1.0
C      1  0.5641750000000  0.5388420000000  0.5450600000000 1.0
C      1  0.5540690000000  0.4356950000000  0.4356680000000 1.0
C      1  0.4725900000000  0.5527860000000  0.4718550000000 1.0
C      1  0.5005850000000  0.4974180000000  0.5365760000000 1.0
C      1  0.5115060000000  0.4608190000000  0.4177010000000 1.0
C      1  0.3846410000000  0.5386250000000  0.5352520000000 1.0
C      1  0.4571750000000  0.4924180000000  0.4348350000000 1.0
C      1  0.5592110000000  0.5687500000000  0.4513350000000 1.0
C      1  0.4803430000000  0.4785320000000  0.5374850000000 1.0
C      1  0.5909630000000  0.5103500000000  0.4466340000000 1.0
C      1  0.5192940000000  0.4845800000000  0.4070630000000 1.0
C      1  0.5364390000000  0.5595280000000  0.4650370000000 1.0
C      1  0.4826110000000  0.4338060000000  0.5272520000000 1.0
C      1  0.5690490000000  0.5317340000000  0.3919810000000 1.0
C      1  0.5257940000000  0.4858490000000  0.5864370000000 1.0
C      1  0.5025280000000  0.5909260000000  0.4985680000000 1.0
C      1  0.4533160000000  0.5053720000000  0.5764580000000 1.0
C      1  0.4226350000000  0.4543930000000  0.5344290000000 1.0
C      1  0.5600190000000  0.4662990000000  0.5344640000000 1.0
C      1  0.4955820000000  0.4470240000000  0.5048670000000 1.0
C      1  0.3851360000000  0.5122020000000  0.5420780000000 1.0
C      1  0.4188650000000  0.4544820000000  0.4813650000000 1.0
C      1  0.5917640000000  0.4972250000000  0.4217290000000 1.0
C      1  0.5046180000000  0.5511270000000  0.4285980000000 1.0
C      1  0.5115320000000  0.5677700000000  0.4524660000000 1.0
C      1  0.5219270000000  0.5031810000000  0.4493760000000 1.0
C      1  0.5104830000000  0.5688240000000  0.5470750000000 1.0
C      1  0.5513490000000  0.5471280000000  0.4074600000000 1.0
C      1  0.5571310000000  0.4286480000000  0.5031000000000 1.0
C      1  0.4505710000000  0.5287680000000  0.5353340000000 1.0
C      1  0.5201630000000  0.4592500000000  0.5091640000000 1.0
C      1  0.6184660000000  0.3983110000000  0.5751010000000 1.0
C      1  0.4788310000000  0.4522950000000  0.5497720000000 1.0
C      1  0.5326840000000  0.4363060000000  0.4544390000000 1.0
C      1  0.4229530000000  0.4409730000000  0.5076980000000 1.0
C      1  0.4793940000000  0.5380660000000  0.4238810000000 1.0
C      1  0.5682610000000  0.4394090000000  0.5277030000000 1.0
C      1  0.5721430000000  0.5603720000000  0.5304230000000 1.0
C      1  0.5263410000000  0.5360400000000  0.4157660000000 1.0
END
