TITL C-599890-3321-1416 -0.00558800621341852 125000 -1003.3304109123 0 0 161 (C1) n - 1
REM
REM in /home/nfs/bkarasulu/CARBON/AIRSS/Generating-Clusters/TERSOFF/Only-C1/FIRE-HFTN
REM
REM
REM
REM
REM
REM ./C.cell (11c1c37f851c82e70ff6c80c92926a4b)
REM AIRSS Version 0.9.1 bugfix July 2018 build 013d7b7c2542+ Fri, 06 Jul 2018 19:26:36 +0100
REM compiler GCC version 9.2.1 20190827 (Red Hat 9.2.1-1)
REM options -cpp -mtune=generic -march=x86-64 -g -O0 -fpre-include=/usr/include/finclude/math-vector-fortran.h
REM seed 914288404 -934667032 1551306088 714682908 -1043671233 -1139483665 -148127312 816444192 1543739535 -1707588521 -1957475300 -1096556328 -217202930 1461892910 1381718732 -1275799750 -146103472 -1094876980 39834892 -919077150 506772674 674067450 275448004 924535746 -2143168366 678167293 -993238254 -151390116 -1289171862 -294130870 1491231327 404273914 -203239234
REM
CELL 1.54180   50.00000   50.00000   50.00000   90.00000   90.00000   90.00000
LATT -1
SFAC C  
C      1  0.5065570000000  0.4586390000000  0.6045950000000 1.0
C      1  0.4768340000000  0.4392400000000  0.4400450000000 1.0
C      1  0.5973920000000  0.4971710000000  0.4842540000000 1.0
C      1  0.5473590000000  0.4771240000000  0.5298500000000 1.0
C      1  0.4244190000000  0.5514870000000  0.5645060000000 1.0
C      1  0.5081690000000  0.4106550000000  0.3931680000000 1.0
C      1  0.4590170000000  0.4299100000000  0.4194910000000 1.0
C      1  0.4836960000000  0.4358810000000  0.5168620000000 1.0
C      1  0.4332580000000  0.5597640000000  0.5124630000000 1.0
C      1  0.4376600000000  0.4363060000000  0.4961470000000 1.0
C      1  0.4010730000000  0.5042040000000  0.4751280000000 1.0
C      1  0.5499810000000  0.4635850000000  0.4490240000000 1.0
C      1  0.4295840000000  0.6023920000000  0.5478640000000 1.0
C      1  0.5784030000000  0.5623590000000  0.5758050000000 1.0
C      1  0.6081150000000  0.5663830000000  0.4985670000000 1.0
C      1  0.5019570000000  0.5210780000000  0.4355370000000 1.0
C      1  0.4314080000000  0.4385040000000  0.4199830000000 1.0
C      1  0.4479460000000  0.5351440000000  0.5699470000000 1.0
C      1  0.4986080000000  0.3752040000000  0.5029720000000 1.0
C      1  0.5294740000000  0.4939250000000  0.5149350000000 1.0
C      1  0.4994400000000  0.5923290000000  0.5643700000000 1.0
C      1  0.5388840000000  0.4012570000000  0.5018270000000 1.0
C      1  0.5271810000000  0.5198000000000  0.5283480000000 1.0
C      1  0.4856750000000  0.4512650000000  0.5867710000000 1.0
C      1  0.5574680000000  0.4418740000000  0.4639260000000 1.0
C      1  0.4089630000000  0.4551110000000  0.4578840000000 1.0
C      1  0.4039350000000  0.5306710000000  0.5605040000000 1.0
C      1  0.4248370000000  0.5157840000000  0.6037100000000 1.0
C      1  0.5070780000000  0.4529700000000  0.5164210000000 1.0
C      1  0.4304980000000  0.4646920000000  0.4073960000000 1.0
C      1  0.5452680000000  0.3851780000000  0.4051820000000 1.0
C      1  0.4089860000000  0.4843260000000  0.4507680000000 1.0
C      1  0.4713870000000  0.4876530000000  0.3932180000000 1.0
C      1  0.5548780000000  0.4640160000000  0.4220880000000 1.0
C      1  0.4866170000000  0.4297100000000  0.5682240000000 1.0
C      1  0.4303720000000  0.4943510000000  0.5363940000000 1.0
C      1  0.5113500000000  0.5854560000000  0.4384940000000 1.0
C      1  0.5576820000000  0.5128080000000  0.5931270000000 1.0
C      1  0.4180520000000  0.5548200000000  0.4636580000000 1.0
C      1  0.5135800000000  0.5067340000000  0.4134690000000 1.0
C      1  0.5359880000000  0.4365140000000  0.5569210000000 1.0
C      1  0.4888450000000  0.4833100000000  0.4554660000000 1.0
C      1  0.5509040000000  0.5400130000000  0.5241350000000 1.0
C      1  0.4374070000000  0.4497480000000  0.5217720000000 1.0
C      1  0.4950620000000  0.6314470000000  0.5208800000000 1.0
C      1  0.4498480000000  0.4874880000000  0.4934650000000 1.0
C      1  0.6013170000000  0.4497760000000  0.5079760000000 1.0
C      1  0.4159430000000  0.4777750000000  0.5746820000000 1.0
C      1  0.4737930000000  0.5304880000000  0.6133180000000 1.0
C      1  0.5823130000000  0.4094810000000  0.5273610000000 1.0
C      1  0.5483370000000  0.5637030000000  0.4636230000000 1.0
C      1  0.6074230000000  0.5446100000000  0.4781740000000 1.0
C      1  0.5088110000000  0.5648260000000  0.5607270000000 1.0
C      1  0.3987400000000  0.5279960000000  0.5317960000000 1.0
C      1  0.4659800000000  0.6116120000000  0.4862120000000 1.0
C      1  0.4524600000000  0.5110210000000  0.5504780000000 1.0
C      1  0.4095850000000  0.5434630000000  0.5093310000000 1.0
C      1  0.5992690000000  0.3880030000000  0.5259070000000 1.0
C      1  0.4944260000000  0.6111180000000  0.4785880000000 1.0
C      1  0.4931580000000  0.5534700000000  0.4676890000000 1.0
C      1  0.5358990000000  0.5697410000000  0.5202560000000 1.0
C      1  0.5393300000000  0.5364590000000  0.4634040000000 1.0
C      1  0.4502580000000  0.5284790000000  0.5983370000000 1.0
C      1  0.5274170000000  0.5434050000000  0.3851540000000 1.0
C      1  0.5516780000000  0.5103340000000  0.4649560000000 1.0
C      1  0.4201540000000  0.5838150000000  0.4716170000000 1.0
C      1  0.4650160000000  0.5203710000000  0.5257880000000 1.0
C      1  0.4644660000000  0.4698940000000  0.5795290000000 1.0
C      1  0.4060270000000  0.5343690000000  0.4807620000000 1.0
C      1  0.3941830000000  0.4610020000000  0.5005940000000 1.0
C      1  0.5193470000000  0.6172440000000  0.5289530000000 1.0
C      1  0.5307330000000  0.3995120000000  0.3632510000000 1.0
C      1  0.3953620000000  0.4894630000000  0.5010150000000 1.0
C      1  0.4590080000000  0.5759350000000  0.4494850000000 1.0
C      1  0.5220490000000  0.3990780000000  0.4144860000000 1.0
C      1  0.5540730000000  0.4054150000000  0.5254490000000 1.0
C      1  0.4545340000000  0.6113010000000  0.5381340000000 1.0
C      1  0.4208630000000  0.4881430000000  0.4230220000000 1.0
C      1  0.4671340000000  0.6230440000000  0.5141820000000 1.0
C      1  0.5915350000000  0.4513900000000  0.5553720000000 1.0
C      1  0.4895480000000  0.4648330000000  0.4334150000000 1.0
C      1  0.4125300000000  0.4462140000000  0.4843280000000 1.0
C      1  0.5408060000000  0.4942920000000  0.6089400000000 1.0
C      1  0.4219510000000  0.5790730000000  0.5595480000000 1.0
C      1  0.5014010000000  0.4762550000000  0.6267310000000 1.0
C      1  0.5235640000000  0.5157960000000  0.5585950000000 1.0
C      1  0.5304910000000  0.4536260000000  0.5351110000000 1.0
C      1  0.5167940000000  0.5853400000000  0.4111260000000 1.0
C      1  0.4955850000000  0.4828140000000  0.4090940000000 1.0
C      1  0.5109440000000  0.4816670000000  0.4730690000000 1.0
C      1  0.4389570000000  0.4595150000000  0.5699590000000 1.0
C      1  0.5455520000000  0.6048650000000  0.5705590000000 1.0
C      1  0.5620620000000  0.5253070000000  0.4124700000000 1.0
C      1  0.4555530000000  0.5112960000000  0.3969460000000 1.0
C      1  0.4441130000000  0.5494710000000  0.4504900000000 1.0
C      1  0.4471560000000  0.5955430000000  0.4689690000000 1.0
C      1  0.4829560000000  0.5277490000000  0.5066990000000 1.0
C      1  0.4719860000000  0.4304540000000  0.5438610000000 1.0
C      1  0.4678220000000  0.4382150000000  0.3924050000000 1.0
C      1  0.5736660000000  0.5216100000000  0.5293740000000 1.0
C      1  0.4460430000000  0.5070090000000  0.4760440000000 1.0
C      1  0.4553620000000  0.5227150000000  0.4545980000000 1.0
C      1  0.4956890000000  0.3650180000000  0.5275860000000 1.0
C      1  0.4421990000000  0.4768210000000  0.5178190000000 1.0
C      1  0.5769850000000  0.4439620000000  0.5786390000000 1.0
C      1  0.5139780000000  0.3947640000000  0.4896180000000 1.0
C      1  0.5997210000000  0.5288200000000  0.5221480000000 1.0
C      1  0.5034110000000  0.4072230000000  0.4661700000000 1.0
C      1  0.5930170000000  0.4358030000000  0.5310900000000 1.0
C      1  0.5356230000000  0.5215660000000  0.4013970000000 1.0
C      1  0.4886590000000  0.4252500000000  0.3793700000000 1.0
C      1  0.5212530000000  0.6009040000000  0.4825710000000 1.0
C      1  0.5915430000000  0.4795680000000  0.5515500000000 1.0
C      1  0.5182130000000  0.5417650000000  0.5725820000000 1.0
C      1  0.4669520000000  0.4310740000000  0.4914250000000 1.0
C      1  0.4114380000000  0.4350230000000  0.4385610000000 1.0
C      1  0.5675940000000  0.4950680000000  0.5441870000000 1.0
C      1  0.5245390000000  0.3878970000000  0.5604930000000 1.0
C      1  0.5315310000000  0.5868030000000  0.4597860000000 1.0
C      1  0.4936600000000  0.4251840000000  0.3512730000000 1.0
C      1  0.5820260000000  0.5363900000000  0.4276330000000 1.0
C      1  0.5058340000000  0.5352800000000  0.5189490000000 1.0
C      1  0.5798780000000  0.5093600000000  0.4653180000000 1.0
C      1  0.4786820000000  0.5089400000000  0.4462500000000 1.0
C      1  0.6045940000000  0.5571270000000  0.5268030000000 1.0
C      1  0.4754110000000  0.5484070000000  0.4890170000000 1.0
C      1  0.5492130000000  0.3858180000000  0.3780860000000 1.0
C      1  0.4549720000000  0.4644100000000  0.3900370000000 1.0
C      1  0.4042750000000  0.5010530000000  0.5257590000000 1.0
C      1  0.5122790000000  0.5360100000000  0.4566900000000 1.0
C      1  0.4755690000000  0.5941950000000  0.5479710000000 1.0
C      1  0.5157150000000  0.5013620000000  0.6238920000000 1.0
C      1  0.4320740000000  0.5117210000000  0.4112120000000 1.0
C      1  0.5212970000000  0.5689960000000  0.3904370000000 1.0
C      1  0.5212320000000  0.6099670000000  0.5570410000000 1.0
C      1  0.4093510000000  0.5065750000000  0.5802010000000 1.0
C      1  0.4999530000000  0.4988230000000  0.5635910000000 1.0
C      1  0.5160350000000  0.4114470000000  0.3434680000000 1.0
C      1  0.5503860000000  0.5053730000000  0.5666630000000 1.0
C      1  0.5924010000000  0.5339710000000  0.4542830000000 1.0
C      1  0.4810840000000  0.4259220000000  0.4660290000000 1.0
C      1  0.4607330000000  0.5656100000000  0.5072810000000 1.0
C      1  0.4984780000000  0.5235500000000  0.6215810000000 1.0
C      1  0.4796810000000  0.5752340000000  0.5263900000000 1.0
C      1  0.5147720000000  0.4006050000000  0.4412640000000 1.0
C      1  0.5066600000000  0.3700110000000  0.5515600000000 1.0
C      1  0.5373110000000  0.4856880000000  0.4618920000000 1.0
C      1  0.5106730000000  0.4775550000000  0.5007160000000 1.0
C      1  0.4871010000000  0.5742510000000  0.4487570000000 1.0
C      1  0.5488360000000  0.4475440000000  0.5802530000000 1.0
C      1  0.5968130000000  0.5642690000000  0.5533540000000 1.0
C      1  0.5348690000000  0.4655370000000  0.5976770000000 1.0
C      1  0.5391330000000  0.4092280000000  0.5497750000000 1.0
C      1  0.4446870000000  0.4409490000000  0.5474590000000 1.0
C      1  0.5719850000000  0.5383420000000  0.5918490000000 1.0
C      1  0.6015600000000  0.4709050000000  0.4917780000000 1.0
C      1  0.5066800000000  0.5621400000000  0.5300200000000 1.0
C      1  0.4725080000000  0.4935730000000  0.5658560000000 1.0
C      1  0.6092450000000  0.5202420000000  0.4965880000000 1.0
C      1  0.5625160000000  0.5858220000000  0.5791310000000 1.0
C      1  0.5309410000000  0.5976110000000  0.5097220000000 1.0
END
