TITL C-599897-7526-100 -0.484816920161164 125000 -960.605514639047 0 0 157 (C1) n - 1
REM
REM in /home/nfs/bkarasulu/CARBON/AIRSS/Generating-Clusters/TERSOFF/Only-C1/FIRE-HFTN
REM
REM
REM
REM
REM
REM ./C.cell (11c1c37f851c82e70ff6c80c92926a4b)
REM AIRSS Version 0.9.1 bugfix July 2018 build 013d7b7c2542+ Fri, 06 Jul 2018 19:26:36 +0100
REM compiler GCC version 9.2.1 20190827 (Red Hat 9.2.1-1)
REM options -cpp -mtune=generic -march=x86-64 -g -O0 -fpre-include=/usr/include/finclude/math-vector-fortran.h
REM seed 1825601076 -2007646247 -1905006829 -1698011544 -546889177 1336295480 869060494 -711525227 -1757994171 529353376 -1171754285 303916141 960192166 -1836464164 1894275737 -1315742031 -476316844 -338062593 -703453336 -1561321164 1663103862 -653690017 -1963914156 -908339213 679800164 1257355495 898321295 1115809097 -1650851627 1630350369 797057159 -539703322 1606135413
REM
CELL 1.54180   50.00000   50.00000   50.00000   90.00000   90.00000   90.00000
LATT -1
SFAC C  
C      1  0.5871150000000  0.4407670000000  0.4484600000000 1.0
C      1  0.4963150000000  0.4629850000000  0.5484690000000 1.0
C      1  0.5555010000000  0.5567840000000  0.4034570000000 1.0
C      1  0.5609370000000  0.5666740000000  0.3780810000000 1.0
C      1  0.5962840000000  0.5163210000000  0.5045170000000 1.0
C      1  0.5020380000000  0.5120720000000  0.5522580000000 1.0
C      1  0.4884230000000  0.5023260000000  0.5022100000000 1.0
C      1  0.4127130000000  0.4821200000000  0.5631500000000 1.0
C      1  0.5049970000000  0.5700420000000  0.4710410000000 1.0
C      1  0.4890210000000  0.5569960000000  0.4904300000000 1.0
C      1  0.5424090000000  0.5408560000000  0.5233520000000 1.0
C      1  0.5790540000000  0.4529880000000  0.5832100000000 1.0
C      1  0.4001740000000  0.5519220000000  0.5116640000000 1.0
C      1  0.5720880000000  0.3491570000000  0.4497380000000 1.0
C      1  0.4309060000000  0.4955420000000  0.4936200000000 1.0
C      1  0.4692860000000  0.5863630000000  0.4358970000000 1.0
C      1  0.5092870000000  0.5197920000000  0.6089750000000 1.0
C      1  0.4003000000000  0.4548330000000  0.5237700000000 1.0
C      1  0.5490820000000  0.4924430000000  0.6054460000000 1.0
C      1  0.5965050000000  0.3934760000000  0.5034280000000 1.0
C      1  0.5820180000000  0.5605560000000  0.4897490000000 1.0
C      1  0.4462000000000  0.4300910000000  0.6062580000000 1.0
C      1  0.5587110000000  0.4770800000000  0.4211130000000 1.0
C      1  0.5623170000000  0.4907190000000  0.4648920000000 1.0
C      1  0.4856920000000  0.4617710000000  0.5750620000000 1.0
C      1  0.5857490000000  0.3804600000000  0.4813500000000 1.0
C      1  0.5987030000000  0.4197890000000  0.5140220000000 1.0
C      1  0.4641980000000  0.5958230000000  0.4097190000000 1.0
C      1  0.5824540000000  0.4246350000000  0.5376100000000 1.0
C      1  0.5626260000000  0.4938780000000  0.5441460000000 1.0
C      1  0.4899950000000  0.4748000000000  0.4589750000000 1.0
C      1  0.4932940000000  0.4485890000000  0.6203120000000 1.0
C      1  0.4972640000000  0.5829750000000  0.4452990000000 1.0
C      1  0.4717420000000  0.4613110000000  0.5304390000000 1.0
C      1  0.5336380000000  0.5900160000000  0.6034230000000 1.0
C      1  0.4810620000000  0.5344560000000  0.5052000000000 1.0
C      1  0.5852460000000  0.3524000000000  0.4739740000000 1.0
C      1  0.4069210000000  0.5393200000000  0.4418490000000 1.0
C      1  0.6075190000000  0.4444930000000  0.4682710000000 1.0
C      1  0.5650870000000  0.4699710000000  0.5988940000000 1.0
C      1  0.4440420000000  0.5073350000000  0.5152620000000 1.0
C      1  0.4932970000000  0.4238650000000  0.4973850000000 1.0
C      1  0.4766570000000  0.5222600000000  0.4576030000000 1.0
C      1  0.4684130000000  0.4348020000000  0.6242360000000 1.0
C      1  0.5508650000000  0.4555040000000  0.4928970000000 1.0
C      1  0.5321370000000  0.4066540000000  0.5289250000000 1.0
C      1  0.5194640000000  0.5895660000000  0.4262430000000 1.0
C      1  0.5204200000000  0.4372470000000  0.4598850000000 1.0
C      1  0.4150320000000  0.5520860000000  0.5371510000000 1.0
C      1  0.4059050000000  0.4939340000000  0.4053630000000 1.0
C      1  0.5256820000000  0.5837890000000  0.5327510000000 1.0
C      1  0.5001560000000  0.6208550000000  0.3913360000000 1.0
C      1  0.4682480000000  0.4565470000000  0.4618330000000 1.0
C      1  0.5467440000000  0.5592380000000  0.4500950000000 1.0
C      1  0.4120370000000  0.4996220000000  0.4699510000000 1.0
C      1  0.5151620000000  0.4856530000000  0.5499960000000 1.0
C      1  0.4516320000000  0.4099870000000  0.4087610000000 1.0
C      1  0.5097490000000  0.4097380000000  0.5149750000000 1.0
C      1  0.3980800000000  0.4470820000000  0.3906420000000 1.0
C      1  0.4974590000000  0.5317480000000  0.4420690000000 1.0
C      1  0.3854540000000  0.5348770000000  0.4936710000000 1.0
C      1  0.4983880000000  0.4449270000000  0.5927370000000 1.0
C      1  0.4232400000000  0.4455590000000  0.6122190000000 1.0
C      1  0.5518020000000  0.5310000000000  0.4418700000000 1.0
C      1  0.5367080000000  0.5408750000000  0.4951860000000 1.0
C      1  0.4328010000000  0.4664080000000  0.4934830000000 1.0
C      1  0.5458480000000  0.4344950000000  0.4730320000000 1.0
C      1  0.4963420000000  0.4942530000000  0.4045720000000 1.0
C      1  0.4379140000000  0.5385000000000  0.5830400000000 1.0
C      1  0.4224170000000  0.5656190000000  0.4419070000000 1.0
C      1  0.5693790000000  0.5181050000000  0.4621690000000 1.0
C      1  0.5670410000000  0.4223810000000  0.4584450000000 1.0
C      1  0.5281890000000  0.4678420000000  0.5051120000000 1.0
C      1  0.5185150000000  0.6115430000000  0.4086580000000 1.0
C      1  0.4999130000000  0.5959580000000  0.5332820000000 1.0
C      1  0.4131970000000  0.4651000000000  0.4047550000000 1.0
C      1  0.4815920000000  0.5251360000000  0.6022320000000 1.0
C      1  0.4518580000000  0.4309160000000  0.4263770000000 1.0
C      1  0.4754420000000  0.4447030000000  0.5062820000000 1.0
C      1  0.5511440000000  0.5010770000000  0.4055010000000 1.0
C      1  0.5333880000000  0.5639630000000  0.6029030000000 1.0
C      1  0.5840600000000  0.4806290000000  0.5320750000000 1.0
C      1  0.5874200000000  0.4391340000000  0.5615540000000 1.0
C      1  0.4569410000000  0.4551940000000  0.4874750000000 1.0
C      1  0.6023840000000  0.5277820000000  0.5310210000000 1.0
C      1  0.4611850000000  0.5978960000000  0.5052000000000 1.0
C      1  0.4454190000000  0.5838740000000  0.4523890000000 1.0
C      1  0.4978180000000  0.6315790000000  0.4981320000000 1.0
C      1  0.5798260000000  0.4578780000000  0.4261140000000 1.0
C      1  0.5672060000000  0.5886180000000  0.3307350000000 1.0
C      1  0.4191190000000  0.4624680000000  0.5441050000000 1.0
C      1  0.4455600000000  0.4503490000000  0.5436860000000 1.0
C      1  0.5253500000000  0.5558020000000  0.5396340000000 1.0
C      1  0.4561550000000  0.5806510000000  0.5288560000000 1.0
C      1  0.4834890000000  0.5577160000000  0.5639620000000 1.0
C      1  0.5888110000000  0.4881530000000  0.5053630000000 1.0
C      1  0.5788970000000  0.5269960000000  0.5794200000000 1.0
C      1  0.5709090000000  0.4755830000000  0.4868960000000 1.0
C      1  0.5167690000000  0.4651740000000  0.4519720000000 1.0
C      1  0.5221770000000  0.5219230000000  0.4345670000000 1.0
C      1  0.4424520000000  0.5562340000000  0.5283390000000 1.0
C      1  0.4485710000000  0.4817770000000  0.4290890000000 1.0
C      1  0.5327120000000  0.5362170000000  0.6015130000000 1.0
C      1  0.4171250000000  0.5470810000000  0.5651580000000 1.0
C      1  0.5642820000000  0.5775720000000  0.3541670000000 1.0
C      1  0.4787030000000  0.5808950000000  0.5475040000000 1.0
C      1  0.4539940000000  0.5367150000000  0.4639150000000 1.0
C      1  0.3929540000000  0.4755750000000  0.4756870000000 1.0
C      1  0.5213170000000  0.4932190000000  0.6164310000000 1.0
C      1  0.5311850000000  0.5138970000000  0.4895070000000 1.0
C      1  0.3969780000000  0.5263540000000  0.4683020000000 1.0
C      1  0.5071790000000  0.4718350000000  0.6292750000000 1.0
C      1  0.5428160000000  0.4784580000000  0.4465090000000 1.0
C      1  0.4507180000000  0.4094770000000  0.4739720000000 1.0
C      1  0.5321200000000  0.5607490000000  0.4741900000000 1.0
C      1  0.4448830000000  0.4030430000000  0.5000990000000 1.0
C      1  0.4463510000000  0.4222230000000  0.5510300000000 1.0
C      1  0.5052640000000  0.5410090000000  0.5537130000000 1.0
C      1  0.5952480000000  0.5303290000000  0.5575620000000 1.0
C      1  0.5715020000000  0.3947540000000  0.4592960000000 1.0
C      1  0.4629900000000  0.5024780000000  0.5987170000000 1.0
C      1  0.4447510000000  0.4053140000000  0.5275210000000 1.0
C      1  0.5495400000000  0.5911370000000  0.5184420000000 1.0
C      1  0.4182370000000  0.5642900000000  0.4926050000000 1.0
C      1  0.4686360000000  0.4274810000000  0.4536460000000 1.0
C      1  0.4476640000000  0.4182610000000  0.5796670000000 1.0
C      1  0.5422920000000  0.5723620000000  0.4250450000000 1.0
C      1  0.5637050000000  0.3739790000000  0.4405230000000 1.0
C      1  0.4674770000000  0.5461500000000  0.5851290000000 1.0
C      1  0.5561870000000  0.5198240000000  0.5352000000000 1.0
C      1  0.4831710000000  0.4990470000000  0.4721100000000 1.0
C      1  0.4745850000000  0.6122750000000  0.3912080000000 1.0
C      1  0.5168030000000  0.4935880000000  0.5025840000000 1.0
C      1  0.6093390000000  0.4381330000000  0.4948150000000 1.0
C      1  0.4744900000000  0.5026260000000  0.5526120000000 1.0
C      1  0.4292510000000  0.4979150000000  0.4436390000000 1.0
C      1  0.5848410000000  0.5324920000000  0.4832060000000 1.0
C      1  0.4355030000000  0.5115860000000  0.5949100000000 1.0
C      1  0.4970800000000  0.4220290000000  0.4677040000000 1.0
C      1  0.5415920000000  0.4801380000000  0.5550990000000 1.0
C      1  0.4129550000000  0.5146090000000  0.4247630000000 1.0
C      1  0.5568420000000  0.4125040000000  0.5366620000000 1.0
C      1  0.4049680000000  0.4583000000000  0.4961130000000 1.0
C      1  0.4873400000000  0.6100660000000  0.5110990000000 1.0
C      1  0.5562230000000  0.5195520000000  0.5955140000000 1.0
C      1  0.4168790000000  0.4906530000000  0.5897710000000 1.0
C      1  0.5699940000000  0.5807840000000  0.5035760000000 1.0
C      1  0.4373190000000  0.4564340000000  0.4200470000000 1.0
C      1  0.5217290000000  0.5049920000000  0.4104880000000 1.0
C      1  0.4713720000000  0.4903700000000  0.4141710000000 1.0
C      1  0.4377830000000  0.5507800000000  0.4796600000000 1.0
C      1  0.4131720000000  0.4702220000000  0.6089270000000 1.0
C      1  0.5620030000000  0.5290710000000  0.4123700000000 1.0
C      1  0.4681820000000  0.4913060000000  0.5243770000000 1.0
C      1  0.4707910000000  0.4862030000000  0.5770240000000 1.0
C      1  0.4490900000000  0.5959860000000  0.4790810000000 1.0
C      1  0.4547540000000  0.5339140000000  0.5170460000000 1.0
END
