TITL C-599892-9790-260 2.79942239738612 125000 -796.571912068691 0 0 132 (C1) n - 1
REM
REM in /home/nfs/bkarasulu/CARBON/AIRSS/Generating-Clusters/TERSOFF/Only-C1/FIRE-HFTN
REM
REM
REM
REM
REM
REM ./C.cell (11c1c37f851c82e70ff6c80c92926a4b)
REM AIRSS Version 0.9.1 bugfix July 2018 build 013d7b7c2542+ Fri, 06 Jul 2018 19:26:36 +0100
REM compiler GCC version 9.2.1 20190827 (Red Hat 9.2.1-1)
REM options -cpp -mtune=generic -march=x86-64 -g -O0 -fpre-include=/usr/include/finclude/math-vector-fortran.h
REM seed 1628518683 1598470409 1879705166 1146781084 -804895633 1881018505 1274041461 -784718356 1212469109 1724880248 1474673473 -956543145 349792240 -1004535582 -1594120983 -1342532815 663575624 172494416 528254970 -43475536 1394609938 1570327365 482578574 952892036 -1609621071 -1740698229 1570885824 1595970304 231264166 -1584392422 -1226067908 -22697065 -92244003
REM
CELL 1.54180   50.00000   50.00000   50.00000   90.00000   90.00000   90.00000
LATT -1
SFAC C  
C      1  0.5281100000000  0.5721870000000  0.5648500000000 1.0
C      1  0.6404170000000  0.5727640000000  0.5578660000000 1.0
C      1  0.5933400000000  0.5539590000000  0.5071820000000 1.0
C      1  0.5239700000000  0.5374080000000  0.4060590000000 1.0
C      1  0.5356590000000  0.4774740000000  0.4888250000000 1.0
C      1  0.4579820000000  0.4135780000000  0.4239160000000 1.0
C      1  0.4424950000000  0.4976550000000  0.5817540000000 1.0
C      1  0.4628950000000  0.5833500000000  0.5956820000000 1.0
C      1  0.4206750000000  0.5833850000000  0.5109480000000 1.0
C      1  0.5445380000000  0.6027370000000  0.4773330000000 1.0
C      1  0.5003790000000  0.6000430000000  0.5355350000000 1.0
C      1  0.5708820000000  0.4995190000000  0.4240780000000 1.0
C      1  0.5487240000000  0.5833110000000  0.5491260000000 1.0
C      1  0.4863760000000  0.5959370000000  0.4630220000000 1.0
C      1  0.5654400000000  0.4403220000000  0.4648410000000 1.0
C      1  0.5388020000000  0.5247920000000  0.5914050000000 1.0
C      1  0.5565340000000  0.4761890000000  0.4298180000000 1.0
C      1  0.5871680000000  0.4524900000000  0.4775450000000 1.0
C      1  0.4227280000000  0.5377530000000  0.5650040000000 1.0
C      1  0.5336800000000  0.5112580000000  0.4130190000000 1.0
C      1  0.5300830000000  0.5064640000000  0.4867970000000 1.0
C      1  0.5643700000000  0.4187590000000  0.6250720000000 1.0
C      1  0.4496440000000  0.5113490000000  0.5241520000000 1.0
C      1  0.4630590000000  0.4953540000000  0.5055970000000 1.0
C      1  0.5868900000000  0.5163600000000  0.4394360000000 1.0
C      1  0.5384050000000  0.6052340000000  0.5051380000000 1.0
C      1  0.5550150000000  0.5065720000000  0.5461880000000 1.0
C      1  0.5364940000000  0.4716560000000  0.5818960000000 1.0
C      1  0.4766360000000  0.4434400000000  0.5039870000000 1.0
C      1  0.4773760000000  0.6366570000000  0.4874860000000 1.0
C      1  0.5683230000000  0.4431960000000  0.5554420000000 1.0
C      1  0.4562320000000  0.4819790000000  0.4819410000000 1.0
C      1  0.4691010000000  0.5625580000000  0.5071100000000 1.0
C      1  0.4284200000000  0.5154370000000  0.3871710000000 1.0
C      1  0.5078460000000  0.5082860000000  0.5072130000000 1.0
C      1  0.5433130000000  0.5253210000000  0.5286900000000 1.0
C      1  0.4279670000000  0.4176490000000  0.5304990000000 1.0
C      1  0.5234660000000  0.4305780000000  0.5418990000000 1.0
C      1  0.4913740000000  0.4607350000000  0.5210580000000 1.0
C      1  0.5449750000000  0.4699410000000  0.5132860000000 1.0
C      1  0.4002170000000  0.4490390000000  0.4277760000000 1.0
C      1  0.5751970000000  0.5374200000000  0.4570010000000 1.0
C      1  0.5328090000000  0.5493850000000  0.5815130000000 1.0
C      1  0.5816890000000  0.4670990000000  0.5453520000000 1.0
C      1  0.3970810000000  0.5944570000000  0.5114100000000 1.0
C      1  0.5565640000000  0.4176400000000  0.5089590000000 1.0
C      1  0.4766030000000  0.5469150000000  0.4530750000000 1.0
C      1  0.4375270000000  0.4696200000000  0.4048340000000 1.0
C      1  0.5386660000000  0.5604960000000  0.4153110000000 1.0
C      1  0.4488090000000  0.5408700000000  0.4466200000000 1.0
C      1  0.4444350000000  0.5716570000000  0.5105580000000 1.0
C      1  0.5874960000000  0.4735150000000  0.4939060000000 1.0
C      1  0.4385370000000  0.5163900000000  0.4558330000000 1.0
C      1  0.5404640000000  0.5650170000000  0.4430270000000 1.0
C      1  0.5589030000000  0.4810250000000  0.5351820000000 1.0
C      1  0.5687530000000  0.4041300000000  0.6462000000000 1.0
C      1  0.5063500000000  0.3809710000000  0.4794150000000 1.0
C      1  0.5066670000000  0.4531520000000  0.5441880000000 1.0
C      1  0.4893740000000  0.4879890000000  0.5125630000000 1.0
C      1  0.4583480000000  0.4960540000000  0.4582560000000 1.0
C      1  0.4651490000000  0.4756050000000  0.4035710000000 1.0
C      1  0.3526570000000  0.3952310000000  0.6256970000000 1.0
C      1  0.4257910000000  0.4120780000000  0.5028680000000 1.0
C      1  0.5116170000000  0.4458230000000  0.4501960000000 1.0
C      1  0.5561900000000  0.5908790000000  0.5230380000000 1.0
C      1  0.4273050000000  0.4507000000000  0.4236740000000 1.0
C      1  0.4087510000000  0.5286030000000  0.5432770000000 1.0
C      1  0.5727860000000  0.3952920000000  0.5074880000000 1.0
C      1  0.6036780000000  0.5153070000000  0.4826550000000 1.0
C      1  0.5138740000000  0.5245820000000  0.5300720000000 1.0
C      1  0.5176510000000  0.4284080000000  0.4742890000000 1.0
C      1  0.4847830000000  0.4974590000000  0.4430050000000 1.0
C      1  0.4219780000000  0.4895440000000  0.3918670000000 1.0
C      1  0.6088950000000  0.5067440000000  0.4557180000000 1.0
C      1  0.6079740000000  0.5121210000000  0.5373610000000 1.0
C      1  0.5787090000000  0.5773520000000  0.5126710000000 1.0
C      1  0.5459730000000  0.4279160000000  0.4832560000000 1.0
C      1  0.4814500000000  0.5826840000000  0.5773950000000 1.0
C      1  0.5549440000000  0.4491610000000  0.5809950000000 1.0
C      1  0.5026500000000  0.5845880000000  0.5594510000000 1.0
C      1  0.5322240000000  0.4363730000000  0.4313990000000 1.0
C      1  0.6035380000000  0.4860000000000  0.5451280000000 1.0
C      1  0.4157550000000  0.4351720000000  0.5489960000000 1.0
C      1  0.5420910000000  0.4977610000000  0.5931110000000 1.0
C      1  0.4311560000000  0.4758100000000  0.5706590000000 1.0
C      1  0.4482580000000  0.4339440000000  0.4661710000000 1.0
C      1  0.4110450000000  0.4810940000000  0.5261170000000 1.0
C      1  0.5472600000000  0.5400110000000  0.4553290000000 1.0
C      1  0.4751150000000  0.5247820000000  0.4005820000000 1.0
C      1  0.3993770000000  0.4242610000000  0.5689050000000 1.0
C      1  0.4488920000000  0.4115930000000  0.4858640000000 1.0
C      1  0.4895160000000  0.5701130000000  0.4160950000000 1.0
C      1  0.3837200000000  0.4144910000000  0.5879040000000 1.0
C      1  0.4966780000000  0.5245590000000  0.4538290000000 1.0
C      1  0.5570990000000  0.4488930000000  0.4384400000000 1.0
C      1  0.4188810000000  0.4635990000000  0.5480010000000 1.0
C      1  0.6252680000000  0.5567790000000  0.5439350000000 1.0
C      1  0.5820770000000  0.5010310000000  0.4960050000000 1.0
C      1  0.5002760000000  0.4072740000000  0.4836570000000 1.0
C      1  0.4018810000000  0.4229100000000  0.4919050000000 1.0
C      1  0.4959460000000  0.5443940000000  0.4032990000000 1.0
C      1  0.5154550000000  0.5662830000000  0.4835770000000 1.0
C      1  0.5095800000000  0.6077730000000  0.5096880000000 1.0
C      1  0.4988230000000  0.4962320000000  0.5661080000000 1.0
C      1  0.5921090000000  0.5419670000000  0.4811780000000 1.0
C      1  0.4598240000000  0.4547360000000  0.4823590000000 1.0
C      1  0.4211100000000  0.5081190000000  0.5277500000000 1.0
C      1  0.5554450000000  0.5166890000000  0.5022430000000 1.0
C      1  0.6080890000000  0.5400950000000  0.5289680000000 1.0
C      1  0.4645030000000  0.5225000000000  0.5470120000000 1.0
C      1  0.4779780000000  0.4990070000000  0.4131590000000 1.0
C      1  0.4844110000000  0.5738190000000  0.4444690000000 1.0
C      1  0.4941850000000  0.5602320000000  0.4985660000000 1.0
C      1  0.5123980000000  0.4715650000000  0.5656960000000 1.0
C      1  0.3984470000000  0.4742390000000  0.5012040000000 1.0
C      1  0.3918780000000  0.4477770000000  0.4943560000000 1.0
C      1  0.4930890000000  0.5190190000000  0.5502020000000 1.0
C      1  0.5288410000000  0.4865210000000  0.4261070000000 1.0
C      1  0.5247510000000  0.5234680000000  0.4632550000000 1.0
C      1  0.4127680000000  0.5103290000000  0.4651170000000 1.0
C      1  0.3680600000000  0.4047810000000  0.6069570000000 1.0
C      1  0.4469700000000  0.5234100000000  0.5703330000000 1.0
C      1  0.4914290000000  0.6127870000000  0.4866160000000 1.0
C      1  0.3985540000000  0.4940320000000  0.4809390000000 1.0
C      1  0.5598940000000  0.4336120000000  0.6035980000000 1.0
C      1  0.4394060000000  0.5487170000000  0.4209060000000 1.0
C      1  0.4445800000000  0.4329030000000  0.4381570000000 1.0
C      1  0.5512780000000  0.4281590000000  0.5357430000000 1.0
C      1  0.5067710000000  0.4748400000000  0.4426520000000 1.0
C      1  0.4473660000000  0.5332340000000  0.3983850000000 1.0
C      1  0.4765020000000  0.4151300000000  0.4970270000000 1.0
C      1  0.5323700000000  0.5806310000000  0.4649570000000 1.0
END
