TITL C-599891-72-505 0.823152938787476 125000 -416.877571123295 0 0 70 (C1) n - 1
REM
REM in /home/nfs/bkarasulu/CARBON/AIRSS/Generating-Clusters/TERSOFF/Only-C1/FIRE-HFTN
REM
REM
REM
REM
REM
REM ./C.cell (11c1c37f851c82e70ff6c80c92926a4b)
REM AIRSS Version 0.9.1 bugfix July 2018 build 013d7b7c2542+ Fri, 06 Jul 2018 19:26:36 +0100
REM compiler GCC version 9.2.1 20190827 (Red Hat 9.2.1-1)
REM options -cpp -mtune=generic -march=x86-64 -g -O0 -fpre-include=/usr/include/finclude/math-vector-fortran.h
REM seed -1477812191 1561030600 296905921 790304598 -348496097 -1524866649 6604399 -2100490302 -2055547572 -383639655 1060896926 -598068019 -333011555 -1484659567 -1342613232 909180241 960601853 336284475 -374646954 244708487 236652018 -1903195104 -2028256568 -547254490 1579746990 -2107677726 591853333 -79398779 -1008174130 -1609501125 492209577 -477088874 1584765880
REM
CELL 1.54180   50.00000   50.00000   50.00000   90.00000   90.00000   90.00000
LATT -1
SFAC C  
C      1  0.4047470000000  0.4823770000000  0.3939640000000 1.0
C      1  0.5738000000000  0.5176150000000  0.5758870000000 1.0
C      1  0.5595560000000  0.4841910000000  0.4717510000000 1.0
C      1  0.4855690000000  0.4719230000000  0.4634620000000 1.0
C      1  0.4380330000000  0.4672210000000  0.4566480000000 1.0
C      1  0.6396500000000  0.4924790000000  0.4944110000000 1.0
C      1  0.5509710000000  0.4339140000000  0.5469000000000 1.0
C      1  0.4977500000000  0.5836140000000  0.5247360000000 1.0
C      1  0.4274470000000  0.4898510000000  0.4427980000000 1.0
C      1  0.4850870000000  0.5756740000000  0.4485930000000 1.0
C      1  0.5718460000000  0.4778990000000  0.5173430000000 1.0
C      1  0.4796230000000  0.4971860000000  0.4751180000000 1.0
C      1  0.5024150000000  0.5109150000000  0.5403360000000 1.0
C      1  0.4611860000000  0.4851470000000  0.5280310000000 1.0
C      1  0.4315230000000  0.5341330000000  0.4752860000000 1.0
C      1  0.4644650000000  0.4580560000000  0.4508010000000 1.0
C      1  0.5241990000000  0.4422730000000  0.4783410000000 1.0
C      1  0.5471540000000  0.5299480000000  0.4784690000000 1.0
C      1  0.4153730000000  0.4864900000000  0.4178740000000 1.0
C      1  0.4780060000000  0.3969510000000  0.4003630000000 1.0
C      1  0.5637840000000  0.4658360000000  0.4929500000000 1.0
C      1  0.5320990000000  0.5743800000000  0.4707900000000 1.0
C      1  0.4203510000000  0.5266820000000  0.4999940000000 1.0
C      1  0.4683320000000  0.4882560000000  0.5754650000000 1.0
C      1  0.4688770000000  0.4367980000000  0.4334010000000 1.0
C      1  0.5703540000000  0.5355070000000  0.5563160000000 1.0
C      1  0.4582280000000  0.5673810000000  0.4490740000000 1.0
C      1  0.5270960000000  0.4941040000000  0.5373150000000 1.0
C      1  0.5234170000000  0.5139370000000  0.4732730000000 1.0
C      1  0.3733480000000  0.4696720000000  0.3225100000000 1.0
C      1  0.5726310000000  0.4871980000000  0.6421000000000 1.0
C      1  0.4256670000000  0.4578720000000  0.4800420000000 1.0
C      1  0.5075970000000  0.5324650000000  0.5602750000000 1.0
C      1  0.4958640000000  0.5189300000000  0.6048690000000 1.0
C      1  0.5689950000000  0.5116500000000  0.4743700000000 1.0
C      1  0.4734610000000  0.4167040000000  0.4167570000000 1.0
C      1  0.5746840000000  0.4897150000000  0.6162430000000 1.0
C      1  0.5476760000000  0.4281540000000  0.5204340000000 1.0
C      1  0.4786180000000  0.4937140000000  0.5489150000000 1.0
C      1  0.5620510000000  0.5490720000000  0.5348310000000 1.0
C      1  0.5760400000000  0.4924090000000  0.5885890000000 1.0
C      1  0.4475820000000  0.5576210000000  0.4737000000000 1.0
C      1  0.4247140000000  0.4742040000000  0.5551430000000 1.0
C      1  0.6020660000000  0.4707280000000  0.5539700000000 1.0
C      1  0.5313170000000  0.4871350000000  0.4642730000000 1.0
C      1  0.4237090000000  0.4614870000000  0.5064540000000 1.0
C      1  0.4308870000000  0.4817610000000  0.5266890000000 1.0
C      1  0.5508220000000  0.4797800000000  0.5371070000000 1.0
C      1  0.4422380000000  0.4770190000000  0.5757070000000 1.0
C      1  0.5236620000000  0.5774890000000  0.5259010000000 1.0
C      1  0.5990000000000  0.4781310000000  0.5266100000000 1.0
C      1  0.5467580000000  0.4422940000000  0.4957170000000 1.0
C      1  0.5446010000000  0.5560970000000  0.4882560000000 1.0
C      1  0.4965780000000  0.5223660000000  0.5131320000000 1.0
C      1  0.5449610000000  0.5616520000000  0.5163810000000 1.0
C      1  0.5072490000000  0.5355300000000  0.5869640000000 1.0
C      1  0.4191980000000  0.5080430000000  0.5190240000000 1.0
C      1  0.3942240000000  0.4781210000000  0.3700200000000 1.0
C      1  0.4982400000000  0.5152520000000  0.4860870000000 1.0
C      1  0.5131870000000  0.4649830000000  0.4653720000000 1.0
C      1  0.4293160000000  0.5154300000000  0.4543890000000 1.0
C      1  0.4425840000000  0.5694350000000  0.4267420000000 1.0
C      1  0.6204410000000  0.4853220000000  0.5105010000000 1.0
C      1  0.5794850000000  0.4697370000000  0.5714920000000 1.0
C      1  0.4556480000000  0.5707360000000  0.4972510000000 1.0
C      1  0.4733450000000  0.5804710000000  0.5145720000000 1.0
C      1  0.5101920000000  0.5795820000000  0.4565010000000 1.0
C      1  0.4804610000000  0.4977340000000  0.5988540000000 1.0
C      1  0.3836990000000  0.4738620000000  0.3460680000000 1.0
C      1  0.5562660000000  0.4597060000000  0.5574960000000 1.0
END
