TITL C-599897-7526-1274 0.00254789710745958 125000 -224.206342539453 0 0 38 (C1) n - 1
REM
REM in /home/nfs/bkarasulu/CARBON/AIRSS/Generating-Clusters/TERSOFF/Only-C1/FIRE-HFTN
REM
REM
REM
REM
REM
REM ./C.cell (11c1c37f851c82e70ff6c80c92926a4b)
REM AIRSS Version 0.9.1 bugfix July 2018 build 013d7b7c2542+ Fri, 06 Jul 2018 19:26:36 +0100
REM compiler GCC version 9.2.1 20190827 (Red Hat 9.2.1-1)
REM options -cpp -mtune=generic -march=x86-64 -g -O0 -fpre-include=/usr/include/finclude/math-vector-fortran.h
REM seed -612460775 -1403253413 13980991 -1173245718 1624117296 1493617678 143313498 -748647888 -70629390 -1237609964 -1095477096 -865754867 934034679 1233473732 -581755069 1198406262 -2131525128 -776008949 1908506985 -1991503764 893219029 -597712468 -1651604930 1578740093 -311473509 -1067206214 1553653105 -833840240 1363701997 -429656230 -607419750 -369887254 -781453333
REM
CELL 1.54180   50.00000   50.00000   50.00000   90.00000   90.00000   90.00000
LATT -1
SFAC C  
C      1  0.5454560000000  0.5854790000000  0.5286950000000 1.0
C      1  0.4784720000000  0.5568930000000  0.5093810000000 1.0
C      1  0.4400840000000  0.5079800000000  0.4544420000000 1.0
C      1  0.4485250000000  0.4980670000000  0.4797210000000 1.0
C      1  0.5425660000000  0.5402860000000  0.5099440000000 1.0
C      1  0.5303860000000  0.5646390000000  0.5180390000000 1.0
C      1  0.5492870000000  0.5363260000000  0.4824110000000 1.0
C      1  0.4974950000000  0.5055630000000  0.5472800000000 1.0
C      1  0.4447790000000  0.4519850000000  0.4067730000000 1.0
C      1  0.6059680000000  0.5817960000000  0.4482590000000 1.0
C      1  0.5026100000000  0.5666280000000  0.5147530000000 1.0
C      1  0.4369160000000  0.4561600000000  0.5361160000000 1.0
C      1  0.5388120000000  0.4389140000000  0.5284990000000 1.0
C      1  0.5175960000000  0.4971730000000  0.4781520000000 1.0
C      1  0.5690140000000  0.5511380000000  0.4696400000000 1.0
C      1  0.5876560000000  0.5665010000000  0.4587630000000 1.0
C      1  0.5086420000000  0.4876860000000  0.5030640000000 1.0
C      1  0.4460730000000  0.4668490000000  0.4294810000000 1.0
C      1  0.4320860000000  0.5041750000000  0.5249090000000 1.0
C      1  0.5399960000000  0.5170170000000  0.5261780000000 1.0
C      1  0.4977690000000  0.4616440000000  0.5063600000000 1.0
C      1  0.4550650000000  0.4570260000000  0.4545180000000 1.0
C      1  0.4586990000000  0.3882170000000  0.5204030000000 1.0
C      1  0.4281440000000  0.4813390000000  0.5382060000000 1.0
C      1  0.4702200000000  0.4573820000000  0.5013340000000 1.0
C      1  0.4578480000000  0.4705380000000  0.4794140000000 1.0
C      1  0.5597230000000  0.4524890000000  0.5381730000000 1.0
C      1  0.4463400000000  0.5142630000000  0.5029460000000 1.0
C      1  0.5603290000000  0.6047130000000  0.5380760000000 1.0
C      1  0.5344890000000  0.5161270000000  0.4694930000000 1.0
C      1  0.4561350000000  0.4141500000000  0.5201300000000 1.0
C      1  0.5146000000000  0.5036510000000  0.5260540000000 1.0
C      1  0.5687790000000  0.4774410000000  0.5415260000000 1.0
C      1  0.4544650000000  0.4419250000000  0.5194420000000 1.0
C      1  0.4386170000000  0.4941540000000  0.4311730000000 1.0
C      1  0.5151530000000  0.4420280000000  0.5164460000000 1.0
C      1  0.4596080000000  0.5388010000000  0.5046830000000 1.0
C      1  0.5615960000000  0.5028550000000  0.5371250000000 1.0
END
