TITL C-599891-72-36 0.0549499584819387 125000 -476.61267767452 0 0 79 (C1) n - 1
REM
REM in /home/nfs/bkarasulu/CARBON/AIRSS/Generating-Clusters/TERSOFF/Only-C1/FIRE-HFTN
REM
REM
REM
REM
REM
REM ./C.cell (11c1c37f851c82e70ff6c80c92926a4b)
REM AIRSS Version 0.9.1 bugfix July 2018 build 013d7b7c2542+ Fri, 06 Jul 2018 19:26:36 +0100
REM compiler GCC version 9.2.1 20190827 (Red Hat 9.2.1-1)
REM options -cpp -mtune=generic -march=x86-64 -g -O0 -fpre-include=/usr/include/finclude/math-vector-fortran.h
REM seed -368236530 359731240 1623753224 -449398751 -939578740 -1934361198 -533938960 1861981114 -959344116 -602167699 -1709517647 -919871092 -1634319411 1486127011 898458268 -1771006717 -1111344143 179114249 527085731 -1785643414 -1598610423 -266776543 -1040206780 1014762483 259817619 596695974 941637751 668927677 1976555469 -1547518700 -866496565 883256626 2109040486
REM
CELL 1.54180   50.00000   50.00000   50.00000   90.00000   90.00000   90.00000
LATT -1
SFAC C  
C      1  0.4918290000000  0.5677080000000  0.4957520000000 1.0
C      1  0.4830360000000  0.5173280000000  0.4510700000000 1.0
C      1  0.4256210000000  0.5327280000000  0.4995140000000 1.0
C      1  0.4657940000000  0.5270280000000  0.5375150000000 1.0
C      1  0.6101910000000  0.5662160000000  0.4742350000000 1.0
C      1  0.5094320000000  0.5559170000000  0.5132470000000 1.0
C      1  0.5195340000000  0.4970900000000  0.4794940000000 1.0
C      1  0.4323350000000  0.5103960000000  0.4568230000000 1.0
C      1  0.4926050000000  0.4581100000000  0.4984590000000 1.0
C      1  0.5536090000000  0.5483780000000  0.4502970000000 1.0
C      1  0.5572090000000  0.4883570000000  0.5498910000000 1.0
C      1  0.4335420000000  0.4974340000000  0.5269510000000 1.0
C      1  0.4589910000000  0.5015340000000  0.4537410000000 1.0
C      1  0.4214380000000  0.4859220000000  0.5493440000000 1.0
C      1  0.4853680000000  0.4316710000000  0.5049080000000 1.0
C      1  0.5677490000000  0.4647410000000  0.5392570000000 1.0
C      1  0.4748670000000  0.5705000000000  0.5944960000000 1.0
C      1  0.5220360000000  0.5057140000000  0.4059340000000 1.0
C      1  0.4555840000000  0.3958050000000  0.5059840000000 1.0
C      1  0.4388300000000  0.5260930000000  0.5244540000000 1.0
C      1  0.5459660000000  0.5743420000000  0.4583620000000 1.0
C      1  0.4322670000000  0.5613550000000  0.4602100000000 1.0
C      1  0.4818500000000  0.4830570000000  0.5582840000000 1.0
C      1  0.4799720000000  0.5460820000000  0.4525500000000 1.0
C      1  0.4191950000000  0.4582620000000  0.5033690000000 1.0
C      1  0.5438560000000  0.5110930000000  0.5592820000000 1.0
C      1  0.4343570000000  0.4407960000000  0.5493000000000 1.0
C      1  0.4690540000000  0.5813720000000  0.5048330000000 1.0
C      1  0.5230960000000  0.4921260000000  0.4309450000000 1.0
C      1  0.5301870000000  0.5275210000000  0.5414500000000 1.0
C      1  0.5650860000000  0.5935340000000  0.4668290000000 1.0
C      1  0.6041600000000  0.5167560000000  0.4672800000000 1.0
C      1  0.4565600000000  0.4246490000000  0.5092860000000 1.0
C      1  0.4306760000000  0.4171260000000  0.5635640000000 1.0
C      1  0.5384390000000  0.5285240000000  0.4047420000000 1.0
C      1  0.4286040000000  0.5587540000000  0.4882140000000 1.0
C      1  0.4963160000000  0.5640260000000  0.4678100000000 1.0
C      1  0.4816770000000  0.3838890000000  0.5019690000000 1.0
C      1  0.4772500000000  0.4992810000000  0.5355340000000 1.0
C      1  0.4354990000000  0.4406370000000  0.5200470000000 1.0
C      1  0.5583170000000  0.6198810000000  0.4696120000000 1.0
C      1  0.4880450000000  0.3572520000000  0.4989420000000 1.0
C      1  0.5520610000000  0.5428960000000  0.4227060000000 1.0
C      1  0.5077070000000  0.5020550000000  0.4532980000000 1.0
C      1  0.5373200000000  0.5183340000000  0.4880200000000 1.0
C      1  0.4732660000000  0.5462740000000  0.5819200000000 1.0
C      1  0.4572020000000  0.4972490000000  0.5958130000000 1.0
C      1  0.5182300000000  0.5782360000000  0.4576740000000 1.0
C      1  0.4633330000000  0.5235080000000  0.5955800000000 1.0
C      1  0.5570230000000  0.5266580000000  0.4686780000000 1.0
C      1  0.5570540000000  0.4544510000000  0.5155760000000 1.0
C      1  0.6082990000000  0.4393660000000  0.5642500000000 1.0
C      1  0.4699180000000  0.4742330000000  0.4942660000000 1.0
C      1  0.5318980000000  0.5326460000000  0.5114280000000 1.0
C      1  0.5073890000000  0.5479260000000  0.5447720000000 1.0
C      1  0.4994210000000  0.4067540000000  0.5019290000000 1.0
C      1  0.4191040000000  0.5093680000000  0.4822700000000 1.0
C      1  0.5887220000000  0.4515980000000  0.5521540000000 1.0
C      1  0.5175120000000  0.4707380000000  0.4920840000000 1.0
C      1  0.4813640000000  0.5434520000000  0.5546730000000 1.0
C      1  0.5461590000000  0.4755460000000  0.4360180000000 1.0
C      1  0.4599260000000  0.4771910000000  0.5759470000000 1.0
C      1  0.5458230000000  0.4396660000000  0.4695350000000 1.0
C      1  0.5442330000000  0.4486850000000  0.4441770000000 1.0
C      1  0.5064850000000  0.4973310000000  0.3852160000000 1.0
C      1  0.4424320000000  0.5780690000000  0.5034980000000 1.0
C      1  0.4591110000000  0.4866800000000  0.5166830000000 1.0
C      1  0.4280080000000  0.3945390000000  0.5762830000000 1.0
C      1  0.4544730000000  0.5566320000000  0.4455600000000 1.0
C      1  0.4629140000000  0.4774550000000  0.4675310000000 1.0
C      1  0.4365870000000  0.4659630000000  0.5627670000000 1.0
C      1  0.4124150000000  0.4822610000000  0.4914900000000 1.0
C      1  0.5912900000000  0.5848960000000  0.4722300000000 1.0
C      1  0.6160420000000  0.5402120000000  0.4724110000000 1.0
C      1  0.5442220000000  0.5169820000000  0.5860140000000 1.0
C      1  0.4940670000000  0.3320590000000  0.4960780000000 1.0
C      1  0.5405760000000  0.4539600000000  0.4932240000000 1.0
C      1  0.5703020000000  0.4884980000000  0.4432990000000 1.0
C      1  0.5780830000000  0.5086490000000  0.4611690000000 1.0
END
