TITL C-599892-9790-577 -0.0176476397914102 125000 -869.851463672948 0 0 142 (C1) n - 1
REM
REM in /home/nfs/bkarasulu/CARBON/AIRSS/Generating-Clusters/TERSOFF/Only-C1/FIRE-HFTN
REM
REM
REM
REM
REM
REM ./C.cell (11c1c37f851c82e70ff6c80c92926a4b)
REM AIRSS Version 0.9.1 bugfix July 2018 build 013d7b7c2542+ Fri, 06 Jul 2018 19:26:36 +0100
REM compiler GCC version 9.2.1 20190827 (Red Hat 9.2.1-1)
REM options -cpp -mtune=generic -march=x86-64 -g -O0 -fpre-include=/usr/include/finclude/math-vector-fortran.h
REM seed -1114677631 890956579 424772862 -1421632623 -1484698838 -2043229871 1051390838 -1893603143 1611716055 -1117836593 -1641143957 -1533275171 1773837774 -846987016 -1744620538 757833078 1777327135 630667786 447167499 1567558321 289141498 -523702492 -676122269 -1271070754 672136226 1016283975 373139966 1089944075 52714929 1002538838 742591921 724548156 -1183678998
REM
CELL 1.54180   50.00000   50.00000   50.00000   90.00000   90.00000   90.00000
LATT -1
SFAC C  
C      1  0.5133620000000  0.4732340000000  0.4358340000000 1.0
C      1  0.5986590000000  0.5238140000000  0.4664150000000 1.0
C      1  0.4495260000000  0.5460210000000  0.5873480000000 1.0
C      1  0.5699080000000  0.5939720000000  0.5361510000000 1.0
C      1  0.5625870000000  0.5111410000000  0.4953790000000 1.0
C      1  0.4713150000000  0.4514800000000  0.6041620000000 1.0
C      1  0.5307540000000  0.4584510000000  0.5074640000000 1.0
C      1  0.4256780000000  0.5838380000000  0.5103110000000 1.0
C      1  0.5040460000000  0.4426470000000  0.5003240000000 1.0
C      1  0.5160040000000  0.4989440000000  0.4814450000000 1.0
C      1  0.4311190000000  0.4656560000000  0.5798350000000 1.0
C      1  0.5071700000000  0.4979640000000  0.5090720000000 1.0
C      1  0.4743640000000  0.4142480000000  0.4519310000000 1.0
C      1  0.4563480000000  0.5691860000000  0.4201520000000 1.0
C      1  0.5376640000000  0.5154060000000  0.4152460000000 1.0
C      1  0.5390470000000  0.4933690000000  0.3963840000000 1.0
C      1  0.5666550000000  0.4847690000000  0.4443060000000 1.0
C      1  0.4590580000000  0.5849010000000  0.4435090000000 1.0
C      1  0.4194790000000  0.5180900000000  0.4370880000000 1.0
C      1  0.5411030000000  0.5649680000000  0.5817180000000 1.0
C      1  0.6540100000000  0.5171400000000  0.5138830000000 1.0
C      1  0.4439200000000  0.3725560000000  0.4957020000000 1.0
C      1  0.5420070000000  0.4110560000000  0.5311830000000 1.0
C      1  0.5710210000000  0.4625550000000  0.4590440000000 1.0
C      1  0.4414900000000  0.5814780000000  0.4661640000000 1.0
C      1  0.5315450000000  0.4100920000000  0.5568660000000 1.0
C      1  0.5823380000000  0.5553750000000  0.4324940000000 1.0
C      1  0.5216280000000  0.5247650000000  0.4734930000000 1.0
C      1  0.4010490000000  0.5347920000000  0.5077660000000 1.0
C      1  0.5431650000000  0.5762880000000  0.5042400000000 1.0
C      1  0.4627720000000  0.5220970000000  0.4879460000000 1.0
C      1  0.4737350000000  0.4865210000000  0.5699920000000 1.0
C      1  0.4537960000000  0.4916150000000  0.4477290000000 1.0
C      1  0.4457200000000  0.4985840000000  0.5276860000000 1.0
C      1  0.4845410000000  0.4814520000000  0.5127560000000 1.0
C      1  0.5125260000000  0.4138750000000  0.5789640000000 1.0
C      1  0.5204880000000  0.4813060000000  0.4602300000000 1.0
C      1  0.5441450000000  0.4208760000000  0.4767400000000 1.0
C      1  0.4769520000000  0.5437800000000  0.4753970000000 1.0
C      1  0.4620030000000  0.4477170000000  0.5392240000000 1.0
C      1  0.6252760000000  0.5185100000000  0.4590240000000 1.0
C      1  0.4474590000000  0.5935160000000  0.4935600000000 1.0
C      1  0.4517080000000  0.4275020000000  0.4630540000000 1.0
C      1  0.4926430000000  0.4530050000000  0.4749950000000 1.0
C      1  0.4575380000000  0.3717710000000  0.4724520000000 1.0
C      1  0.4628320000000  0.4965120000000  0.4735810000000 1.0
C      1  0.4967020000000  0.5683410000000  0.5676570000000 1.0
C      1  0.4027570000000  0.5242940000000  0.5347870000000 1.0
C      1  0.5468320000000  0.5325150000000  0.4822510000000 1.0
C      1  0.4300880000000  0.4382110000000  0.5029510000000 1.0
C      1  0.5199710000000  0.6000580000000  0.5381930000000 1.0
C      1  0.5789340000000  0.4877890000000  0.5565560000000 1.0
C      1  0.5009640000000  0.4816660000000  0.5702090000000 1.0
C      1  0.4913520000000  0.5497030000000  0.5467680000000 1.0
C      1  0.5800430000000  0.5308990000000  0.4447700000000 1.0
C      1  0.4396750000000  0.4302690000000  0.5469820000000 1.0
C      1  0.5605830000000  0.5116830000000  0.4351490000000 1.0
C      1  0.5899980000000  0.5198540000000  0.4943360000000 1.0
C      1  0.4363780000000  0.4365280000000  0.5748720000000 1.0
C      1  0.4977620000000  0.4465590000000  0.6139740000000 1.0
C      1  0.4362990000000  0.5277270000000  0.4158870000000 1.0
C      1  0.4761750000000  0.4746180000000  0.4855240000000 1.0
C      1  0.5440730000000  0.4425540000000  0.4075020000000 1.0
C      1  0.4438100000000  0.5442900000000  0.5599200000000 1.0
C      1  0.4123830000000  0.5608110000000  0.4994170000000 1.0
C      1  0.5883360000000  0.5080170000000  0.5719730000000 1.0
C      1  0.5706800000000  0.5644290000000  0.5367920000000 1.0
C      1  0.4818250000000  0.4222010000000  0.5053440000000 1.0
C      1  0.5073060000000  0.5801460000000  0.4374290000000 1.0
C      1  0.5515700000000  0.5607150000000  0.4821210000000 1.0
C      1  0.6026600000000  0.5295060000000  0.5191170000000 1.0
C      1  0.5854870000000  0.5357660000000  0.5679060000000 1.0
C      1  0.5223210000000  0.5472120000000  0.5971690000000 1.0
C      1  0.5186680000000  0.5145780000000  0.5287730000000 1.0
C      1  0.3845780000000  0.4597540000000  0.5136890000000 1.0
C      1  0.4913120000000  0.3954970000000  0.5073170000000 1.0
C      1  0.4112960000000  0.5342530000000  0.4593240000000 1.0
C      1  0.5251240000000  0.5190950000000  0.5944170000000 1.0
C      1  0.4864040000000  0.5059760000000  0.3542550000000 1.0
C      1  0.4601890000000  0.5426690000000  0.4108360000000 1.0
C      1  0.4835000000000  0.5657330000000  0.4927290000000 1.0
C      1  0.5447970000000  0.5557920000000  0.5269090000000 1.0
C      1  0.4842260000000  0.4184440000000  0.5711710000000 1.0
C      1  0.5097580000000  0.5519780000000  0.4369580000000 1.0
C      1  0.5254210000000  0.4220320000000  0.4534680000000 1.0
C      1  0.4868480000000  0.4382060000000  0.5501310000000 1.0
C      1  0.4210590000000  0.5600270000000  0.4699620000000 1.0
C      1  0.4745350000000  0.5907390000000  0.5032080000000 1.0
C      1  0.4567560000000  0.5231210000000  0.5172210000000 1.0
C      1  0.4167980000000  0.4637420000000  0.4443330000000 1.0
C      1  0.3978580000000  0.5213410000000  0.4822260000000 1.0
C      1  0.4304140000000  0.4408700000000  0.4499500000000 1.0
C      1  0.5651980000000  0.4400560000000  0.4729940000000 1.0
C      1  0.5896110000000  0.5440710000000  0.5404510000000 1.0
C      1  0.6298120000000  0.5232280000000  0.5233990000000 1.0
C      1  0.3981470000000  0.4972480000000  0.5451140000000 1.0
C      1  0.5521970000000  0.4813210000000  0.5117130000000 1.0
C      1  0.4617130000000  0.4279380000000  0.5885800000000 1.0
C      1  0.5013310000000  0.5388270000000  0.4603530000000 1.0
C      1  0.4857250000000  0.5948980000000  0.4451360000000 1.0
C      1  0.5383640000000  0.4059210000000  0.5021630000000 1.0
C      1  0.5444820000000  0.4668260000000  0.3956530000000 1.0
C      1  0.4869480000000  0.4794220000000  0.3511190000000 1.0
C      1  0.4577030000000  0.4742030000000  0.5898220000000 1.0
C      1  0.5126840000000  0.5336880000000  0.4148890000000 1.0
C      1  0.4170960000000  0.5409950000000  0.5523730000000 1.0
C      1  0.4919330000000  0.4700240000000  0.4181960000000 1.0
C      1  0.4717690000000  0.3861030000000  0.4543220000000 1.0
C      1  0.4977940000000  0.4301990000000  0.4564870000000 1.0
C      1  0.4912520000000  0.4555900000000  0.3942910000000 1.0
C      1  0.5677040000000  0.5539770000000  0.5815970000000 1.0
C      1  0.4936630000000  0.6023310000000  0.5229270000000 1.0
C      1  0.5068080000000  0.4576710000000  0.5560050000000 1.0
C      1  0.5369010000000  0.4259100000000  0.4275030000000 1.0
C      1  0.4888390000000  0.4585730000000  0.3678310000000 1.0
C      1  0.4340220000000  0.4048340000000  0.5360310000000 1.0
C      1  0.4868320000000  0.5247650000000  0.3731300000000 1.0
C      1  0.5347780000000  0.5035080000000  0.5491840000000 1.0
C      1  0.4043540000000  0.4446230000000  0.5044090000000 1.0
C      1  0.6507080000000  0.5139480000000  0.4657810000000 1.0
C      1  0.4704080000000  0.5505210000000  0.6035260000000 1.0
C      1  0.6054550000000  0.6284400000000  0.5568320000000 1.0
C      1  0.5216790000000  0.5001890000000  0.5738980000000 1.0
C      1  0.4129680000000  0.4835700000000  0.5663640000000 1.0
C      1  0.4956600000000  0.5574570000000  0.5944250000000 1.0
C      1  0.5881280000000  0.6120010000000  0.5464120000000 1.0
C      1  0.4543070000000  0.4289300000000  0.4921430000000 1.0
C      1  0.5059470000000  0.5563890000000  0.5051240000000 1.0
C      1  0.5564410000000  0.4878880000000  0.5397270000000 1.0
C      1  0.5221410000000  0.5829140000000  0.5633960000000 1.0
C      1  0.5162350000000  0.3876900000000  0.5000980000000 1.0
C      1  0.4645600000000  0.5408500000000  0.5396670000000 1.0
C      1  0.6637960000000  0.5130880000000  0.4892110000000 1.0
C      1  0.5160980000000  0.4286750000000  0.6035920000000 1.0
C      1  0.4255810000000  0.4905060000000  0.4433320000000 1.0
C      1  0.4642180000000  0.4771830000000  0.5347940000000 1.0
C      1  0.4693160000000  0.4837780000000  0.4262580000000 1.0
C      1  0.5161050000000  0.5439300000000  0.5291590000000 1.0
C      1  0.5443130000000  0.5998380000000  0.5215520000000 1.0
C      1  0.4358820000000  0.3845950000000  0.5183920000000 1.0
C      1  0.3812260000000  0.4806560000000  0.5299060000000 1.0
C      1  0.4865120000000  0.5331750000000  0.4000680000000 1.0
END
