TITL C-599892-9790-962 0.127289908526635 125000 -981.570974706278 0 0 164 (C1) n - 1
REM
REM in /home/nfs/bkarasulu/CARBON/AIRSS/Generating-Clusters/TERSOFF/Only-C1/FIRE-HFTN
REM
REM
REM
REM
REM
REM ./C.cell (11c1c37f851c82e70ff6c80c92926a4b)
REM AIRSS Version 0.9.1 bugfix July 2018 build 013d7b7c2542+ Fri, 06 Jul 2018 19:26:36 +0100
REM compiler GCC version 9.2.1 20190827 (Red Hat 9.2.1-1)
REM options -cpp -mtune=generic -march=x86-64 -g -O0 -fpre-include=/usr/include/finclude/math-vector-fortran.h
REM seed -1950018355 1919975740 556452527 -1459921816 1382443791 -317717107 367344412 -233611692 1132199929 -110056510 2058424810 -1625821721 -120275877 1103069749 1492541242 8391256 -442509584 365723088 1326410802 -439298761 -377995630 -901870550 1469708663 -1561750637 -200340097 696376663 1462027947 1964099050 -1044930433 -918893536 1958323767 -1395388351 382091825
REM
CELL 1.54180   50.00000   50.00000   50.00000   90.00000   90.00000   90.00000
LATT -1
SFAC C  
C      1  0.5135770000000  0.4174210000000  0.4635660000000 1.0
C      1  0.6165700000000  0.4913050000000  0.5435670000000 1.0
C      1  0.4881500000000  0.5884720000000  0.4867340000000 1.0
C      1  0.5067510000000  0.5390060000000  0.5296290000000 1.0
C      1  0.4382430000000  0.5008920000000  0.5679790000000 1.0
C      1  0.5174010000000  0.5004650000000  0.5887830000000 1.0
C      1  0.6233980000000  0.5173700000000  0.5050410000000 1.0
C      1  0.4080670000000  0.4480830000000  0.4752850000000 1.0
C      1  0.4873730000000  0.5074760000000  0.4918590000000 1.0
C      1  0.5076680000000  0.3940920000000  0.4515120000000 1.0
C      1  0.4534220000000  0.5884740000000  0.4471530000000 1.0
C      1  0.5046810000000  0.5305720000000  0.5546540000000 1.0
C      1  0.4173570000000  0.5935280000000  0.4936850000000 1.0
C      1  0.4760150000000  0.4773190000000  0.6264840000000 1.0
C      1  0.3826640000000  0.4487560000000  0.5379940000000 1.0
C      1  0.3915520000000  0.4967200000000  0.4701090000000 1.0
C      1  0.5215320000000  0.3715320000000  0.4568420000000 1.0
C      1  0.4612990000000  0.5148390000000  0.4507560000000 1.0
C      1  0.4827300000000  0.4768400000000  0.3920470000000 1.0
C      1  0.4325800000000  0.4721410000000  0.4118140000000 1.0
C      1  0.3736120000000  0.5754580000000  0.4928880000000 1.0
C      1  0.4817280000000  0.4879510000000  0.3662470000000 1.0
C      1  0.5075380000000  0.4739850000000  0.4065140000000 1.0
C      1  0.5469240000000  0.4956920000000  0.5253390000000 1.0
C      1  0.5184590000000  0.3926400000000  0.5126870000000 1.0
C      1  0.4069890000000  0.4576970000000  0.5349930000000 1.0
C      1  0.5225900000000  0.5252600000000  0.5750910000000 1.0
C      1  0.4105840000000  0.5128330000000  0.4299670000000 1.0
C      1  0.4731400000000  0.4796600000000  0.6522810000000 1.0
C      1  0.5502650000000  0.4731470000000  0.6108650000000 1.0
C      1  0.4423750000000  0.5752850000000  0.4266910000000 1.0
C      1  0.5797060000000  0.4164200000000  0.5006880000000 1.0
C      1  0.6502180000000  0.4096260000000  0.5814750000000 1.0
C      1  0.4501390000000  0.4225170000000  0.4740150000000 1.0
C      1  0.6074630000000  0.5118060000000  0.4819190000000 1.0
C      1  0.4960830000000  0.4025940000000  0.5547960000000 1.0
C      1  0.4443690000000  0.6018420000000  0.4935510000000 1.0
C      1  0.5309790000000  0.5856810000000  0.5424480000000 1.0
C      1  0.4908040000000  0.4713340000000  0.5538230000000 1.0
C      1  0.5432410000000  0.5454380000000  0.5745680000000 1.0
C      1  0.4418480000000  0.5536840000000  0.4083430000000 1.0
C      1  0.4341180000000  0.4646600000000  0.5379400000000 1.0
C      1  0.4586760000000  0.5686040000000  0.5441880000000 1.0
C      1  0.4618200000000  0.5490120000000  0.5232680000000 1.0
C      1  0.5160700000000  0.4378750000000  0.4828740000000 1.0
C      1  0.4008090000000  0.5697880000000  0.4830220000000 1.0
C      1  0.5463810000000  0.5606610000000  0.5494690000000 1.0
C      1  0.4745730000000  0.4616060000000  0.4987560000000 1.0
C      1  0.5455740000000  0.3759080000000  0.4709970000000 1.0
C      1  0.4828070000000  0.5805020000000  0.5551830000000 1.0
C      1  0.4305080000000  0.5146700000000  0.5438830000000 1.0
C      1  0.4236170000000  0.5320620000000  0.4133530000000 1.0
C      1  0.3993910000000  0.5208480000000  0.4556050000000 1.0
C      1  0.5076910000000  0.6256940000000  0.3387210000000 1.0
C      1  0.4612850000000  0.6140770000000  0.5142740000000 1.0
C      1  0.5022150000000  0.5906470000000  0.5364430000000 1.0
C      1  0.4966060000000  0.4813790000000  0.5806760000000 1.0
C      1  0.4873280000000  0.5694450000000  0.3925230000000 1.0
C      1  0.4984220000000  0.5623170000000  0.4890660000000 1.0
C      1  0.4628140000000  0.5929020000000  0.4730140000000 1.0
C      1  0.4724950000000  0.5117170000000  0.3578590000000 1.0
C      1  0.3726530000000  0.5992260000000  0.5069030000000 1.0
C      1  0.4954650000000  0.4610170000000  0.4504910000000 1.0
C      1  0.4463590000000  0.4718900000000  0.4655000000000 1.0
C      1  0.5614580000000  0.4592860000000  0.4535620000000 1.0
C      1  0.4743780000000  0.5390810000000  0.4522910000000 1.0
C      1  0.5590740000000  0.5508710000000  0.5962160000000 1.0
C      1  0.4959660000000  0.4578360000000  0.4796960000000 1.0
C      1  0.5392250000000  0.4429600000000  0.4970140000000 1.0
C      1  0.4772220000000  0.4023590000000  0.5323550000000 1.0
C      1  0.4886650000000  0.6025480000000  0.5129070000000 1.0
C      1  0.5285050000000  0.5262370000000  0.4696440000000 1.0
C      1  0.4398600000000  0.5141810000000  0.5923800000000 1.0
C      1  0.3888020000000  0.5362670000000  0.5586410000000 1.0
C      1  0.4604640000000  0.4253810000000  0.5330980000000 1.0
C      1  0.6738950000000  0.4120300000000  0.4455060000000 1.0
C      1  0.6123700000000  0.5381900000000  0.5214190000000 1.0
C      1  0.5006820000000  0.6073960000000  0.3559160000000 1.0
C      1  0.4706440000000  0.4043820000000  0.4845670000000 1.0
C      1  0.5405960000000  0.5725570000000  0.4680350000000 1.0
C      1  0.3978400000000  0.6104570000000  0.5076150000000 1.0
C      1  0.5395670000000  0.5042390000000  0.4591730000000 1.0
C      1  0.5297880000000  0.5094780000000  0.6349380000000 1.0
C      1  0.4416600000000  0.4724860000000  0.5649570000000 1.0
C      1  0.4487030000000  0.5314360000000  0.6105110000000 1.0
C      1  0.3873100000000  0.5070960000000  0.5206410000000 1.0
C      1  0.4769090000000  0.4279610000000  0.4172750000000 1.0
C      1  0.6523760000000  0.4240730000000  0.4539640000000 1.0
C      1  0.5692510000000  0.5627010000000  0.5050700000000 1.0
C      1  0.5679660000000  0.3924740000000  0.5105760000000 1.0
C      1  0.4636920000000  0.5349400000000  0.3676830000000 1.0
C      1  0.5690920000000  0.4449010000000  0.5018840000000 1.0
C      1  0.4785820000000  0.5719340000000  0.6063240000000 1.0
C      1  0.5882770000000  0.5313280000000  0.5362870000000 1.0
C      1  0.4772170000000  0.5043950000000  0.5176830000000 1.0
C      1  0.4034910000000  0.5464340000000  0.4673270000000 1.0
C      1  0.4937230000000  0.5888370000000  0.3734930000000 1.0
C      1  0.5309790000000  0.6165160000000  0.4480750000000 1.0
C      1  0.4883440000000  0.5493610000000  0.5117360000000 1.0
C      1  0.5883600000000  0.4016320000000  0.4148970000000 1.0
C      1  0.5671070000000  0.5508010000000  0.5311240000000 1.0
C      1  0.5543730000000  0.5619330000000  0.4140370000000 1.0
C      1  0.4381460000000  0.5137910000000  0.4940030000000 1.0
C      1  0.4356290000000  0.4241090000000  0.5176390000000 1.0
C      1  0.5160540000000  0.4710910000000  0.4336520000000 1.0
C      1  0.4911040000000  0.5528380000000  0.4369310000000 1.0
C      1  0.5336850000000  0.5894820000000  0.4461750000000 1.0
C      1  0.4953060000000  0.4897000000000  0.5333080000000 1.0
C      1  0.4471450000000  0.5001660000000  0.4704850000000 1.0
C      1  0.4563340000000  0.4570300000000  0.5855920000000 1.0
C      1  0.4344990000000  0.5787970000000  0.5535680000000 1.0
C      1  0.5832960000000  0.5529370000000  0.4569800000000 1.0
C      1  0.6071410000000  0.4466440000000  0.4696690000000 1.0
C      1  0.5813190000000  0.4610180000000  0.4774390000000 1.0
C      1  0.4647130000000  0.5022880000000  0.4263730000000 1.0
C      1  0.4021910000000  0.5192260000000  0.5408500000000 1.0
C      1  0.4764110000000  0.4729890000000  0.5990950000000 1.0
C      1  0.5754190000000  0.5554390000000  0.4297770000000 1.0
C      1  0.5668330000000  0.5658240000000  0.4769880000000 1.0
C      1  0.5405430000000  0.4786010000000  0.4471770000000 1.0
C      1  0.3820830000000  0.4983790000000  0.4961650000000 1.0
C      1  0.6302520000000  0.4360440000000  0.4623070000000 1.0
C      1  0.4265530000000  0.4292310000000  0.4902050000000 1.0
C      1  0.4635970000000  0.4291160000000  0.5860850000000 1.0
C      1  0.4634560000000  0.5531970000000  0.3890450000000 1.0
C      1  0.4130070000000  0.4827150000000  0.4302670000000 1.0
C      1  0.5726780000000  0.4078110000000  0.4364760000000 1.0
C      1  0.4770160000000  0.4472710000000  0.5451840000000 1.0
C      1  0.5633420000000  0.4343070000000  0.4398200000000 1.0
C      1  0.5622760000000  0.4365210000000  0.5529450000000 1.0
C      1  0.5221120000000  0.4027540000000  0.5416770000000 1.0
C      1  0.5698460000000  0.4838110000000  0.5352720000000 1.0
C      1  0.4538200000000  0.6343480000000  0.5308760000000 1.0
C      1  0.4888000000000  0.3962710000000  0.5061890000000 1.0
C      1  0.5214120000000  0.5529430000000  0.4757530000000 1.0
C      1  0.5907260000000  0.4890620000000  0.4821070000000 1.0
C      1  0.5639210000000  0.4541440000000  0.5985830000000 1.0
C      1  0.5302880000000  0.5749300000000  0.4214290000000 1.0
C      1  0.4523910000000  0.4662330000000  0.5149100000000 1.0
C      1  0.5489500000000  0.4107830000000  0.5491700000000 1.0
C      1  0.4835920000000  0.4118700000000  0.5786920000000 1.0
C      1  0.5673780000000  0.3914610000000  0.5387590000000 1.0
C      1  0.5700730000000  0.4551110000000  0.5313710000000 1.0
C      1  0.4752820000000  0.4445290000000  0.4387340000000 1.0
C      1  0.6325960000000  0.4962140000000  0.5218480000000 1.0
C      1  0.4021550000000  0.4718520000000  0.4574130000000 1.0
C      1  0.5037740000000  0.5658300000000  0.4156050000000 1.0
C      1  0.5213250000000  0.4908580000000  0.5238890000000 1.0
C      1  0.5466270000000  0.6087690000000  0.5422120000000 1.0
C      1  0.4593200000000  0.4818460000000  0.4081830000000 1.0
C      1  0.3910250000000  0.5610050000000  0.5684510000000 1.0
C      1  0.6014800000000  0.5330280000000  0.4645620000000 1.0
C      1  0.5898640000000  0.5022360000000  0.5436890000000 1.0
C      1  0.5758340000000  0.4399160000000  0.5778850000000 1.0
C      1  0.5430320000000  0.3842110000000  0.4983240000000 1.0
C      1  0.4637010000000  0.5524830000000  0.6168250000000 1.0
C      1  0.4537550000000  0.4451780000000  0.4566870000000 1.0
C      1  0.6260210000000  0.4193260000000  0.5815140000000 1.0
C      1  0.4500590000000  0.5206410000000  0.5213670000000 1.0
C      1  0.4106750000000  0.5788530000000  0.5653590000000 1.0
C      1  0.6014540000000  0.4292300000000  0.5810730000000 1.0
C      1  0.5660110000000  0.3876060000000  0.4551250000000 1.0
C      1  0.4859750000000  0.5821720000000  0.5828760000000 1.0
C      1  0.5325200000000  0.4945980000000  0.6121830000000 1.0
END
