TITL C-599896-8500-834 31.7295242749158 125000 -698.647547321425 0 0 114 (C1) n - 1
REM
REM in /home/nfs/bkarasulu/CARBON/AIRSS/Generating-Clusters/TERSOFF/Only-C1/FIRE-HFTN
REM
REM
REM
REM
REM
REM ./C.cell (11c1c37f851c82e70ff6c80c92926a4b)
REM AIRSS Version 0.9.1 bugfix July 2018 build 013d7b7c2542+ Fri, 06 Jul 2018 19:26:36 +0100
REM compiler GCC version 9.2.1 20190827 (Red Hat 9.2.1-1)
REM options -cpp -mtune=generic -march=x86-64 -g -O0 -fpre-include=/usr/include/finclude/math-vector-fortran.h
REM seed 1587570662 1100491150 1529567601 424057382 -1274561448 -48147409 -837044584 -1955886210 -2045580278 -1440401116 -1665680001 1017436061 444334411 1780432388 -208592077 -495604770 -1042286003 -1582323730 -1754630638 -513976398 -1389132788 -11521995 1567275951 -1577595214 1832552298 -1210584895 -770592509 1114081428 -2132471646 2118410296 -1460507296 -1035276556 926189214
REM
CELL 1.54180   50.00000   50.00000   50.00000   90.00000   90.00000   90.00000
LATT -1
SFAC C  
C      1  0.5355150000000  0.4536700000000  0.5542420000000 1.0
C      1  0.4873150000000  0.4862750000000  0.5366450000000 1.0
C      1  0.4041390000000  0.4025420000000  0.3919250000000 1.0
C      1  0.4704240000000  0.5293560000000  0.4328550000000 1.0
C      1  0.4764020000000  0.4451050000000  0.5073720000000 1.0
C      1  0.5763430000000  0.5434520000000  0.4761920000000 1.0
C      1  0.4606540000000  0.5680750000000  0.4660570000000 1.0
C      1  0.5400170000000  0.5197710000000  0.5255830000000 1.0
C      1  0.5467070000000  0.5730410000000  0.5329380000000 1.0
C      1  0.5135310000000  0.4459090000000  0.4330850000000 1.0
C      1  0.5075100000000  0.5678690000000  0.4809060000000 1.0
C      1  0.5618000000000  0.5172200000000  0.5728360000000 1.0
C      1  0.5321210000000  0.4240620000000  0.4723660000000 1.0
C      1  0.5375900000000  0.5138020000000  0.4350710000000 1.0
C      1  0.5262490000000  0.3753420000000  0.4708140000000 1.0
C      1  0.4715260000000  0.5638780000000  0.5759370000000 1.0
C      1  0.4288300000000  0.4350880000000  0.5557440000000 1.0
C      1  0.4949420000000  0.5721870000000  0.4270510000000 1.0
C      1  0.4472170000000  0.4158980000000  0.5598540000000 1.0
C      1  0.3872550000000  0.5613840000000  0.4803700000000 1.0
C      1  0.4475510000000  0.5204340000000  0.4773310000000 1.0
C      1  0.4657800000000  0.5579150000000  0.6017690000000 1.0
C      1  0.4687230000000  0.5011650000000  0.4288250000000 1.0
C      1  0.5398100000000  0.3973700000000  0.5312190000000 1.0
C      1  0.4889770000000  0.5274860000000  0.5149450000000 1.0
C      1  0.5363220000000  0.4394760000000  0.4492600000000 1.0
C      1  0.5067020000000  0.5218710000000  0.4929300000000 1.0
C      1  0.3986110000000  0.4973100000000  0.5267980000000 1.0
C      1  0.4655540000000  0.4216790000000  0.4651780000000 1.0
C      1  0.5239430000000  0.5890690000000  0.5410620000000 1.0
C      1  0.4367420000000  0.4354870000000  0.4195870000000 1.0
C      1  0.4808720000000  0.4375800000000  0.5846960000000 1.0
C      1  0.4198820000000  0.4184910000000  0.4052290000000 1.0
C      1  0.4157170000000  0.6550430000000  0.4735850000000 1.0
C      1  0.4233200000000  0.5300820000000  0.4889660000000 1.0
C      1  0.5448320000000  0.4590800000000  0.5074950000000 1.0
C      1  0.4919370000000  0.4580300000000  0.5267980000000 1.0
C      1  0.5153540000000  0.5408530000000  0.4746160000000 1.0
C      1  0.4445190000000  0.4802260000000  0.5620040000000 1.0
C      1  0.5534890000000  0.4634620000000  0.4484120000000 1.0
C      1  0.4849080000000  0.4872260000000  0.4732030000000 1.0
C      1  0.5971170000000  0.4261230000000  0.4888650000000 1.0
C      1  0.4259450000000  0.6034960000000  0.4727360000000 1.0
C      1  0.4797780000000  0.5386020000000  0.6146780000000 1.0
C      1  0.5414780000000  0.5797980000000  0.4523460000000 1.0
C      1  0.4887960000000  0.5456760000000  0.4175040000000 1.0
C      1  0.4141670000000  0.5561340000000  0.4811130000000 1.0
C      1  0.5547860000000  0.4623090000000  0.5350980000000 1.0
C      1  0.5392720000000  0.5319480000000  0.5752640000000 1.0
C      1  0.4254210000000  0.4627420000000  0.5507920000000 1.0
C      1  0.4594940000000  0.5384070000000  0.4578750000000 1.0
C      1  0.5568940000000  0.5545770000000  0.4572550000000 1.0
C      1  0.4913840000000  0.5503840000000  0.5601270000000 1.0
C      1  0.4739680000000  0.4151800000000  0.5688570000000 1.0
C      1  0.6268310000000  0.4561690000000  0.4659590000000 1.0
C      1  0.4493210000000  0.4869520000000  0.4146610000000 1.0
C      1  0.5513710000000  0.5056960000000  0.5022160000000 1.0
C      1  0.4100630000000  0.4714180000000  0.5284690000000 1.0
C      1  0.5333990000000  0.4633710000000  0.5807250000000 1.0
C      1  0.5118230000000  0.4447910000000  0.5416960000000 1.0
C      1  0.4387320000000  0.4625720000000  0.4125750000000 1.0
C      1  0.4745900000000  0.5722120000000  0.5169130000000 1.0
C      1  0.5956600000000  0.5232840000000  0.5391720000000 1.0
C      1  0.4804780000000  0.5720280000000  0.4888770000000 1.0
C      1  0.5362450000000  0.4857560000000  0.4393120000000 1.0
C      1  0.4631380000000  0.4989410000000  0.4890330000000 1.0
C      1  0.5108040000000  0.4746550000000  0.5934840000000 1.0
C      1  0.5274080000000  0.5881710000000  0.4763590000000 1.0
C      1  0.5352880000000  0.4829450000000  0.4951280000000 1.0
C      1  0.5839090000000  0.5844480000000  0.5009230000000 1.0
C      1  0.4862780000000  0.4856150000000  0.4448520000000 1.0
C      1  0.5354900000000  0.5342670000000  0.4550200000000 1.0
C      1  0.5101170000000  0.4932830000000  0.4860830000000 1.0
C      1  0.4861300000000  0.4652040000000  0.5829250000000 1.0
C      1  0.4721440000000  0.5037200000000  0.5167790000000 1.0
C      1  0.5806020000000  0.5049710000000  0.5550980000000 1.0
C      1  0.5421000000000  0.4324190000000  0.4975480000000 1.0
C      1  0.4121020000000  0.4556100000000  0.5054190000000 1.0
C      1  0.5310180000000  0.5220890000000  0.4087280000000 1.0
C      1  0.5885060000000  0.5567520000000  0.4986160000000 1.0
C      1  0.5175120000000  0.3931630000000  0.5457060000000 1.0
C      1  0.5094020000000  0.4740880000000  0.4337310000000 1.0
C      1  0.5179480000000  0.5042960000000  0.5382300000000 1.0
C      1  0.5112730000000  0.5363470000000  0.5774070000000 1.0
C      1  0.4306590000000  0.4423310000000  0.4917970000000 1.0
C      1  0.4737630000000  0.5830310000000  0.4428670000000 1.0
C      1  0.5095340000000  0.4985780000000  0.6079180000000 1.0
C      1  0.4727500000000  0.4812800000000  0.5630540000000 1.0
C      1  0.4943090000000  0.3986360000000  0.5582060000000 1.0
C      1  0.5591070000000  0.5912650000000  0.5119850000000 1.0
C      1  0.4880460000000  0.4051870000000  0.4665920000000 1.0
C      1  0.4207060000000  0.6294610000000  0.4730840000000 1.0
C      1  0.4517370000000  0.4255280000000  0.4411070000000 1.0
C      1  0.5752980000000  0.4792260000000  0.5444980000000 1.0
C      1  0.3775380000000  0.5043880000000  0.5426910000000 1.0
C      1  0.4859670000000  0.5500630000000  0.5315290000000 1.0
C      1  0.4576880000000  0.4360260000000  0.4884010000000 1.0
C      1  0.5796630000000  0.4604860000000  0.4578870000000 1.0
C      1  0.4094160000000  0.5153520000000  0.5082290000000 1.0
C      1  0.5179470000000  0.6076180000000  0.5211580000000 1.0
C      1  0.4587900000000  0.5913490000000  0.5282650000000 1.0
C      1  0.5225710000000  0.5803630000000  0.4301060000000 1.0
C      1  0.5828350000000  0.5429600000000  0.5235990000000 1.0
C      1  0.5006150000000  0.5244860000000  0.6019090000000 1.0
C      1  0.5154550000000  0.4010260000000  0.4702350000000 1.0
C      1  0.5701120000000  0.5163810000000  0.4839720000000 1.0
C      1  0.5554150000000  0.4119160000000  0.5127740000000 1.0
C      1  0.5827780000000  0.4109590000000  0.5059590000000 1.0
C      1  0.5359210000000  0.6033230000000  0.4985280000000 1.0
C      1  0.4328810000000  0.5764390000000  0.4733760000000 1.0
C      1  0.5540470000000  0.5454510000000  0.5303430000000 1.0
C      1  0.5373730000000  0.3518260000000  0.4723560000000 1.0
C      1  0.6012740000000  0.4475860000000  0.4708580000000 1.0
C      1  0.5079890000000  0.5336040000000  0.4008070000000 1.0
END
