TITL C-599895-9959-1344 -1.65762451044651e-05 125000 -393.769186635535 0 0 66 (C1) n - 1
REM
REM in /home/nfs/bkarasulu/CARBON/AIRSS/Generating-Clusters/TERSOFF/Only-C1/FIRE-HFTN
REM
REM
REM
REM
REM
REM ./C.cell (11c1c37f851c82e70ff6c80c92926a4b)
REM AIRSS Version 0.9.1 bugfix July 2018 build 013d7b7c2542+ Fri, 06 Jul 2018 19:26:36 +0100
REM compiler GCC version 9.2.1 20190827 (Red Hat 9.2.1-1)
REM options -cpp -mtune=generic -march=x86-64 -g -O0 -fpre-include=/usr/include/finclude/math-vector-fortran.h
REM seed 1838095009 -1010484489 439484579 1887538477 1646136717 -400926046 1041780192 581212247 1673719996 -1909746939 1971863680 -628450421 1083212609 1571646893 -2005542661 -1421622321 970503526 1349126031 -1018693106 -901321257 1671789306 566966538 1702157087 -863549108 -1190395529 -791179143 36196837 -328521649 -522504413 -481903489 -2104194708 -1129548727 871738314
REM
CELL 1.54180   50.00000   50.00000   50.00000   90.00000   90.00000   90.00000
LATT -1
SFAC C  
C      1  0.4134710000000  0.5154480000000  0.4515750000000 1.0
C      1  0.5038610000000  0.5374290000000  0.4740500000000 1.0
C      1  0.4857860000000  0.4529210000000  0.4978620000000 1.0
C      1  0.5635800000000  0.5271230000000  0.5751610000000 1.0
C      1  0.4746300000000  0.5727060000000  0.5311580000000 1.0
C      1  0.5080270000000  0.4111460000000  0.4912580000000 1.0
C      1  0.4901750000000  0.4657590000000  0.4732420000000 1.0
C      1  0.4568960000000  0.4157280000000  0.4998250000000 1.0
C      1  0.4998140000000  0.4614640000000  0.5443830000000 1.0
C      1  0.4748950000000  0.4606430000000  0.4498640000000 1.0
C      1  0.5498650000000  0.4914340000000  0.4404170000000 1.0
C      1  0.5273400000000  0.5530060000000  0.4700140000000 1.0
C      1  0.4674000000000  0.5083440000000  0.4930950000000 1.0
C      1  0.4936890000000  0.5436260000000  0.5744550000000 1.0
C      1  0.4456470000000  0.4911760000000  0.5307080000000 1.0
C      1  0.4736200000000  0.4968850000000  0.5204180000000 1.0
C      1  0.4835380000000  0.4245610000000  0.4974670000000 1.0
C      1  0.4474360000000  0.5513160000000  0.4349670000000 1.0
C      1  0.5673770000000  0.4832880000000  0.4620770000000 1.0
C      1  0.5129650000000  0.5963070000000  0.5264320000000 1.0
C      1  0.5473800000000  0.5395330000000  0.4552430000000 1.0
C      1  0.5396210000000  0.5187140000000  0.4369840000000 1.0
C      1  0.5184280000000  0.4488830000000  0.4283710000000 1.0
C      1  0.4945880000000  0.5864970000000  0.4822560000000 1.0
C      1  0.4263720000000  0.4682740000000  0.4701990000000 1.0
C      1  0.5266640000000  0.4995490000000  0.4875420000000 1.0
C      1  0.4471210000000  0.4603390000000  0.4526810000000 1.0
C      1  0.4919830000000  0.5646190000000  0.5545960000000 1.0
C      1  0.5416020000000  0.4854530000000  0.5567590000000 1.0
C      1  0.5172330000000  0.4111450000000  0.4644990000000 1.0
C      1  0.5705910000000  0.4843890000000  0.5145720000000 1.0
C      1  0.4803950000000  0.5255940000000  0.4776930000000 1.0
C      1  0.4948450000000  0.5449220000000  0.4257720000000 1.0
C      1  0.4773720000000  0.4933140000000  0.5956530000000 1.0
C      1  0.5372110000000  0.4699500000000  0.4266240000000 1.0
C      1  0.5153110000000  0.5268830000000  0.4234010000000 1.0
C      1  0.5449170000000  0.4208910000000  0.5273610000000 1.0
C      1  0.5239990000000  0.4249920000000  0.4425140000000 1.0
C      1  0.5223000000000  0.5799630000000  0.4764310000000 1.0
C      1  0.5147420000000  0.4752370000000  0.5635270000000 1.0
C      1  0.5114300000000  0.4834360000000  0.4733260000000 1.0
C      1  0.5180990000000  0.5755520000000  0.5455710000000 1.0
C      1  0.5271000000000  0.4085540000000  0.5117910000000 1.0
C      1  0.5316950000000  0.5527950000000  0.5361000000000 1.0
C      1  0.5201200000000  0.5295330000000  0.5247460000000 1.0
C      1  0.4258920000000  0.4570860000000  0.4966730000000 1.0
C      1  0.5133200000000  0.5209190000000  0.5761170000000 1.0
C      1  0.5009880000000  0.4940380000000  0.5803980000000 1.0
C      1  0.4275900000000  0.4746570000000  0.5189340000000 1.0
C      1  0.5638360000000  0.5118770000000  0.5142400000000 1.0
C      1  0.4711780000000  0.5399840000000  0.5917370000000 1.0
C      1  0.4263950000000  0.5360510000000  0.4407280000000 1.0
C      1  0.4632350000000  0.5158100000000  0.6012420000000 1.0
C      1  0.4780270000000  0.5793570000000  0.4600000000000 1.0
C      1  0.4892240000000  0.5891320000000  0.5105080000000 1.0
C      1  0.5566880000000  0.4429410000000  0.5366610000000 1.0
C      1  0.5411770000000  0.5130220000000  0.5685080000000 1.0
C      1  0.5371160000000  0.5163090000000  0.5070450000000 1.0
C      1  0.4861150000000  0.4689970000000  0.5210500000000 1.0
C      1  0.4906930000000  0.4553250000000  0.4271360000000 1.0
C      1  0.4946200000000  0.5171730000000  0.5298130000000 1.0
C      1  0.5741400000000  0.4753420000000  0.4874000000000 1.0
C      1  0.4122250000000  0.4913890000000  0.4630020000000 1.0
C      1  0.5585170000000  0.4710490000000  0.5375320000000 1.0
C      1  0.4339540000000  0.4300560000000  0.4998640000000 1.0
C      1  0.4739390000000  0.5601640000000  0.4387720000000 1.0
END
