TITL C-599891-72-919 -56757.3040612938 125000 -1050.80038099153 0 0 175 (C1) n - 1
REM
REM in /home/nfs/bkarasulu/CARBON/AIRSS/Generating-Clusters/TERSOFF/Only-C1/FIRE-HFTN
REM
REM
REM
REM
REM
REM ./C.cell (11c1c37f851c82e70ff6c80c92926a4b)
REM AIRSS Version 0.9.1 bugfix July 2018 build 013d7b7c2542+ Fri, 06 Jul 2018 19:26:36 +0100
REM compiler GCC version 9.2.1 20190827 (Red Hat 9.2.1-1)
REM options -cpp -mtune=generic -march=x86-64 -g -O0 -fpre-include=/usr/include/finclude/math-vector-fortran.h
REM seed -1512239678 1354294293 -1759886691 -930265433 -1249686811 -1378804492 -877577896 -366876443 -1899352998 1795530589 456506393 -132540777 -1773238205 -1554385744 -672963658 260693679 -869891991 1889622463 -1285231047 388408019 946957423 1967276604 -1960817773 425077775 -670697975 1006836047 2042767361 128199761 -599589187 1145185734 -574560913 -223043089 -227570906
REM
CELL 1.54180   50.00000   50.00000   50.00000   90.00000   90.00000   90.00000
LATT -1
SFAC C  
C      1  0.5374540000000  0.5061090000000  0.4850690000000 1.0
C      1  0.6023960000000  0.5461400000000  0.5310890000000 1.0
C      1  0.6045500000000  0.4891150000000  0.5056970000000 1.0
C      1  0.5611770000000  0.4818970000000  0.5213750000000 1.0
C      1  0.5418330000000  0.4322930000000  0.5835130000000 1.0
C      1  0.5126320000000  0.5720830000000  0.5188600000000 1.0
C      1  0.3821710000000  0.4942350000000  0.4446130000000 1.0
C      1  0.4446100000000  0.4401110000000  0.5962480000000 1.0
C      1  0.4533230000000  0.4005610000000  0.5627520000000 1.0
C      1  0.4516440000000  0.5197120000000  0.5925260000000 1.0
C      1  0.5421670000000  0.4425070000000  0.5378300000000 1.0
C      1  0.4877040000000  0.5377130000000  0.3916550000000 1.0
C      1  0.5136950000000  0.5321030000000  0.4577150000000 1.0
C      1  0.4947250000000  0.4295010000000  0.4503540000000 1.0
C      1  0.5628400000000  0.5445400000000  0.4335060000000 1.0
C      1  0.4719460000000  0.5707170000000  0.5539200000000 1.0
C      1  0.4547220000000  0.5657390000000  0.4624200000000 1.0
C      1  0.4014900000000  0.4769670000000  0.4326370000000 1.0
C      1  0.4553530000000  0.5754470000000  0.4895650000000 1.0
C      1  0.4884950000000  0.4462640000000  0.3928800000000 1.0
C      1  0.4118480000000  0.4572070000000  0.5620050000000 1.0
C      1  0.5516310000000  0.5008090000000  0.6116490000000 1.0
C      1  0.4408620000000  0.4911710000000  0.5395290000000 1.0
C      1  0.4610150000000  0.5546700000000  0.5070960000000 1.0
C      1  0.4597600000000  0.4491670000000  0.4925350000000 1.0
C      1  0.4413920000000  0.5718830000000  0.6385770000000 1.0
C      1  0.6011870000000  0.4106410000000  0.4872390000000 1.0
C      1  0.4206690000000  0.4843480000000  0.4095450000000 1.0
C      1  0.4944970000000  0.4282070000000  0.5818840000000 1.0
C      1  0.5680640000000  0.4834990000000  0.5933570000000 1.0
C      1  0.5595150000000  0.3853180000000  0.4823270000000 1.0
C      1  0.5031170000000  0.5787720000000  0.5992860000000 1.0
C      1  0.5567320000000  0.5871220000000  0.4091570000000 1.0
C      1  0.6036220000000  0.4284530000000  0.5090690000000 1.0
C      1  0.5052350000000  0.5177620000000  0.3900140000000 1.0
C      1  0.6082920000000  0.4735000000000  0.5303820000000 1.0
C      1  0.5859450000000  0.3869950000000  0.4925330000000 1.0
C      1  0.5265680000000  0.5307440000000  0.5757190000000 1.0
C      1  0.4201630000000  0.4831460000000  0.5571610000000 1.0
C      1  0.4376880000000  0.4205790000000  0.5760110000000 1.0
C      1  0.5020520000000  0.5413420000000  0.4823440000000 1.0
C      1  0.5544010000000  0.5550290000000  0.5421630000000 1.0
C      1  0.4073760000000  0.5291800000000  0.5616980000000 1.0
C      1  0.5317150000000  0.5049530000000  0.5633270000000 1.0
C      1  0.5859080000000  0.5284470000000  0.4335600000000 1.0
C      1  0.6005550000000  0.4184640000000  0.4592700000000 1.0
C      1  0.4873780000000  0.5001690000000  0.5296300000000 1.0
C      1  0.5346300000000  0.5567200000000  0.5660530000000 1.0
C      1  0.5142990000000  0.5968180000000  0.4561830000000 1.0
C      1  0.5044720000000  0.4616180000000  0.4863040000000 1.0
C      1  0.5846330000000  0.5255990000000  0.5714060000000 1.0
C      1  0.4095110000000  0.4537070000000  0.4494650000000 1.0
C      1  0.4822000000000  0.5744840000000  0.4236450000000 1.0
C      1  0.4865000000000  0.3776960000000  0.4510260000000 1.0
C      1  0.5131870000000  0.4548280000000  0.6157100000000 1.0
C      1  0.4692680000000  0.5072780000000  0.5046150000000 1.0
C      1  0.5467130000000  0.5293920000000  0.5245760000000 1.0
C      1  0.4901080000000  0.4104820000000  0.5321360000000 1.0
C      1  0.5280010000000  0.4740650000000  0.3881360000000 1.0
C      1  0.5173800000000  0.4482380000000  0.3957780000000 1.0
C      1  0.4715140000000  0.5103790000000  0.4532480000000 1.0
C      1  0.4774000000000  0.5779710000000  0.6076800000000 1.0
C      1  0.5742760000000  0.4155070000000  0.4462110000000 1.0
C      1  0.4865900000000  0.6003610000000  0.4660730000000 1.0
C      1  0.5772150000000  0.4835990000000  0.4965290000000 1.0
C      1  0.4901690000000  0.5273670000000  0.5421080000000 1.0
C      1  0.5170000000000  0.4328800000000  0.5983350000000 1.0
C      1  0.4785810000000  0.5345370000000  0.4977840000000 1.0
C      1  0.3713720000000  0.5074060000000  0.4656000000000 1.0
C      1  0.5850370000000  0.4531850000000  0.4135250000000 1.0
C      1  0.4792670000000  0.5442740000000  0.5616400000000 1.0
C      1  0.4674420000000  0.4860670000000  0.5473740000000 1.0
C      1  0.4487340000000  0.4927600000000  0.6016160000000 1.0
C      1  0.5739740000000  0.5965990000000  0.3903860000000 1.0
C      1  0.6291950000000  0.5130640000000  0.4195510000000 1.0
C      1  0.5159540000000  0.4029310000000  0.5458510000000 1.0
C      1  0.5375180000000  0.4211900000000  0.5562060000000 1.0
C      1  0.4433630000000  0.5358770000000  0.4133640000000 1.0
C      1  0.4548200000000  0.4668550000000  0.5916760000000 1.0
C      1  0.4205860000000  0.5498130000000  0.4244860000000 1.0
C      1  0.5093390000000  0.5992700000000  0.5572860000000 1.0
C      1  0.5630390000000  0.4393590000000  0.4290600000000 1.0
C      1  0.5418280000000  0.3648760000000  0.4883370000000 1.0
C      1  0.3971520000000  0.5414680000000  0.5365050000000 1.0
C      1  0.4057980000000  0.4465920000000  0.4773920000000 1.0
C      1  0.5546320000000  0.4754530000000  0.3792840000000 1.0
C      1  0.4092080000000  0.4473620000000  0.5062130000000 1.0
C      1  0.5533540000000  0.5279210000000  0.4965990000000 1.0
C      1  0.5782510000000  0.5674790000000  0.4765670000000 1.0
C      1  0.4852170000000  0.4482700000000  0.5037360000000 1.0
C      1  0.4841610000000  0.5949720000000  0.5443800000000 1.0
C      1  0.6186450000000  0.4342870000000  0.4446430000000 1.0
C      1  0.6141450000000  0.5132290000000  0.4943610000000 1.0
C      1  0.4364270000000  0.3971750000000  0.4151740000000 1.0
C      1  0.4787680000000  0.5309160000000  0.5878330000000 1.0
C      1  0.4370760000000  0.4650550000000  0.3936790000000 1.0
C      1  0.5144960000000  0.4919280000000  0.4306740000000 1.0
C      1  0.4598250000000  0.5381890000000  0.4564030000000 1.0
C      1  0.5189750000000  0.4856140000000  0.4940910000000 1.0
C      1  0.5869820000000  0.4972950000000  0.5752630000000 1.0
C      1  0.4305730000000  0.5638210000000  0.5922380000000 1.0
C      1  0.5399020000000  0.5015420000000  0.5348170000000 1.0
C      1  0.4848580000000  0.4451540000000  0.5611620000000 1.0
C      1  0.4128740000000  0.5415260000000  0.4505150000000 1.0
C      1  0.4116810000000  0.6057220000000  0.5346600000000 1.0
C      1  0.4623470000000  0.4543220000000  0.3902400000000 1.0
C      1  0.5288400000000  0.5902030000000  0.4077360000000 1.0
C      1  0.5824870000000  0.5459880000000  0.5515060000000 1.0
C      1  0.5072450000000  0.5264690000000  0.5979590000000 1.0
C      1  0.5050550000000  0.4538350000000  0.4591980000000 1.0
C      1  0.6197910000000  0.5142220000000  0.4666510000000 1.0
C      1  0.4675160000000  0.4943190000000  0.4785490000000 1.0
C      1  0.4931540000000  0.4414110000000  0.5318970000000 1.0
C      1  0.6116310000000  0.5184600000000  0.4398820000000 1.0
C      1  0.3722710000000  0.5192290000000  0.4900580000000 1.0
C      1  0.5141430000000  0.4873210000000  0.5239510000000 1.0
C      1  0.4571950000000  0.4927510000000  0.4338890000000 1.0
C      1  0.4729980000000  0.5988430000000  0.4921680000000 1.0
C      1  0.4781890000000  0.6063930000000  0.5189440000000 1.0
C      1  0.5244050000000  0.4691090000000  0.4444340000000 1.0
C      1  0.4145100000000  0.5959350000000  0.5591270000000 1.0
C      1  0.5385490000000  0.5368300000000  0.4454780000000 1.0
C      1  0.5184890000000  0.4575150000000  0.5326300000000 1.0
C      1  0.6048010000000  0.4845660000000  0.5566260000000 1.0
C      1  0.4288150000000  0.5364530000000  0.5820950000000 1.0
C      1  0.4184050000000  0.5295770000000  0.4739560000000 1.0
C      1  0.5938790000000  0.4478550000000  0.5270090000000 1.0
C      1  0.4696530000000  0.5511900000000  0.4090490000000 1.0
C      1  0.4300070000000  0.4278770000000  0.5278120000000 1.0
C      1  0.5509750000000  0.4569720000000  0.4531890000000 1.0
C      1  0.4603900000000  0.4071300000000  0.5356100000000 1.0
C      1  0.5220150000000  0.5055950000000  0.6141090000000 1.0
C      1  0.5537920000000  0.4072650000000  0.4655550000000 1.0
C      1  0.6009340000000  0.5361940000000  0.5048080000000 1.0
C      1  0.5195970000000  0.5799530000000  0.5758020000000 1.0
C      1  0.5428970000000  0.4326680000000  0.4726040000000 1.0
C      1  0.3991190000000  0.5015840000000  0.5568750000000 1.0
C      1  0.5603990000000  0.4550160000000  0.5891210000000 1.0
C      1  0.4500780000000  0.5713720000000  0.6124300000000 1.0
C      1  0.5535200000000  0.5808310000000  0.5234140000000 1.0
C      1  0.4402120000000  0.5061960000000  0.5148410000000 1.0
C      1  0.5094450000000  0.5861410000000  0.4274910000000 1.0
C      1  0.5154010000000  0.5614610000000  0.4954560000000 1.0
C      1  0.4115470000000  0.5832450000000  0.5838570000000 1.0
C      1  0.4706990000000  0.4678260000000  0.5679000000000 1.0
C      1  0.4399470000000  0.5063300000000  0.4155220000000 1.0
C      1  0.5401170000000  0.5956280000000  0.4715070000000 1.0
C      1  0.5692260000000  0.4737760000000  0.4709480000000 1.0
C      1  0.4998190000000  0.5111040000000  0.4456150000000 1.0
C      1  0.5770750000000  0.5431740000000  0.4903310000000 1.0
C      1  0.3872240000000  0.4950020000000  0.5304100000000 1.0
C      1  0.5167000000000  0.4955960000000  0.4024370000000 1.0
C      1  0.4902720000000  0.4033980000000  0.4488460000000 1.0
C      1  0.4349730000000  0.4448320000000  0.4391710000000 1.0
C      1  0.3901870000000  0.5892370000000  0.5999100000000 1.0
C      1  0.5465150000000  0.5954760000000  0.5010460000000 1.0
C      1  0.5659390000000  0.4547370000000  0.5307710000000 1.0
C      1  0.5648270000000  0.5731540000000  0.4322200000000 1.0
C      1  0.4384640000000  0.4198490000000  0.4278830000000 1.0
C      1  0.4689540000000  0.5847540000000  0.4469750000000 1.0
C      1  0.4058960000000  0.6133860000000  0.5104200000000 1.0
C      1  0.4566080000000  0.4689530000000  0.4732770000000 1.0
C      1  0.4188050000000  0.5185350000000  0.5000650000000 1.0
C      1  0.5121540000000  0.4802340000000  0.6041950000000 1.0
C      1  0.3931880000000  0.4688370000000  0.5185960000000 1.0
C      1  0.4526970000000  0.4660440000000  0.4452420000000 1.0
C      1  0.5375480000000  0.4333480000000  0.4109880000000 1.0
C      1  0.5262270000000  0.3451500000000  0.4951690000000 1.0
C      1  0.3912960000000  0.5202920000000  0.5134170000000 1.0
C      1  0.6111740000000  0.4497380000000  0.4237240000000 1.0
C      1  0.4217490000000  0.4324700000000  0.5548950000000 1.0
C      1  0.5776650000000  0.4677040000000  0.3906770000000 1.0
C      1  0.5184080000000  0.4829800000000  0.5760410000000 1.0
C      1  0.4073550000000  0.5692820000000  0.4107040000000 1.0
C      1  0.5633730000000  0.5835270000000  0.4586450000000 1.0
END
