TITL C-599896-8500-175 -2078.294680996 125000 -1172.94872100421 0 0 189 (C1) n - 1
REM
REM in /home/nfs/bkarasulu/CARBON/AIRSS/Generating-Clusters/TERSOFF/Only-C1/FIRE-HFTN
REM
REM
REM
REM
REM
REM ./C.cell (11c1c37f851c82e70ff6c80c92926a4b)
REM AIRSS Version 0.9.1 bugfix July 2018 build 013d7b7c2542+ Fri, 06 Jul 2018 19:26:36 +0100
REM compiler GCC version 9.2.1 20190827 (Red Hat 9.2.1-1)
REM options -cpp -mtune=generic -march=x86-64 -g -O0 -fpre-include=/usr/include/finclude/math-vector-fortran.h
REM seed 159950176 123299116 1297746590 -1649294182 -2028625563 -1677891385 -547476452 -2029254015 -1580471436 106609540 748725560 -991523219 1170018724 -1494004936 -1099824092 -1307318487 -914591476 -1574117790 2055063127 -590189053 -1177841187 2043400688 -1376426101 -808982728 -1321589685 1422758280 -943060684 1910230686 790772683 -202561309 1951606161 791101853 1878394637
REM
CELL 1.54180   50.00000   50.00000   50.00000   90.00000   90.00000   90.00000
LATT -1
SFAC C  
C      1  0.5282010000000  0.3367190000000  0.5003020000000 1.0
C      1  0.4897480000000  0.5278060000000  0.5635200000000 1.0
C      1  0.5065370000000  0.5297390000000  0.4482570000000 1.0
C      1  0.3937210000000  0.5688330000000  0.5010970000000 1.0
C      1  0.4479010000000  0.5843670000000  0.4584670000000 1.0
C      1  0.3881100000000  0.5596630000000  0.5285990000000 1.0
C      1  0.5897220000000  0.5523260000000  0.4416080000000 1.0
C      1  0.5910210000000  0.4661790000000  0.5773490000000 1.0
C      1  0.5293870000000  0.4644740000000  0.4826660000000 1.0
C      1  0.5989690000000  0.4915550000000  0.5381220000000 1.0
C      1  0.5970500000000  0.5017100000000  0.4511170000000 1.0
C      1  0.4501470000000  0.5202870000000  0.3774530000000 1.0
C      1  0.5262280000000  0.4552560000000  0.4279430000000 1.0
C      1  0.4765360000000  0.3781580000000  0.4677740000000 1.0
C      1  0.6031030000000  0.4669600000000  0.5520380000000 1.0
C      1  0.5929290000000  0.5815290000000  0.5204710000000 1.0
C      1  0.5367360000000  0.6087380000000  0.5724220000000 1.0
C      1  0.5938980000000  0.5179260000000  0.4066520000000 1.0
C      1  0.5937180000000  0.5579270000000  0.5374250000000 1.0
C      1  0.4811380000000  0.4521920000000  0.5959860000000 1.0
C      1  0.5255930000000  0.5198120000000  0.4312810000000 1.0
C      1  0.4287030000000  0.4783370000000  0.5309560000000 1.0
C      1  0.4593140000000  0.3969160000000  0.5444190000000 1.0
C      1  0.4173430000000  0.5238260000000  0.5477490000000 1.0
C      1  0.5292440000000  0.4063230000000  0.4642750000000 1.0
C      1  0.4373320000000  0.5538420000000  0.5888190000000 1.0
C      1  0.5486970000000  0.5165370000000  0.3918270000000 1.0
C      1  0.5282170000000  0.6390120000000  0.5028720000000 1.0
C      1  0.5557030000000  0.5952690000000  0.5556460000000 1.0
C      1  0.5144930000000  0.6036280000000  0.5875230000000 1.0
C      1  0.6178840000000  0.5040420000000  0.5214300000000 1.0
C      1  0.4969580000000  0.4558250000000  0.4332230000000 1.0
C      1  0.4354120000000  0.5058690000000  0.5348530000000 1.0
C      1  0.4160350000000  0.4521930000000  0.4323740000000 1.0
C      1  0.5230870000000  0.5205360000000  0.4029140000000 1.0
C      1  0.4995110000000  0.5220630000000  0.3878180000000 1.0
C      1  0.4552040000000  0.6116870000000  0.4562840000000 1.0
C      1  0.4494700000000  0.4507180000000  0.3986790000000 1.0
C      1  0.5776590000000  0.6012010000000  0.5370500000000 1.0
C      1  0.5649230000000  0.4644630000000  0.4498100000000 1.0
C      1  0.5015680000000  0.3628670000000  0.4687710000000 1.0
C      1  0.4905130000000  0.5765460000000  0.4924450000000 1.0
C      1  0.4063970000000  0.5100900000000  0.4777560000000 1.0
C      1  0.4972410000000  0.5258820000000  0.4738220000000 1.0
C      1  0.5275080000000  0.5449300000000  0.6203770000000 1.0
C      1  0.4836380000000  0.5640230000000  0.6072080000000 1.0
C      1  0.3967510000000  0.5409170000000  0.4262460000000 1.0
C      1  0.6083000000000  0.5105820000000  0.4956330000000 1.0
C      1  0.5411140000000  0.4467500000000  0.5547240000000 1.0
C      1  0.5599420000000  0.5401070000000  0.4980880000000 1.0
C      1  0.5472330000000  0.5082170000000  0.5322170000000 1.0
C      1  0.5369390000000  0.4770330000000  0.6478130000000 1.0
C      1  0.4998750000000  0.5939040000000  0.4743360000000 1.0
C      1  0.4276630000000  0.4272450000000  0.4447990000000 1.0
C      1  0.6087240000000  0.4906560000000  0.4747580000000 1.0
C      1  0.5421290000000  0.4284660000000  0.4278180000000 1.0
C      1  0.4197350000000  0.4189300000000  0.4706810000000 1.0
C      1  0.5725320000000  0.4951680000000  0.5278180000000 1.0
C      1  0.5362650000000  0.4653690000000  0.4553910000000 1.0
C      1  0.5311660000000  0.6159650000000  0.4439930000000 1.0
C      1  0.5491280000000  0.4585520000000  0.5025690000000 1.0
C      1  0.5393500000000  0.5240640000000  0.5098220000000 1.0
C      1  0.4955990000000  0.4267530000000  0.5505500000000 1.0
C      1  0.4678410000000  0.4902880000000  0.4452790000000 1.0
C      1  0.4630540000000  0.3798840000000  0.4933510000000 1.0
C      1  0.5274490000000  0.3550130000000  0.4787650000000 1.0
C      1  0.5573660000000  0.4880920000000  0.3943490000000 1.0
C      1  0.4943890000000  0.5893090000000  0.5991690000000 1.0
C      1  0.5557600000000  0.4843000000000  0.6304550000000 1.0
C      1  0.5561040000000  0.3980120000000  0.4713900000000 1.0
C      1  0.4498900000000  0.5602870000000  0.4436410000000 1.0
C      1  0.3890990000000  0.5582300000000  0.4480340000000 1.0
C      1  0.4853580000000  0.4286000000000  0.4771030000000 1.0
C      1  0.5556950000000  0.4367860000000  0.5238060000000 1.0
C      1  0.4454250000000  0.5585250000000  0.4156280000000 1.0
C      1  0.4080170000000  0.4653780000000  0.5461210000000 1.0
C      1  0.4335930000000  0.4972510000000  0.4160220000000 1.0
C      1  0.4274320000000  0.5865910000000  0.5323920000000 1.0
C      1  0.5533970000000  0.5390930000000  0.6187510000000 1.0
C      1  0.4941270000000  0.5720960000000  0.4049390000000 1.0
C      1  0.4708590000000  0.4174950000000  0.5610080000000 1.0
C      1  0.5856810000000  0.4334540000000  0.5168380000000 1.0
C      1  0.5359820000000  0.3403390000000  0.5257760000000 1.0
C      1  0.5177040000000  0.4350250000000  0.5662470000000 1.0
C      1  0.4197370000000  0.5818180000000  0.5045340000000 1.0
C      1  0.5210290000000  0.5719480000000  0.4076060000000 1.0
C      1  0.4988840000000  0.4663560000000  0.5208050000000 1.0
C      1  0.5960660000000  0.5682780000000  0.4655020000000 1.0
C      1  0.5451070000000  0.4729580000000  0.5639350000000 1.0
C      1  0.5034160000000  0.5428250000000  0.6069390000000 1.0
C      1  0.5155250000000  0.5224790000000  0.4950960000000 1.0
C      1  0.3803600000000  0.4892400000000  0.4308420000000 1.0
C      1  0.5241180000000  0.4577390000000  0.3778150000000 1.0
C      1  0.5738010000000  0.5506260000000  0.5565760000000 1.0
C      1  0.5754220000000  0.4199610000000  0.4674330000000 1.0
C      1  0.5678470000000  0.4791960000000  0.5050690000000 1.0
C      1  0.4007930000000  0.4234130000000  0.5164650000000 1.0
C      1  0.5102350000000  0.4154920000000  0.4819630000000 1.0
C      1  0.4370040000000  0.5802630000000  0.4836180000000 1.0
C      1  0.4593360000000  0.3843450000000  0.5200700000000 1.0
C      1  0.5056970000000  0.4735330000000  0.4941640000000 1.0
C      1  0.4769190000000  0.5609890000000  0.5117490000000 1.0
C      1  0.4612700000000  0.5154580000000  0.5268510000000 1.0
C      1  0.4481300000000  0.5084960000000  0.4387100000000 1.0
C      1  0.5711700000000  0.4915470000000  0.4468380000000 1.0
C      1  0.4942880000000  0.5206120000000  0.5907970000000 1.0
C      1  0.4624050000000  0.4702970000000  0.4649770000000 1.0
C      1  0.6012580000000  0.5248410000000  0.4344350000000 1.0
C      1  0.5500900000000  0.5668220000000  0.5557380000000 1.0
C      1  0.4619690000000  0.4334110000000  0.5839300000000 1.0
C      1  0.5241680000000  0.4075120000000  0.4362930000000 1.0
C      1  0.4753970000000  0.5704020000000  0.5386630000000 1.0
C      1  0.4573150000000  0.5507460000000  0.6084270000000 1.0
C      1  0.4836220000000  0.5084540000000  0.5436690000000 1.0
C      1  0.5778650000000  0.5331090000000  0.5779590000000 1.0
C      1  0.5109700000000  0.4726120000000  0.6519660000000 1.0
C      1  0.4454810000000  0.4365270000000  0.5077420000000 1.0
C      1  0.3908440000000  0.4161700000000  0.6170220000000 1.0
C      1  0.6060830000000  0.4613200000000  0.4797920000000 1.0
C      1  0.5492280000000  0.6008110000000  0.4315240000000 1.0
C      1  0.4575730000000  0.6279180000000  0.4781230000000 1.0
C      1  0.5443760000000  0.3622280000000  0.5387620000000 1.0
C      1  0.4032470000000  0.5783790000000  0.5457810000000 1.0
C      1  0.4581380000000  0.5230770000000  0.6180990000000 1.0
C      1  0.4479300000000  0.5332580000000  0.4579230000000 1.0
C      1  0.4224650000000  0.4220810000000  0.4985070000000 1.0
C      1  0.4747520000000  0.6351430000000  0.5505900000000 1.0
C      1  0.5656470000000  0.4770980000000  0.5833550000000 1.0
C      1  0.4001060000000  0.4746550000000  0.5706000000000 1.0
C      1  0.5406150000000  0.4118960000000  0.5209350000000 1.0
C      1  0.4875080000000  0.4720810000000  0.6391480000000 1.0
C      1  0.5520330000000  0.5666320000000  0.4932600000000 1.0
C      1  0.5677110000000  0.4358460000000  0.4436900000000 1.0
C      1  0.4291150000000  0.5175060000000  0.3964580000000 1.0
C      1  0.4951590000000  0.4359510000000  0.5228710000000 1.0
C      1  0.4156770000000  0.4851430000000  0.4763350000000 1.0
C      1  0.4326300000000  0.4678940000000  0.4138640000000 1.0
C      1  0.5368360000000  0.4681460000000  0.4000150000000 1.0
C      1  0.4138620000000  0.4225600000000  0.6065860000000 1.0
C      1  0.5686480000000  0.5569800000000  0.4197580000000 1.0
C      1  0.6038130000000  0.4433050000000  0.5364190000000 1.0
C      1  0.5028050000000  0.4874510000000  0.5399950000000 1.0
C      1  0.4696070000000  0.5288920000000  0.4790810000000 1.0
C      1  0.4637070000000  0.6187240000000  0.5316710000000 1.0
C      1  0.5522220000000  0.3698140000000  0.4747830000000 1.0
C      1  0.4564260000000  0.4255530000000  0.4066490000000 1.0
C      1  0.5084170000000  0.4443370000000  0.5913950000000 1.0
C      1  0.3932860000000  0.5327100000000  0.5354460000000 1.0
C      1  0.4981620000000  0.3989410000000  0.4290010000000 1.0
C      1  0.5638070000000  0.4942590000000  0.6055520000000 1.0
C      1  0.5981710000000  0.5786640000000  0.4914220000000 1.0
C      1  0.5916750000000  0.4358490000000  0.4876790000000 1.0
C      1  0.4654650000000  0.5353390000000  0.5063490000000 1.0
C      1  0.4699750000000  0.5578720000000  0.3998450000000 1.0
C      1  0.5470800000000  0.3883950000000  0.5343960000000 1.0
C      1  0.5677730000000  0.5221300000000  0.6016920000000 1.0
C      1  0.5861290000000  0.4910850000000  0.3980360000000 1.0
C      1  0.4811300000000  0.4484420000000  0.4577250000000 1.0
C      1  0.4949370000000  0.5549920000000  0.5545000000000 1.0
C      1  0.5158950000000  0.4175340000000  0.5095410000000 1.0
C      1  0.4508730000000  0.4133950000000  0.4323150000000 1.0
C      1  0.5419710000000  0.6166750000000  0.5086740000000 1.0
C      1  0.4782240000000  0.4758690000000  0.6125630000000 1.0
C      1  0.4367920000000  0.4294200000000  0.5952260000000 1.0
C      1  0.4217210000000  0.5312600000000  0.4722450000000 1.0
C      1  0.4740590000000  0.5336280000000  0.3846320000000 1.0
C      1  0.5471360000000  0.5759790000000  0.4186140000000 1.0
C      1  0.4550820000000  0.5920150000000  0.5388710000000 1.0
C      1  0.3850480000000  0.5645020000000  0.4742910000000 1.0
C      1  0.5114970000000  0.6175320000000  0.4637810000000 1.0
C      1  0.4600540000000  0.6280900000000  0.5050060000000 1.0
C      1  0.5462690000000  0.5917430000000  0.4999640000000 1.0
C      1  0.3906600000000  0.4646550000000  0.4357820000000 1.0
C      1  0.4755040000000  0.5035000000000  0.6052610000000 1.0
C      1  0.5125860000000  0.6401680000000  0.4808350000000 1.0
C      1  0.3962480000000  0.4420780000000  0.5353110000000 1.0
C      1  0.4725820000000  0.3953150000000  0.4430640000000 1.0
C      1  0.5228090000000  0.5604760000000  0.5533170000000 1.0
C      1  0.4855880000000  0.4809140000000  0.4257370000000 1.0
C      1  0.5493250000000  0.5092810000000  0.4426730000000 1.0
C      1  0.4211380000000  0.5427080000000  0.4093230000000 1.0
C      1  0.5861460000000  0.5292190000000  0.4944000000000 1.0
C      1  0.5302420000000  0.4925160000000  0.5488360000000 1.0
C      1  0.4253370000000  0.5379990000000  0.5708140000000 1.0
C      1  0.5700950000000  0.5350420000000  0.4001630000000 1.0
C      1  0.3830290000000  0.5155870000000  0.4257270000000 1.0
C      1  0.4721660000000  0.4308560000000  0.5030940000000 1.0
C      1  0.4406900000000  0.4642620000000  0.5093800000000 1.0
C      1  0.4406510000000  0.4744440000000  0.4829860000000 1.0
END
