TITL C-599893-4344-399 7.20160843040027e-05 125000 -824.22052921204 0 0 135 (C1) n - 1
REM
REM in /home/nfs/bkarasulu/CARBON/AIRSS/Generating-Clusters/TERSOFF/Only-C1/FIRE-HFTN
REM
REM
REM
REM
REM
REM ./C.cell (11c1c37f851c82e70ff6c80c92926a4b)
REM AIRSS Version 0.9.1 bugfix July 2018 build 013d7b7c2542+ Fri, 06 Jul 2018 19:26:36 +0100
REM compiler GCC version 9.2.1 20190827 (Red Hat 9.2.1-1)
REM options -cpp -mtune=generic -march=x86-64 -g -O0 -fpre-include=/usr/include/finclude/math-vector-fortran.h
REM seed -945134525 -133763578 1523436321 -1787553079 -832266519 1818284627 -994114660 -1749588885 -710073869 -1651074125 -849352199 -404426809 1912700198 55779552 2084610883 693256624 -86667415 200217204 832172375 1380038345 -1347681863 -114011419 2051186852 -1058782304 1747272274 -1445124804 1347222458 1496288767 369895313 841113052 2071706279 985884529 -205733295
REM
CELL 1.54180   50.00000   50.00000   50.00000   90.00000   90.00000   90.00000
LATT -1
SFAC C  
C      1  0.4216090000000  0.5465370000000  0.5506610000000 1.0
C      1  0.5680570000000  0.4255940000000  0.5448730000000 1.0
C      1  0.5144190000000  0.4449510000000  0.4674430000000 1.0
C      1  0.4454020000000  0.4941350000000  0.5902590000000 1.0
C      1  0.4249600000000  0.4341570000000  0.5493410000000 1.0
C      1  0.5282510000000  0.4828450000000  0.5770910000000 1.0
C      1  0.5508150000000  0.6305180000000  0.4699160000000 1.0
C      1  0.5394550000000  0.5286590000000  0.4572150000000 1.0
C      1  0.5109810000000  0.5706810000000  0.4829140000000 1.0
C      1  0.4828920000000  0.4069910000000  0.4681630000000 1.0
C      1  0.4756000000000  0.5664930000000  0.4516710000000 1.0
C      1  0.4096040000000  0.4517440000000  0.4832060000000 1.0
C      1  0.5704260000000  0.5511200000000  0.5168630000000 1.0
C      1  0.4705570000000  0.4682500000000  0.4789100000000 1.0
C      1  0.4363990000000  0.5048310000000  0.5657520000000 1.0
C      1  0.5915780000000  0.5249270000000  0.4675580000000 1.0
C      1  0.5919130000000  0.5113420000000  0.4424230000000 1.0
C      1  0.5853950000000  0.4926470000000  0.5623000000000 1.0
C      1  0.5298160000000  0.5253610000000  0.4832500000000 1.0
C      1  0.5369070000000  0.5015240000000  0.5016530000000 1.0
C      1  0.4881350000000  0.5275960000000  0.5083150000000 1.0
C      1  0.4637010000000  0.4994240000000  0.3940750000000 1.0
C      1  0.6072300000000  0.5739810000000  0.4572610000000 1.0
C      1  0.4737580000000  0.4481180000000  0.4996650000000 1.0
C      1  0.4332830000000  0.5078600000000  0.4330360000000 1.0
C      1  0.5384020000000  0.4354380000000  0.4839550000000 1.0
C      1  0.5214010000000  0.5939730000000  0.4958870000000 1.0
C      1  0.5025250000000  0.4125120000000  0.5270070000000 1.0
C      1  0.3897080000000  0.5441920000000  0.5106350000000 1.0
C      1  0.4958160000000  0.5499810000000  0.6012990000000 1.0
C      1  0.4856630000000  0.4730820000000  0.6024080000000 1.0
C      1  0.5447030000000  0.4112660000000  0.5510680000000 1.0
C      1  0.4332830000000  0.4182600000000  0.5288000000000 1.0
C      1  0.5699270000000  0.4738270000000  0.4117850000000 1.0
C      1  0.4802700000000  0.5265150000000  0.6022160000000 1.0
C      1  0.5408410000000  0.4864430000000  0.5507950000000 1.0
C      1  0.5022330000000  0.4223540000000  0.4534350000000 1.0
C      1  0.5055910000000  0.4255510000000  0.4251270000000 1.0
C      1  0.5974500000000  0.4284040000000  0.4924510000000 1.0
C      1  0.4236290000000  0.4855710000000  0.5217670000000 1.0
C      1  0.5627880000000  0.4918210000000  0.4894460000000 1.0
C      1  0.4990890000000  0.6036400000000  0.5433290000000 1.0
C      1  0.5094830000000  0.4636190000000  0.5881730000000 1.0
C      1  0.5271480000000  0.4442670000000  0.4150150000000 1.0
C      1  0.5467220000000  0.5738260000000  0.5542870000000 1.0
C      1  0.4777140000000  0.4876930000000  0.5332260000000 1.0
C      1  0.4631780000000  0.4028290000000  0.4865700000000 1.0
C      1  0.4722720000000  0.5383040000000  0.4527260000000 1.0
C      1  0.4239480000000  0.4839930000000  0.5499830000000 1.0
C      1  0.5132220000000  0.4838350000000  0.5031270000000 1.0
C      1  0.5473240000000  0.5545280000000  0.5339300000000 1.0
C      1  0.5101810000000  0.4351330000000  0.5815630000000 1.0
C      1  0.4461270000000  0.4073480000000  0.5073960000000 1.0
C      1  0.5433590000000  0.4488800000000  0.5096850000000 1.0
C      1  0.5210200000000  0.5476830000000  0.6158600000000 1.0
C      1  0.5921920000000  0.5532660000000  0.4710590000000 1.0
C      1  0.4795760000000  0.4945140000000  0.3484820000000 1.0
C      1  0.4007220000000  0.5492270000000  0.5343290000000 1.0
C      1  0.5540310000000  0.4525680000000  0.4237580000000 1.0
C      1  0.4195670000000  0.4406790000000  0.4608100000000 1.0
C      1  0.6062130000000  0.5977630000000  0.4714870000000 1.0
C      1  0.4522720000000  0.5325530000000  0.4720500000000 1.0
C      1  0.5650960000000  0.4710460000000  0.4709210000000 1.0
C      1  0.3931100000000  0.5392370000000  0.4833660000000 1.0
C      1  0.4063880000000  0.5494630000000  0.4215300000000 1.0
C      1  0.5161680000000  0.5885880000000  0.4362340000000 1.0
C      1  0.4563090000000  0.5638190000000  0.5128400000000 1.0
C      1  0.4070380000000  0.5162540000000  0.4742870000000 1.0
C      1  0.5414770000000  0.3928560000000  0.5042590000000 1.0
C      1  0.5837440000000  0.4947970000000  0.4225600000000 1.0
C      1  0.5796490000000  0.5148770000000  0.5777230000000 1.0
C      1  0.5174410000000  0.4584570000000  0.5150680000000 1.0
C      1  0.4859630000000  0.4251250000000  0.5696710000000 1.0
C      1  0.5146470000000  0.4888860000000  0.4207740000000 1.0
C      1  0.5690140000000  0.4511050000000  0.5286480000000 1.0
C      1  0.5433690000000  0.5491120000000  0.5973420000000 1.0
C      1  0.4814330000000  0.4386430000000  0.3854880000000 1.0
C      1  0.4723290000000  0.4996570000000  0.5999190000000 1.0
C      1  0.4958570000000  0.4702550000000  0.4628330000000 1.0
C      1  0.4985260000000  0.4929110000000  0.4436850000000 1.0
C      1  0.5324640000000  0.5684780000000  0.5777700000000 1.0
C      1  0.5267580000000  0.5338760000000  0.5376310000000 1.0
C      1  0.5293260000000  0.4021070000000  0.5281360000000 1.0
C      1  0.5325780000000  0.4192270000000  0.5754370000000 1.0
C      1  0.5394880000000  0.6103800000000  0.4820280000000 1.0
C      1  0.4433450000000  0.5001880000000  0.5074590000000 1.0
C      1  0.5020410000000  0.5692400000000  0.5788070000000 1.0
C      1  0.4342280000000  0.5087300000000  0.4632410000000 1.0
C      1  0.5803560000000  0.5672860000000  0.4956250000000 1.0
C      1  0.4789710000000  0.4863130000000  0.3744710000000 1.0
C      1  0.4250090000000  0.4582700000000  0.5650590000000 1.0
C      1  0.4092730000000  0.4669330000000  0.5054920000000 1.0
C      1  0.5675790000000  0.4752030000000  0.5476980000000 1.0
C      1  0.3904360000000  0.5603800000000  0.4648980000000 1.0
C      1  0.4938660000000  0.4639960000000  0.3836280000000 1.0
C      1  0.4671760000000  0.5680020000000  0.5407590000000 1.0
C      1  0.4587480000000  0.5060850000000  0.4206270000000 1.0
C      1  0.4968780000000  0.5343660000000  0.5377870000000 1.0
C      1  0.4702980000000  0.5403130000000  0.5503580000000 1.0
C      1  0.4868060000000  0.5824630000000  0.5570960000000 1.0
C      1  0.4533350000000  0.5814590000000  0.4630120000000 1.0
C      1  0.4439500000000  0.5302090000000  0.5569600000000 1.0
C      1  0.5110270000000  0.6044980000000  0.5195540000000 1.0
C      1  0.5147630000000  0.4674730000000  0.4026680000000 1.0
C      1  0.4354610000000  0.4320950000000  0.4409240000000 1.0
C      1  0.5935200000000  0.4475050000000  0.5113730000000 1.0
C      1  0.4386150000000  0.4648310000000  0.5912990000000 1.0
C      1  0.4554650000000  0.4250020000000  0.4244500000000 1.0
C      1  0.4137910000000  0.5236290000000  0.4199490000000 1.0
C      1  0.5088360000000  0.5429390000000  0.4917930000000 1.0
C      1  0.4877230000000  0.4051090000000  0.5500260000000 1.0
C      1  0.5801040000000  0.4113060000000  0.4805230000000 1.0
C      1  0.4707840000000  0.4687990000000  0.5497210000000 1.0
C      1  0.4524830000000  0.5825110000000  0.4917150000000 1.0
C      1  0.5273140000000  0.5997220000000  0.4154680000000 1.0
C      1  0.5519660000000  0.4099000000000  0.4840300000000 1.0
C      1  0.4796720000000  0.5143060000000  0.4386910000000 1.0
C      1  0.5906520000000  0.5944080000000  0.4942060000000 1.0
C      1  0.4963770000000  0.4386390000000  0.5148570000000 1.0
C      1  0.5560870000000  0.5238020000000  0.5916670000000 1.0
C      1  0.5836830000000  0.5258310000000  0.5157370000000 1.0
C      1  0.4487430000000  0.4876600000000  0.4809560000000 1.0
C      1  0.5431540000000  0.5371590000000  0.4328180000000 1.0
C      1  0.5838340000000  0.5107970000000  0.4915980000000 1.0
C      1  0.4802380000000  0.4255660000000  0.4105720000000 1.0
C      1  0.4904240000000  0.4979430000000  0.5107280000000 1.0
C      1  0.5015960000000  0.5758660000000  0.4561950000000 1.0
C      1  0.4582640000000  0.5333000000000  0.5017570000000 1.0
C      1  0.4620940000000  0.4548340000000  0.6054810000000 1.0
C      1  0.5374130000000  0.5080800000000  0.5318420000000 1.0
C      1  0.4293730000000  0.5835620000000  0.4482790000000 1.0
C      1  0.5382770000000  0.5017790000000  0.5957230000000 1.0
C      1  0.4065450000000  0.5678650000000  0.4429320000000 1.0
C      1  0.4692020000000  0.4454530000000  0.5615780000000 1.0
C      1  0.5613210000000  0.4536160000000  0.4510250000000 1.0
END
