TITL C-599893-4344-163 0.00147612597367175 125000 -86.151157072833 0 0 16 (C1) n - 1
REM
REM in /home/nfs/bkarasulu/CARBON/AIRSS/Generating-Clusters/TERSOFF/Only-C1/FIRE-HFTN
REM
REM
REM
REM
REM
REM ./C.cell (11c1c37f851c82e70ff6c80c92926a4b)
REM AIRSS Version 0.9.1 bugfix July 2018 build 013d7b7c2542+ Fri, 06 Jul 2018 19:26:36 +0100
REM compiler GCC version 9.2.1 20190827 (Red Hat 9.2.1-1)
REM options -cpp -mtune=generic -march=x86-64 -g -O0 -fpre-include=/usr/include/finclude/math-vector-fortran.h
REM seed -307668328 664088663 -593306817 25433399 -26219749 296380451 -1225512997 731067881 882164917 -1010919614 -1875611978 -2006457526 2094656492 431080063 -2058899264 -1095046599 1296789664 -1216030807 -1224200386 1676361779 -1239217418 -252659596 1495227139 -1136953689 1945519563 1230796357 -443822537 28657527 -333488738 402955894 -1261149009 -2082871760 277050347
REM
CELL 1.54180   50.00000   50.00000   50.00000   90.00000   90.00000   90.00000
LATT -1
SFAC C  
C      1  0.5201600000000  0.4831280000000  0.4815320000000 1.0
C      1  0.5615510000000  0.4271800000000  0.4999000000000 1.0
C      1  0.4706840000000  0.4919600000000  0.5030020000000 1.0
C      1  0.4805590000000  0.5376990000000  0.5190350000000 1.0
C      1  0.5329180000000  0.5079660000000  0.4846980000000 1.0
C      1  0.5308610000000  0.4574120000000  0.4421160000000 1.0
C      1  0.5061800000000  0.5425660000000  0.5087220000000 1.0
C      1  0.5329950000000  0.4611790000000  0.4691300000000 1.0
C      1  0.5266810000000  0.5315590000000  0.4956480000000 1.0
C      1  0.4939490000000  0.4813570000000  0.4914290000000 1.0
C      1  0.4460020000000  0.4846390000000  0.4937200000000 1.0
C      1  0.4627230000000  0.5586400000000  0.5236140000000 1.0
C      1  0.5478430000000  0.4434390000000  0.4848360000000 1.0
C      1  0.4729310000000  0.5107130000000  0.5244040000000 1.0
C      1  0.4457190000000  0.5778870000000  0.5280390000000 1.0
C      1  0.4682440000000  0.5026760000000  0.5501770000000 1.0
END
