TITL C-599895-9959-601 7.1086820505504 125000 -448.971876978535 0 0 74 (C1) n - 1
REM
REM in /home/nfs/bkarasulu/CARBON/AIRSS/Generating-Clusters/TERSOFF/Only-C1/FIRE-HFTN
REM
REM
REM
REM
REM
REM ./C.cell (11c1c37f851c82e70ff6c80c92926a4b)
REM AIRSS Version 0.9.1 bugfix July 2018 build 013d7b7c2542+ Fri, 06 Jul 2018 19:26:36 +0100
REM compiler GCC version 9.2.1 20190827 (Red Hat 9.2.1-1)
REM options -cpp -mtune=generic -march=x86-64 -g -O0 -fpre-include=/usr/include/finclude/math-vector-fortran.h
REM seed -1709299072 319213088 54934819 2018185947 1626274033 656483288 735105934 1450571751 1830225283 -1951804332 949725712 -1312202143 1493631375 480550394 -1261682793 -1921938482 1112996139 1383108525 -1506507872 1402236739 573990589 -1308019263 552776626 -619397715 1825559232 1560180935 -1079772899 1242811317 1904318631 -35686983 1210394726 92575386 -701462635
REM
CELL 1.54180   50.00000   50.00000   50.00000   90.00000   90.00000   90.00000
LATT -1
SFAC C  
C      1  0.4653490000000  0.4891530000000  0.4814560000000 1.0
C      1  0.4777580000000  0.5048860000000  0.5783090000000 1.0
C      1  0.5107680000000  0.4917850000000  0.3948000000000 1.0
C      1  0.5530670000000  0.5598510000000  0.5519770000000 1.0
C      1  0.4469800000000  0.4669210000000  0.4866640000000 1.0
C      1  0.5534980000000  0.4716030000000  0.3656990000000 1.0
C      1  0.5132160000000  0.4147530000000  0.5485720000000 1.0
C      1  0.4504030000000  0.5456490000000  0.4588570000000 1.0
C      1  0.4808720000000  0.4542750000000  0.5323100000000 1.0
C      1  0.4325010000000  0.4406150000000  0.5412330000000 1.0
C      1  0.5066510000000  0.4890640000000  0.4223560000000 1.0
C      1  0.4587200000000  0.5710920000000  0.5908740000000 1.0
C      1  0.4946220000000  0.4823530000000  0.5720910000000 1.0
C      1  0.5023980000000  0.6043990000000  0.5175380000000 1.0
C      1  0.4750620000000  0.5990100000000  0.5289700000000 1.0
C      1  0.5684770000000  0.4816200000000  0.5255420000000 1.0
C      1  0.4587400000000  0.5352310000000  0.4085080000000 1.0
C      1  0.4922810000000  0.5504980000000  0.5614870000000 1.0
C      1  0.4904500000000  0.5038520000000  0.3786220000000 1.0
C      1  0.4986110000000  0.4457270000000  0.5118270000000 1.0
C      1  0.5559220000000  0.5104920000000  0.5769520000000 1.0
C      1  0.4183740000000  0.4580950000000  0.5263390000000 1.0
C      1  0.5548710000000  0.5350740000000  0.5625480000000 1.0
C      1  0.5513080000000  0.4928600000000  0.5062550000000 1.0
C      1  0.6020050000000  0.4550840000000  0.3824220000000 1.0
C      1  0.5395100000000  0.5175550000000  0.5132280000000 1.0
C      1  0.4917330000000  0.5292140000000  0.5801310000000 1.0
C      1  0.4593110000000  0.4393570000000  0.5420980000000 1.0
C      1  0.5327160000000  0.4286350000000  0.5647510000000 1.0
C      1  0.5449970000000  0.4852200000000  0.5684430000000 1.0
C      1  0.4510390000000  0.5437210000000  0.4324220000000 1.0
C      1  0.4380950000000  0.5169980000000  0.5418540000000 1.0
C      1  0.5243420000000  0.4458530000000  0.5855200000000 1.0
C      1  0.4690560000000  0.5607180000000  0.5012270000000 1.0
C      1  0.5686870000000  0.5108750000000  0.6013630000000 1.0
C      1  0.5582260000000  0.4682400000000  0.5482480000000 1.0
C      1  0.4989890000000  0.4984070000000  0.5286820000000 1.0
C      1  0.5244330000000  0.4763500000000  0.3239790000000 1.0
C      1  0.4383040000000  0.5036420000000  0.5164700000000 1.0
C      1  0.4556850000000  0.5132650000000  0.4945720000000 1.0
C      1  0.5208240000000  0.4736840000000  0.5803300000000 1.0
C      1  0.5512900000000  0.4403260000000  0.5442370000000 1.0
C      1  0.5346320000000  0.4749030000000  0.4923450000000 1.0
C      1  0.4576310000000  0.5401170000000  0.4852940000000 1.0
C      1  0.4767380000000  0.5731050000000  0.5703670000000 1.0
C      1  0.5004440000000  0.4868050000000  0.4480110000000 1.0
C      1  0.5077610000000  0.4656320000000  0.4918000000000 1.0
C      1  0.5785600000000  0.4630680000000  0.3743060000000 1.0
C      1  0.4560510000000  0.5801210000000  0.5179460000000 1.0
C      1  0.4912170000000  0.4810350000000  0.4737770000000 1.0
C      1  0.5009910000000  0.4879940000000  0.3296590000000 1.0
C      1  0.4813970000000  0.5979170000000  0.5578820000000 1.0
C      1  0.5079760000000  0.6085000000000  0.5618830000000 1.0
C      1  0.5281410000000  0.4181070000000  0.4710200000000 1.0
C      1  0.4722560000000  0.5215990000000  0.3902280000000 1.0
C      1  0.5458240000000  0.4697810000000  0.3387060000000 1.0
C      1  0.5032550000000  0.5449820000000  0.5349110000000 1.0
C      1  0.5017360000000  0.4189530000000  0.4647990000000 1.0
C      1  0.4344470000000  0.5689410000000  0.5325060000000 1.0
C      1  0.4758390000000  0.4264250000000  0.4676550000000 1.0
C      1  0.4552290000000  0.4418670000000  0.4762070000000 1.0
C      1  0.5438450000000  0.4288450000000  0.5172650000000 1.0
C      1  0.4522560000000  0.5069170000000  0.5647170000000 1.0
C      1  0.5146470000000  0.4241390000000  0.5213320000000 1.0
C      1  0.5438960000000  0.5829250000000  0.5412970000000 1.0
C      1  0.5156820000000  0.5205610000000  0.5278990000000 1.0
C      1  0.4950620000000  0.5570630000000  0.5108570000000 1.0
C      1  0.4889130000000  0.4980380000000  0.3512410000000 1.0
C      1  0.4293060000000  0.5440530000000  0.5417080000000 1.0
C      1  0.5476900000000  0.4225930000000  0.4896690000000 1.0
C      1  0.4301590000000  0.4765040000000  0.5088000000000 1.0
C      1  0.5347270000000  0.4824200000000  0.3835970000000 1.0
C      1  0.5237550000000  0.6025250000000  0.5381000000000 1.0
C      1  0.4898010000000  0.4775620000000  0.5444530000000 1.0
END
