TITL C-599896-8500-694 18515.0111677546 125000 -1092.226377576 0 0 178 (C1) n - 1
REM
REM in /home/nfs/bkarasulu/CARBON/AIRSS/Generating-Clusters/TERSOFF/Only-C1/FIRE-HFTN
REM
REM
REM
REM
REM
REM ./C.cell (11c1c37f851c82e70ff6c80c92926a4b)
REM AIRSS Version 0.9.1 bugfix July 2018 build 013d7b7c2542+ Fri, 06 Jul 2018 19:26:36 +0100
REM compiler GCC version 9.2.1 20190827 (Red Hat 9.2.1-1)
REM options -cpp -mtune=generic -march=x86-64 -g -O0 -fpre-include=/usr/include/finclude/math-vector-fortran.h
REM seed 522444310 846811587 1245543391 1830247875 -993339062 2113859164 -1586469776 -1385914521 421736954 -388526085 251096439 461673578 1945504388 -111792279 1174405494 -1800500475 -1101962296 -1369164640 -479359162 -618617444 1656087923 733709963 1728573900 -764565886 -622121093 2139109853 1954916696 2099951455 -1248220112 -525321134 1129223651 -244229665 -262227105
REM
CELL 1.54180   50.00000   50.00000   50.00000   90.00000   90.00000   90.00000
LATT -1
SFAC C  
C      1  0.4502350000000  0.5098210000000  0.5263820000000 1.0
C      1  0.5983290000000  0.4325230000000  0.5517040000000 1.0
C      1  0.5138910000000  0.5440060000000  0.3859160000000 1.0
C      1  0.4753180000000  0.6278090000000  0.5507950000000 1.0
C      1  0.5037800000000  0.6076850000000  0.6337250000000 1.0
C      1  0.5960090000000  0.5190080000000  0.4498120000000 1.0
C      1  0.5855030000000  0.5558120000000  0.3762440000000 1.0
C      1  0.5290980000000  0.4573120000000  0.4277050000000 1.0
C      1  0.4568050000000  0.4683150000000  0.4845790000000 1.0
C      1  0.3888880000000  0.4923070000000  0.5185460000000 1.0
C      1  0.5004650000000  0.5691190000000  0.6046820000000 1.0
C      1  0.4834000000000  0.3994360000000  0.5404680000000 1.0
C      1  0.5406640000000  0.5137540000000  0.4140270000000 1.0
C      1  0.4507770000000  0.6196500000000  0.5568160000000 1.0
C      1  0.5413090000000  0.4896750000000  0.4811690000000 1.0
C      1  0.4816760000000  0.5471390000000  0.5290550000000 1.0
C      1  0.4955090000000  0.4291350000000  0.3835900000000 1.0
C      1  0.5351810000000  0.4185630000000  0.5685110000000 1.0
C      1  0.5074590000000  0.4253050000000  0.5753650000000 1.0
C      1  0.4635130000000  0.5606630000000  0.4585880000000 1.0
C      1  0.6056230000000  0.5589960000000  0.6126430000000 1.0
C      1  0.3963700000000  0.5694440000000  0.5461100000000 1.0
C      1  0.5004580000000  0.4092750000000  0.4938490000000 1.0
C      1  0.5153130000000  0.5124570000000  0.5871970000000 1.0
C      1  0.4943510000000  0.4913400000000  0.4948940000000 1.0
C      1  0.3979100000000  0.5229030000000  0.5548550000000 1.0
C      1  0.6511080000000  0.5111780000000  0.5758100000000 1.0
C      1  0.5623750000000  0.5452220000000  0.3836450000000 1.0
C      1  0.5341040000000  0.4654880000000  0.5818990000000 1.0
C      1  0.5045270000000  0.5699130000000  0.3932340000000 1.0
C      1  0.5337850000000  0.5743550000000  0.5055040000000 1.0
C      1  0.4209760000000  0.5104730000000  0.5955490000000 1.0
C      1  0.4206070000000  0.5760220000000  0.5591490000000 1.0
C      1  0.5574210000000  0.3960580000000  0.5004860000000 1.0
C      1  0.6039930000000  0.4280040000000  0.4742920000000 1.0
C      1  0.4255680000000  0.5114950000000  0.4162940000000 1.0
C      1  0.4184520000000  0.4791630000000  0.5509520000000 1.0
C      1  0.4345700000000  0.4189730000000  0.5233390000000 1.0
C      1  0.6333470000000  0.5018790000000  0.5573030000000 1.0
C      1  0.4738250000000  0.4058310000000  0.4276240000000 1.0
C      1  0.6085670000000  0.5661990000000  0.3699420000000 1.0
C      1  0.4832300000000  0.6150930000000  0.4973380000000 1.0
C      1  0.4874390000000  0.5590660000000  0.4755690000000 1.0
C      1  0.4214320000000  0.4263470000000  0.4470660000000 1.0
C      1  0.5663870000000  0.4724720000000  0.4853880000000 1.0
C      1  0.4430240000000  0.4863280000000  0.4667820000000 1.0
C      1  0.4847920000000  0.4666300000000  0.5624510000000 1.0
C      1  0.5301600000000  0.6027950000000  0.5072870000000 1.0
C      1  0.4155380000000  0.5831890000000  0.4885260000000 1.0
C      1  0.4184390000000  0.5297830000000  0.5748430000000 1.0
C      1  0.4798870000000  0.5160450000000  0.4585830000000 1.0
C      1  0.5337550000000  0.4479630000000  0.4012790000000 1.0
C      1  0.5050980000000  0.5263190000000  0.4475980000000 1.0
C      1  0.4202130000000  0.5359120000000  0.4315570000000 1.0
C      1  0.4558190000000  0.4234040000000  0.4128220000000 1.0
C      1  0.4527230000000  0.5043390000000  0.4205490000000 1.0
C      1  0.5213600000000  0.4485260000000  0.4776020000000 1.0
C      1  0.5326000000000  0.4413790000000  0.4515970000000 1.0
C      1  0.5553060000000  0.4179940000000  0.4826240000000 1.0
C      1  0.4165020000000  0.4907490000000  0.4732140000000 1.0
C      1  0.5942780000000  0.4778750000000  0.4968960000000 1.0
C      1  0.5498640000000  0.5059290000000  0.5547640000000 1.0
C      1  0.4592150000000  0.5005630000000  0.4472070000000 1.0
C      1  0.3923940000000  0.4370030000000  0.4971890000000 1.0
C      1  0.6005630000000  0.5209360000000  0.5196130000000 1.0
C      1  0.5391050000000  0.5163440000000  0.4914580000000 1.0
C      1  0.6130150000000  0.5145260000000  0.4719070000000 1.0
C      1  0.3585220000000  0.5043480000000  0.4822690000000 1.0
C      1  0.5631050000000  0.4015960000000  0.5279950000000 1.0
C      1  0.4420710000000  0.4913690000000  0.5431530000000 1.0
C      1  0.5800620000000  0.5429180000000  0.4514080000000 1.0
C      1  0.4938380000000  0.5487470000000  0.5024780000000 1.0
C      1  0.4539910000000  0.5209480000000  0.5013200000000 1.0
C      1  0.5893970000000  0.4157380000000  0.5286570000000 1.0
C      1  0.5383240000000  0.6002650000000  0.6007410000000 1.0
C      1  0.4737500000000  0.5020460000000  0.6237880000000 1.0
C      1  0.5121630000000  0.3916240000000  0.5354160000000 1.0
C      1  0.4724010000000  0.4511550000000  0.4661840000000 1.0
C      1  0.4620760000000  0.4639580000000  0.5127270000000 1.0
C      1  0.5121160000000  0.4529960000000  0.3818570000000 1.0
C      1  0.6021150000000  0.4286680000000  0.5029380000000 1.0
C      1  0.3702220000000  0.5298550000000  0.4894250000000 1.0
C      1  0.4345060000000  0.5394820000000  0.4936500000000 1.0
C      1  0.4353860000000  0.5538030000000  0.5706670000000 1.0
C      1  0.3965960000000  0.4959090000000  0.5449760000000 1.0
C      1  0.5545430000000  0.5350960000000  0.5409670000000 1.0
C      1  0.5051570000000  0.6141700000000  0.5148000000000 1.0
C      1  0.4123450000000  0.5554110000000  0.4868340000000 1.0
C      1  0.5596700000000  0.4455170000000  0.4963780000000 1.0
C      1  0.5065990000000  0.4539850000000  0.5767800000000 1.0
C      1  0.4609720000000  0.4245480000000  0.4735840000000 1.0
C      1  0.4818360000000  0.4593170000000  0.5336270000000 1.0
C      1  0.5385990000000  0.4018340000000  0.5450440000000 1.0
C      1  0.4018670000000  0.4916790000000  0.4952610000000 1.0
C      1  0.3904420000000  0.5425850000000  0.4731660000000 1.0
C      1  0.4847540000000  0.4107850000000  0.5668600000000 1.0
C      1  0.4641060000000  0.5583300000000  0.5737050000000 1.0
C      1  0.5746170000000  0.5328410000000  0.5193270000000 1.0
C      1  0.4841510000000  0.5255710000000  0.6310470000000 1.0
C      1  0.5365930000000  0.6184520000000  0.5795770000000 1.0
C      1  0.5411180000000  0.4145680000000  0.4566890000000 1.0
C      1  0.4767320000000  0.5114740000000  0.4867090000000 1.0
C      1  0.6021780000000  0.4456740000000  0.4534690000000 1.0
C      1  0.4575320000000  0.6134770000000  0.4906220000000 1.0
C      1  0.4935070000000  0.5493640000000  0.6234910000000 1.0
C      1  0.6082100000000  0.4565140000000  0.5119460000000 1.0
C      1  0.5229880000000  0.6273990000000  0.5586060000000 1.0
C      1  0.4123340000000  0.4865170000000  0.4105190000000 1.0
C      1  0.4726580000000  0.4081270000000  0.4937410000000 1.0
C      1  0.3855690000000  0.5440960000000  0.5398160000000 1.0
C      1  0.4430420000000  0.5520790000000  0.4419300000000 1.0
C      1  0.5155930000000  0.5271340000000  0.5044230000000 1.0
C      1  0.5128730000000  0.4764230000000  0.4771340000000 1.0
C      1  0.5846630000000  0.5744440000000  0.6113430000000 1.0
C      1  0.5148320000000  0.5650990000000  0.5571250000000 1.0
C      1  0.4313200000000  0.6017510000000  0.5592820000000 1.0
C      1  0.5622820000000  0.5321740000000  0.4937340000000 1.0
C      1  0.5226870000000  0.3963150000000  0.4440730000000 1.0
C      1  0.5737370000000  0.4671150000000  0.5390510000000 1.0
C      1  0.5067480000000  0.4501510000000  0.5225090000000 1.0
C      1  0.6145990000000  0.4543780000000  0.5403840000000 1.0
C      1  0.4329550000000  0.6033560000000  0.4891900000000 1.0
C      1  0.4315240000000  0.4361510000000  0.4223660000000 1.0
C      1  0.4185850000000  0.4249650000000  0.4984030000000 1.0
C      1  0.5968630000000  0.4692200000000  0.4409410000000 1.0
C      1  0.5626450000000  0.5888240000000  0.6080930000000 1.0
C      1  0.5391150000000  0.4193660000000  0.3982940000000 1.0
C      1  0.4617120000000  0.4061940000000  0.5206430000000 1.0
C      1  0.4676990000000  0.4304240000000  0.3879970000000 1.0
C      1  0.4756990000000  0.4896530000000  0.5765950000000 1.0
C      1  0.4242970000000  0.4601490000000  0.5919800000000 1.0
C      1  0.5101630000000  0.4790330000000  0.4314470000000 1.0
C      1  0.5128480000000  0.5525120000000  0.4610400000000 1.0
C      1  0.5351970000000  0.5582190000000  0.5367820000000 1.0
C      1  0.4808970000000  0.5807670000000  0.3852190000000 1.0
C      1  0.6183400000000  0.5194310000000  0.5411380000000 1.0
C      1  0.3598010000000  0.4769680000000  0.4824990000000 1.0
C      1  0.5364690000000  0.5635430000000  0.4762500000000 1.0
C      1  0.5625160000000  0.5507790000000  0.4720680000000 1.0
C      1  0.5014090000000  0.6244330000000  0.5411390000000 1.0
C      1  0.4644840000000  0.5663530000000  0.3689560000000 1.0
C      1  0.4720310000000  0.5413720000000  0.3612380000000 1.0
C      1  0.5372670000000  0.4952450000000  0.5808720000000 1.0
C      1  0.5072930000000  0.4762330000000  0.3677680000000 1.0
C      1  0.5802180000000  0.4369290000000  0.5734030000000 1.0
C      1  0.5180760000000  0.5071870000000  0.4300150000000 1.0
C      1  0.5290680000000  0.4933520000000  0.5357510000000 1.0
C      1  0.3956470000000  0.5385680000000  0.4456690000000 1.0
C      1  0.5390380000000  0.5342640000000  0.3944260000000 1.0
C      1  0.4927030000000  0.5652640000000  0.5770760000000 1.0
C      1  0.3723980000000  0.4534760000000  0.4886860000000 1.0
C      1  0.4262600000000  0.4314670000000  0.5480140000000 1.0
C      1  0.5541420000000  0.4536430000000  0.5241010000000 1.0
C      1  0.5745760000000  0.4900810000000  0.5528460000000 1.0
C      1  0.5114260000000  0.4341720000000  0.4993970000000 1.0
C      1  0.4621950000000  0.4889360000000  0.6017740000000 1.0
C      1  0.5140870000000  0.5924520000000  0.6134280000000 1.0
C      1  0.5019100000000  0.3998840000000  0.4239610000000 1.0
C      1  0.4928750000000  0.4709950000000  0.4535290000000 1.0
C      1  0.5649030000000  0.5001260000000  0.4186370000000 1.0
C      1  0.5117810000000  0.4088240000000  0.3982430000000 1.0
C      1  0.5513010000000  0.6192460000000  0.5013580000000 1.0
C      1  0.4960200000000  0.5283540000000  0.3693700000000 1.0
C      1  0.6056570000000  0.5040140000000  0.4968810000000 1.0
C      1  0.5872720000000  0.4956860000000  0.4351360000000 1.0
C      1  0.4913180000000  0.5245960000000  0.5455720000000 1.0
C      1  0.6290810000000  0.4742830000000  0.5534990000000 1.0
C      1  0.4322790000000  0.4230950000000  0.4727780000000 1.0
C      1  0.5101410000000  0.5120120000000  0.5279760000000 1.0
C      1  0.5012140000000  0.5016660000000  0.3635210000000 1.0
C      1  0.4205760000000  0.4541980000000  0.5642670000000 1.0
C      1  0.4193930000000  0.4600980000000  0.4120150000000 1.0
C      1  0.3699340000000  0.5389460000000  0.5166650000000 1.0
C      1  0.5522980000000  0.4410450000000  0.5773400000000 1.0
C      1  0.4340840000000  0.4857310000000  0.6006770000000 1.0
C      1  0.5627120000000  0.4065650000000  0.3950640000000 1.0
C      1  0.4912640000000  0.5130120000000  0.5715700000000 1.0
C      1  0.5290530000000  0.4656090000000  0.5292770000000 1.0
END
