TITL C-599892-9790-977 0.227141516519634 125000 -379.468586135889 0 0 62 (C1) n - 1
REM
REM in /home/nfs/bkarasulu/CARBON/AIRSS/Generating-Clusters/TERSOFF/Only-C1/FIRE-HFTN
REM
REM
REM
REM
REM
REM ./C.cell (11c1c37f851c82e70ff6c80c92926a4b)
REM AIRSS Version 0.9.1 bugfix July 2018 build 013d7b7c2542+ Fri, 06 Jul 2018 19:26:36 +0100
REM compiler GCC version 9.2.1 20190827 (Red Hat 9.2.1-1)
REM options -cpp -mtune=generic -march=x86-64 -g -O0 -fpre-include=/usr/include/finclude/math-vector-fortran.h
REM seed 1172036367 -755646253 63881818 1167166025 -736901227 -285725087 -1875340491 -64633884 -1866747252 923852731 -1063389757 263700127 -1546935763 223733415 1559973261 -1156674906 1820997085 723231223 2032308185 522087758 -1964526579 907698409 1282001808 -1339700802 -2074139661 -1460444230 -868344376 -1194751334 658094751 -1927877721 1865819453 -1922252119 -345710975
REM
CELL 1.54180   50.00000   50.00000   50.00000   90.00000   90.00000   90.00000
LATT -1
SFAC C  
C      1  0.4145000000000  0.3812060000000  0.4915210000000 1.0
C      1  0.4994600000000  0.5249940000000  0.4878640000000 1.0
C      1  0.4555280000000  0.4646670000000  0.5827310000000 1.0
C      1  0.5502050000000  0.5950820000000  0.4979170000000 1.0
C      1  0.4947540000000  0.4661950000000  0.5226420000000 1.0
C      1  0.5499170000000  0.4616570000000  0.4740310000000 1.0
C      1  0.4667240000000  0.5511680000000  0.4348030000000 1.0
C      1  0.4943730000000  0.5224920000000  0.5138860000000 1.0
C      1  0.5308910000000  0.5641730000000  0.5391730000000 1.0
C      1  0.4791420000000  0.5718480000000  0.5352060000000 1.0
C      1  0.5407220000000  0.4767690000000  0.4518120000000 1.0
C      1  0.4711560000000  0.4685380000000  0.4791770000000 1.0
C      1  0.4103420000000  0.3667990000000  0.4702050000000 1.0
C      1  0.4040740000000  0.4120880000000  0.5846300000000 1.0
C      1  0.5851510000000  0.5188470000000  0.5125440000000 1.0
C      1  0.5426250000000  0.4809170000000  0.5276770000000 1.0
C      1  0.5355620000000  0.5433730000000  0.4248940000000 1.0
C      1  0.5144240000000  0.5609860000000  0.4194070000000 1.0
C      1  0.4467090000000  0.5164460000000  0.4694160000000 1.0
C      1  0.5108220000000  0.4780750000000  0.4496270000000 1.0
C      1  0.5956590000000  0.5130190000000  0.4887350000000 1.0
C      1  0.5233260000000  0.4634290000000  0.5158480000000 1.0
C      1  0.5898660000000  0.5693530000000  0.4935180000000 1.0
C      1  0.5307880000000  0.4496200000000  0.4916760000000 1.0
C      1  0.5928710000000  0.5682480000000  0.4666330000000 1.0
C      1  0.4521530000000  0.4885230000000  0.4726090000000 1.0
C      1  0.5224830000000  0.5159190000000  0.5518900000000 1.0
C      1  0.4729840000000  0.4776940000000  0.5658800000000 1.0
C      1  0.4298980000000  0.4533610000000  0.5746500000000 1.0
C      1  0.4877110000000  0.5630150000000  0.4224850000000 1.0
C      1  0.5556620000000  0.5923110000000  0.4493770000000 1.0
C      1  0.4727660000000  0.4578040000000  0.5059540000000 1.0
C      1  0.4922250000000  0.5215630000000  0.4610420000000 1.0
C      1  0.4548830000000  0.4377840000000  0.5137120000000 1.0
C      1  0.4379920000000  0.4173220000000  0.5138770000000 1.0
C      1  0.4560070000000  0.5637670000000  0.5245910000000 1.0
C      1  0.5724750000000  0.5191510000000  0.4430400000000 1.0
C      1  0.4937030000000  0.4601200000000  0.4634290000000 1.0
C      1  0.5544590000000  0.5551910000000  0.5263630000000 1.0
C      1  0.5663040000000  0.5740690000000  0.5084790000000 1.0
C      1  0.5456650000000  0.5072930000000  0.5381010000000 1.0
C      1  0.5920030000000  0.5140430000000  0.4623050000000 1.0
C      1  0.4390340000000  0.4351190000000  0.6151610000000 1.0
C      1  0.4345340000000  0.5315240000000  0.4898320000000 1.0
C      1  0.3988960000000  0.3970390000000  0.5632690000000 1.0
C      1  0.5088190000000  0.4393510000000  0.4764690000000 1.0
C      1  0.5627580000000  0.5458400000000  0.4352500000000 1.0
C      1  0.4202410000000  0.4328380000000  0.5932000000000 1.0
C      1  0.5052990000000  0.5717180000000  0.5405890000000 1.0
C      1  0.5457780000000  0.6026350000000  0.4723490000000 1.0
C      1  0.4977050000000  0.5108620000000  0.5392880000000 1.0
C      1  0.4190250000000  0.3966980000000  0.5142820000000 1.0
C      1  0.4592810000000  0.4531750000000  0.6091330000000 1.0
C      1  0.5627790000000  0.5274460000000  0.5272110000000 1.0
C      1  0.5058670000000  0.5054630000000  0.4426130000000 1.0
C      1  0.4661660000000  0.5303560000000  0.4537310000000 1.0
C      1  0.4396820000000  0.5491810000000  0.5092830000000 1.0
C      1  0.4046910000000  0.3918700000000  0.5378380000000 1.0
C      1  0.5517720000000  0.4997040000000  0.4382910000000 1.0
C      1  0.5285120000000  0.5158700000000  0.4288620000000 1.0
C      1  0.4875490000000  0.4847060000000  0.5433030000000 1.0
C      1  0.5726520000000  0.5696880000000  0.4466900000000 1.0
END
