TITL C-599893-4344-1000 0.249939554439339 125000 -757.879899825978 0 0 123 (C1) n - 1
REM
REM in /home/nfs/bkarasulu/CARBON/AIRSS/Generating-Clusters/TERSOFF/Only-C1/FIRE-HFTN
REM
REM
REM
REM
REM
REM ./C.cell (11c1c37f851c82e70ff6c80c92926a4b)
REM AIRSS Version 0.9.1 bugfix July 2018 build 013d7b7c2542+ Fri, 06 Jul 2018 19:26:36 +0100
REM compiler GCC version 9.2.1 20190827 (Red Hat 9.2.1-1)
REM options -cpp -mtune=generic -march=x86-64 -g -O0 -fpre-include=/usr/include/finclude/math-vector-fortran.h
REM seed 1393048402 -2080326902 2090357972 -2019563483 -1625048264 98522219 1462616507 353173314 -857485166 1482753449 -1839077449 -2054645947 1908912372 -48952144 1735399539 111218779 228400979 788481264 919733202 -1539495112 -333010541 956950447 -907561697 844944568 317631097 665830935 1386992768 -851194313 -1679879556 381269644 -2123847212 -1079313683 1111315231
REM
CELL 1.54180   50.00000   50.00000   50.00000   90.00000   90.00000   90.00000
LATT -1
SFAC C  
C      1  0.3614950000000  0.4044700000000  0.4992860000000 1.0
C      1  0.4222360000000  0.4324130000000  0.3988560000000 1.0
C      1  0.5130410000000  0.5300980000000  0.4192230000000 1.0
C      1  0.5516030000000  0.4688600000000  0.3837110000000 1.0
C      1  0.4620410000000  0.3968590000000  0.4697950000000 1.0
C      1  0.4999450000000  0.4257080000000  0.5616970000000 1.0
C      1  0.5152290000000  0.4415700000000  0.5437530000000 1.0
C      1  0.4940310000000  0.4614700000000  0.4488060000000 1.0
C      1  0.5639930000000  0.5139720000000  0.5475260000000 1.0
C      1  0.5141540000000  0.4652900000000  0.4283250000000 1.0
C      1  0.4986680000000  0.4743680000000  0.4991340000000 1.0
C      1  0.4180760000000  0.4810170000000  0.4527960000000 1.0
C      1  0.5352360000000  0.4527120000000  0.6014610000000 1.0
C      1  0.4490840000000  0.4885290000000  0.5103720000000 1.0
C      1  0.4123960000000  0.4882710000000  0.4788790000000 1.0
C      1  0.5013700000000  0.4828810000000  0.5912370000000 1.0
C      1  0.5181640000000  0.4810280000000  0.5194590000000 1.0
C      1  0.5815750000000  0.5823370000000  0.4103530000000 1.0
C      1  0.4173910000000  0.4528040000000  0.4450340000000 1.0
C      1  0.3887330000000  0.5369010000000  0.6642360000000 1.0
C      1  0.5558620000000  0.5146820000000  0.3846490000000 1.0
C      1  0.5074910000000  0.6074210000000  0.4806690000000 1.0
C      1  0.5736190000000  0.4744080000000  0.4704880000000 1.0
C      1  0.5304490000000  0.5071480000000  0.3710870000000 1.0
C      1  0.4610650000000  0.4523960000000  0.5757550000000 1.0
C      1  0.4638540000000  0.5025830000000  0.3694350000000 1.0
C      1  0.4524040000000  0.5611140000000  0.5055410000000 1.0
C      1  0.5795210000000  0.5974110000000  0.4335030000000 1.0
C      1  0.5396730000000  0.5378630000000  0.4239290000000 1.0
C      1  0.4679640000000  0.3741840000000  0.4546230000000 1.0
C      1  0.4155290000000  0.4518790000000  0.5112780000000 1.0
C      1  0.4606270000000  0.4952840000000  0.6092560000000 1.0
C      1  0.4448170000000  0.5115860000000  0.5264190000000 1.0
C      1  0.4482890000000  0.5374740000000  0.5168310000000 1.0
C      1  0.5777010000000  0.4992210000000  0.4835400000000 1.0
C      1  0.5487660000000  0.4773660000000  0.6114660000000 1.0
C      1  0.5989290000000  0.5921240000000  0.5311430000000 1.0
C      1  0.5400870000000  0.4612570000000  0.4401120000000 1.0
C      1  0.4310450000000  0.4901320000000  0.5719950000000 1.0
C      1  0.5001800000000  0.5075670000000  0.4124160000000 1.0
C      1  0.4891090000000  0.4983310000000  0.6108780000000 1.0
C      1  0.4571450000000  0.5384870000000  0.5914510000000 1.0
C      1  0.5967990000000  0.5965490000000  0.4567530000000 1.0
C      1  0.4758350000000  0.5339400000000  0.5726240000000 1.0
C      1  0.4737510000000  0.3532600000000  0.4402050000000 1.0
C      1  0.5466420000000  0.4761520000000  0.5219800000000 1.0
C      1  0.5624230000000  0.4915380000000  0.5900450000000 1.0
C      1  0.5952960000000  0.5811170000000  0.5550410000000 1.0
C      1  0.4788610000000  0.4043780000000  0.4914940000000 1.0
C      1  0.5093700000000  0.4815050000000  0.4060080000000 1.0
C      1  0.4244490000000  0.4771870000000  0.5014460000000 1.0
C      1  0.5571630000000  0.5378240000000  0.4011740000000 1.0
C      1  0.4718260000000  0.4710800000000  0.5101860000000 1.0
C      1  0.4833010000000  0.5967560000000  0.4830990000000 1.0
C      1  0.5738930000000  0.5599600000000  0.3979880000000 1.0
C      1  0.4486140000000  0.4890350000000  0.3867290000000 1.0
C      1  0.5694600000000  0.4897080000000  0.3935800000000 1.0
C      1  0.4232880000000  0.4452270000000  0.5382070000000 1.0
C      1  0.4273180000000  0.5265710000000  0.6294120000000 1.0
C      1  0.5526390000000  0.4467250000000  0.5786200000000 1.0
C      1  0.5054060000000  0.5198990000000  0.6194240000000 1.0
C      1  0.5250430000000  0.4799650000000  0.3821940000000 1.0
C      1  0.4807580000000  0.5196490000000  0.3544920000000 1.0
C      1  0.5519600000000  0.4504140000000  0.5113320000000 1.0
C      1  0.5336240000000  0.4311300000000  0.5231700000000 1.0
C      1  0.5442630000000  0.5339630000000  0.4775400000000 1.0
C      1  0.4471200000000  0.5206210000000  0.6110070000000 1.0
C      1  0.5643190000000  0.5219580000000  0.4945260000000 1.0
C      1  0.4317600000000  0.5064420000000  0.5508100000000 1.0
C      1  0.4392650000000  0.4123090000000  0.4635520000000 1.0
C      1  0.5803240000000  0.5709360000000  0.5745240000000 1.0
C      1  0.5354880000000  0.5856420000000  0.5806940000000 1.0
C      1  0.5267920000000  0.5333690000000  0.6098470000000 1.0
C      1  0.4519420000000  0.5155550000000  0.4431870000000 1.0
C      1  0.4362080000000  0.4799080000000  0.4100430000000 1.0
C      1  0.5091830000000  0.4711020000000  0.5451000000000 1.0
C      1  0.4721020000000  0.5258720000000  0.4573320000000 1.0
C      1  0.5060190000000  0.3976750000000  0.4947880000000 1.0
C      1  0.3697300000000  0.5419520000000  0.6813540000000 1.0
C      1  0.4949730000000  0.5314800000000  0.4699100000000 1.0
C      1  0.5598610000000  0.5173350000000  0.5768600000000 1.0
C      1  0.5648240000000  0.4707450000000  0.5682450000000 1.0
C      1  0.5016170000000  0.4910990000000  0.5641680000000 1.0
C      1  0.5128060000000  0.5409930000000  0.5135300000000 1.0
C      1  0.5079810000000  0.5323600000000  0.5379740000000 1.0
C      1  0.5087560000000  0.5193030000000  0.3583790000000 1.0
C      1  0.5933390000000  0.6007240000000  0.5066740000000 1.0
C      1  0.4503140000000  0.4466130000000  0.5485640000000 1.0
C      1  0.4196370000000  0.4325510000000  0.4653800000000 1.0
C      1  0.5662670000000  0.4738280000000  0.4421000000000 1.0
C      1  0.5351090000000  0.6226140000000  0.5164750000000 1.0
C      1  0.5787310000000  0.4853040000000  0.4197760000000 1.0
C      1  0.5263890000000  0.4078490000000  0.5090550000000 1.0
C      1  0.5828940000000  0.6033990000000  0.4811920000000 1.0
C      1  0.5489030000000  0.5396860000000  0.4503780000000 1.0
C      1  0.5337320000000  0.4528900000000  0.4679620000000 1.0
C      1  0.4871350000000  0.4397580000000  0.5829320000000 1.0
C      1  0.5283670000000  0.6060890000000  0.5651970000000 1.0
C      1  0.4341170000000  0.4960240000000  0.4342050000000 1.0
C      1  0.4057170000000  0.4342170000000  0.4908360000000 1.0
C      1  0.4499990000000  0.4767430000000  0.5886600000000 1.0
C      1  0.5070290000000  0.4557730000000  0.5969080000000 1.0
C      1  0.4080540000000  0.5317650000000  0.6468310000000 1.0
C      1  0.5555910000000  0.6107090000000  0.4734510000000 1.0
C      1  0.4640300000000  0.5814350000000  0.4930330000000 1.0
C      1  0.5619540000000  0.4850690000000  0.5436250000000 1.0
C      1  0.4670170000000  0.4463670000000  0.5246290000000 1.0
C      1  0.5305340000000  0.6197340000000  0.5424880000000 1.0
C      1  0.4696060000000  0.4512520000000  0.4438410000000 1.0
C      1  0.5544590000000  0.5652560000000  0.5838950000000 1.0
C      1  0.5665100000000  0.5275990000000  0.5227030000000 1.0
C      1  0.4691730000000  0.4222340000000  0.5107040000000 1.0
C      1  0.5172200000000  0.5361910000000  0.4864970000000 1.0
C      1  0.5067550000000  0.4617360000000  0.4747970000000 1.0
C      1  0.4205070000000  0.4118200000000  0.3829820000000 1.0
C      1  0.3827910000000  0.4189150000000  0.4951730000000 1.0
C      1  0.5549880000000  0.6084880000000  0.4444850000000 1.0
C      1  0.4948990000000  0.5186270000000  0.5583400000000 1.0
C      1  0.5330730000000  0.6144970000000  0.4897480000000 1.0
C      1  0.5573540000000  0.4535840000000  0.4840340000000 1.0
C      1  0.4698670000000  0.5367330000000  0.3360730000000 1.0
C      1  0.5471850000000  0.5387540000000  0.5907890000000 1.0
C      1  0.4251150000000  0.4535070000000  0.4166110000000 1.0
END
