TITL C-599896-8500-263 0.121349278703726 125000 -763.177620434211 0 0 124 (C1) n - 1
REM
REM in /home/nfs/bkarasulu/CARBON/AIRSS/Generating-Clusters/TERSOFF/Only-C1/FIRE-HFTN
REM
REM
REM
REM
REM
REM ./C.cell (11c1c37f851c82e70ff6c80c92926a4b)
REM AIRSS Version 0.9.1 bugfix July 2018 build 013d7b7c2542+ Fri, 06 Jul 2018 19:26:36 +0100
REM compiler GCC version 9.2.1 20190827 (Red Hat 9.2.1-1)
REM options -cpp -mtune=generic -march=x86-64 -g -O0 -fpre-include=/usr/include/finclude/math-vector-fortran.h
REM seed 214046112 482193610 -154276436 -731286116 745317244 1244505210 2125147054 968684157 -1493657321 -1456909134 -481829253 478584984 1985018130 -1729798690 982472807 226916205 253177522 -478403159 -1165257645 1070817877 -936211487 534478269 1102690709 455356710 -583960260 -1614566481 -867883359 -1770181029 98930515 -1720172699 159092945 1388385261 -921550921
REM
CELL 1.54180   50.00000   50.00000   50.00000   90.00000   90.00000   90.00000
LATT -1
SFAC C  
C      1  0.4777760000000  0.4830610000000  0.4510570000000 1.0
C      1  0.4463210000000  0.4565140000000  0.6065130000000 1.0
C      1  0.5935020000000  0.4648140000000  0.5113430000000 1.0
C      1  0.4239860000000  0.5507360000000  0.5059050000000 1.0
C      1  0.5640590000000  0.4858650000000  0.4810720000000 1.0
C      1  0.4668760000000  0.4682900000000  0.5920390000000 1.0
C      1  0.4076080000000  0.5273410000000  0.4975410000000 1.0
C      1  0.5364610000000  0.5602140000000  0.4333020000000 1.0
C      1  0.5271770000000  0.4319270000000  0.5704040000000 1.0
C      1  0.5692820000000  0.4640600000000  0.5577290000000 1.0
C      1  0.5978910000000  0.4361740000000  0.5055260000000 1.0
C      1  0.4487460000000  0.5087500000000  0.5061470000000 1.0
C      1  0.5077090000000  0.5426630000000  0.5214010000000 1.0
C      1  0.5180920000000  0.5881600000000  0.5083700000000 1.0
C      1  0.4626370000000  0.4845140000000  0.5693250000000 1.0
C      1  0.5553720000000  0.5195540000000  0.5367070000000 1.0
C      1  0.3971120000000  0.4780710000000  0.5128410000000 1.0
C      1  0.5406760000000  0.5014930000000  0.4768160000000 1.0
C      1  0.5090560000000  0.4893290000000  0.5964990000000 1.0
C      1  0.4256130000000  0.4367110000000  0.5136310000000 1.0
C      1  0.5355900000000  0.5277290000000  0.4676430000000 1.0
C      1  0.4529560000000  0.5675090000000  0.5464670000000 1.0
C      1  0.5133250000000  0.5724600000000  0.5605050000000 1.0
C      1  0.5195110000000  0.5304970000000  0.3765800000000 1.0
C      1  0.4124240000000  0.4582700000000  0.5290050000000 1.0
C      1  0.5315720000000  0.5052790000000  0.5309840000000 1.0
C      1  0.4263690000000  0.4454020000000  0.6190640000000 1.0
C      1  0.4709450000000  0.5019140000000  0.4694380000000 1.0
C      1  0.4442460000000  0.4446220000000  0.4388460000000 1.0
C      1  0.5727450000000  0.5606900000000  0.5263750000000 1.0
C      1  0.5500840000000  0.5399730000000  0.4466290000000 1.0
C      1  0.5178130000000  0.4851230000000  0.4821750000000 1.0
C      1  0.4942200000000  0.4650680000000  0.5986340000000 1.0
C      1  0.5166470000000  0.5075760000000  0.3924350000000 1.0
C      1  0.4205250000000  0.4450460000000  0.4852960000000 1.0
C      1  0.5979100000000  0.5166080000000  0.4911700000000 1.0
C      1  0.5168050000000  0.4831560000000  0.5459420000000 1.0
C      1  0.5004000000000  0.5313810000000  0.6232470000000 1.0
C      1  0.4363040000000  0.4949180000000  0.5589010000000 1.0
C      1  0.5733360000000  0.4961880000000  0.4139170000000 1.0
C      1  0.5097360000000  0.5685310000000  0.4286940000000 1.0
C      1  0.5364240000000  0.5680680000000  0.4950700000000 1.0
C      1  0.5051240000000  0.4609890000000  0.3920990000000 1.0
C      1  0.4761840000000  0.5276350000000  0.4153950000000 1.0
C      1  0.4428610000000  0.4414000000000  0.4677480000000 1.0
C      1  0.6027030000000  0.5277420000000  0.5442480000000 1.0
C      1  0.4976840000000  0.5097210000000  0.4138440000000 1.0
C      1  0.5115060000000  0.5168840000000  0.5144360000000 1.0
C      1  0.4493090000000  0.4836320000000  0.5173030000000 1.0
C      1  0.4174490000000  0.5128970000000  0.4736740000000 1.0
C      1  0.4311880000000  0.5488750000000  0.5357630000000 1.0
C      1  0.4687810000000  0.4441940000000  0.4805120000000 1.0
C      1  0.5037370000000  0.4378020000000  0.5271460000000 1.0
C      1  0.4854150000000  0.4581010000000  0.4640750000000 1.0
C      1  0.5524280000000  0.4769070000000  0.4091740000000 1.0
C      1  0.5112930000000  0.5559730000000  0.3800890000000 1.0
C      1  0.4023960000000  0.5081300000000  0.5207250000000 1.0
C      1  0.5028050000000  0.6053710000000  0.4907270000000 1.0
C      1  0.4460830000000  0.5700160000000  0.4605680000000 1.0
C      1  0.5199790000000  0.4693420000000  0.4392940000000 1.0
C      1  0.4781730000000  0.5188170000000  0.5420620000000 1.0
C      1  0.4675010000000  0.5276270000000  0.5160950000000 1.0
C      1  0.4033000000000  0.4894890000000  0.4661980000000 1.0
C      1  0.5042100000000  0.5830760000000  0.5340020000000 1.0
C      1  0.4526820000000  0.4262770000000  0.5214670000000 1.0
C      1  0.5990170000000  0.5530730000000  0.5345230000000 1.0
C      1  0.4325700000000  0.4750110000000  0.5384470000000 1.0
C      1  0.5128520000000  0.4624310000000  0.4664600000000 1.0
C      1  0.5896050000000  0.4893890000000  0.4940820000000 1.0
C      1  0.4910000000000  0.5675730000000  0.4502990000000 1.0
C      1  0.4701060000000  0.5866200000000  0.4567070000000 1.0
C      1  0.4811610000000  0.6064750000000  0.4740420000000 1.0
C      1  0.4766810000000  0.4445490000000  0.5125640000000 1.0
C      1  0.5496300000000  0.5033300000000  0.5789620000000 1.0
C      1  0.4456620000000  0.5091460000000  0.4777870000000 1.0
C      1  0.4021650000000  0.4683050000000  0.4849890000000 1.0
C      1  0.5129110000000  0.5180540000000  0.6031180000000 1.0
C      1  0.5577580000000  0.4476800000000  0.4555950000000 1.0
C      1  0.5526050000000  0.5478720000000  0.5431340000000 1.0
C      1  0.4852980000000  0.4888090000000  0.5465160000000 1.0
C      1  0.5309450000000  0.3985510000000  0.5306210000000 1.0
C      1  0.5345330000000  0.5523190000000  0.5653360000000 1.0
C      1  0.4955200000000  0.4965180000000  0.4973220000000 1.0
C      1  0.5652480000000  0.5606690000000  0.4985170000000 1.0
C      1  0.4215460000000  0.5191210000000  0.5452600000000 1.0
C      1  0.4535000000000  0.4585730000000  0.4149350000000 1.0
C      1  0.4988420000000  0.4885390000000  0.4321640000000 1.0
C      1  0.5535350000000  0.4438160000000  0.5705760000000 1.0
C      1  0.5268150000000  0.4861470000000  0.5741020000000 1.0
C      1  0.4348460000000  0.5056490000000  0.4165190000000 1.0
C      1  0.5811050000000  0.5097340000000  0.5470680000000 1.0
C      1  0.4187560000000  0.4734670000000  0.3845600000000 1.0
C      1  0.5775420000000  0.5342470000000  0.4498800000000 1.0
C      1  0.4356630000000  0.4794510000000  0.4053810000000 1.0
C      1  0.4907190000000  0.5727420000000  0.5785800000000 1.0
C      1  0.5349400000000  0.5293900000000  0.5855340000000 1.0
C      1  0.5706220000000  0.4622140000000  0.5294080000000 1.0
C      1  0.5475010000000  0.4563820000000  0.5124230000000 1.0
C      1  0.4489660000000  0.5294560000000  0.4228920000000 1.0
C      1  0.4672620000000  0.5585060000000  0.5704830000000 1.0
C      1  0.4770140000000  0.4752420000000  0.5181040000000 1.0
C      1  0.5578510000000  0.4026510000000  0.5204590000000 1.0
C      1  0.4715630000000  0.5481310000000  0.4948840000000 1.0
C      1  0.5845300000000  0.5390020000000  0.4784390000000 1.0
C      1  0.5037020000000  0.5710780000000  0.4011780000000 1.0
C      1  0.4614820000000  0.3991700000000  0.5246820000000 1.0
C      1  0.5808800000000  0.4148530000000  0.5115590000000 1.0
C      1  0.5224730000000  0.4599000000000  0.5261880000000 1.0
C      1  0.4833110000000  0.3832900000000  0.5219690000000 1.0
C      1  0.5277200000000  0.4807380000000  0.3922070000000 1.0
C      1  0.4939310000000  0.5519050000000  0.4751390000000 1.0
C      1  0.5556750000000  0.4574800000000  0.4830980000000 1.0
C      1  0.5083330000000  0.4413860000000  0.5899920000000 1.0
C      1  0.5729630000000  0.4913060000000  0.5672740000000 1.0
C      1  0.4724980000000  0.5313470000000  0.5668210000000 1.0
C      1  0.5104410000000  0.3807030000000  0.5217180000000 1.0
C      1  0.5212430000000  0.5477500000000  0.4809910000000 1.0
C      1  0.5853240000000  0.5143900000000  0.4305430000000 1.0
C      1  0.4738890000000  0.5833290000000  0.5324830000000 1.0
C      1  0.5182230000000  0.4199450000000  0.5452940000000 1.0
C      1  0.4402280000000  0.5516190000000  0.4389150000000 1.0
C      1  0.4451500000000  0.5595850000000  0.4875440000000 1.0
C      1  0.4794830000000  0.4552700000000  0.4013050000000 1.0
C      1  0.5460400000000  0.4609760000000  0.4326030000000 1.0
END
