TITL C-599895-9959-1189 15.1206036454872 125000 -530.807168239649 0 0 88 (C1) n - 1
REM
REM in /home/nfs/bkarasulu/CARBON/AIRSS/Generating-Clusters/TERSOFF/Only-C1/FIRE-HFTN
REM
REM
REM
REM
REM
REM ./C.cell (11c1c37f851c82e70ff6c80c92926a4b)
REM AIRSS Version 0.9.1 bugfix July 2018 build 013d7b7c2542+ Fri, 06 Jul 2018 19:26:36 +0100
REM compiler GCC version 9.2.1 20190827 (Red Hat 9.2.1-1)
REM options -cpp -mtune=generic -march=x86-64 -g -O0 -fpre-include=/usr/include/finclude/math-vector-fortran.h
REM seed -536462320 -1518394292 -1487270197 -267866791 208163223 1817382016 -1596362249 1564437720 604688495 1819528522 213019809 811897505 26823314 -1276896052 -975027397 999328031 890683616 66268989 -1350295546 -1274439894 235604212 407771020 -1694114983 365005905 -2064663378 580038287 -957766684 194031002 -653455693 -246243957 1573974554 -1841673652 -2122712262
REM
CELL 1.54180   50.00000   50.00000   50.00000   90.00000   90.00000   90.00000
LATT -1
SFAC C  
C      1  0.5360610000000  0.4448020000000  0.5618420000000 1.0
C      1  0.4704600000000  0.5105230000000  0.4885030000000 1.0
C      1  0.5071660000000  0.5458670000000  0.5858570000000 1.0
C      1  0.4604620000000  0.5586100000000  0.5562420000000 1.0
C      1  0.5289060000000  0.5195870000000  0.4145540000000 1.0
C      1  0.4411360000000  0.4249410000000  0.5246890000000 1.0
C      1  0.3695670000000  0.4595390000000  0.4763360000000 1.0
C      1  0.5456210000000  0.5664470000000  0.4173880000000 1.0
C      1  0.4931950000000  0.5290940000000  0.4526460000000 1.0
C      1  0.4736720000000  0.4866080000000  0.5294560000000 1.0
C      1  0.5626070000000  0.4854370000000  0.4661410000000 1.0
C      1  0.4270640000000  0.5876010000000  0.5243760000000 1.0
C      1  0.5105990000000  0.5662430000000  0.5679920000000 1.0
C      1  0.5133150000000  0.4331550000000  0.5480030000000 1.0
C      1  0.5427770000000  0.4878120000000  0.5859230000000 1.0
C      1  0.4614610000000  0.5819170000000  0.4945320000000 1.0
C      1  0.5071460000000  0.4813190000000  0.4746760000000 1.0
C      1  0.3936570000000  0.4599720000000  0.4873510000000 1.0
C      1  0.5583360000000  0.4524210000000  0.5414270000000 1.0
C      1  0.4613680000000  0.4320640000000  0.4714880000000 1.0
C      1  0.4764350000000  0.4555310000000  0.5660470000000 1.0
C      1  0.5549940000000  0.4983620000000  0.5626300000000 1.0
C      1  0.4713940000000  0.5180090000000  0.4382070000000 1.0
C      1  0.5205690000000  0.5847550000000  0.5205700000000 1.0
C      1  0.4711140000000  0.4675050000000  0.4389950000000 1.0
C      1  0.5266160000000  0.5243170000000  0.5325010000000 1.0
C      1  0.5325810000000  0.4347200000000  0.5052130000000 1.0
C      1  0.5601780000000  0.4401300000000  0.5128970000000 1.0
C      1  0.5155900000000  0.4470410000000  0.5235440000000 1.0
C      1  0.5098440000000  0.5722870000000  0.4728580000000 1.0
C      1  0.5378080000000  0.4321110000000  0.4550130000000 1.0
C      1  0.4542890000000  0.4079920000000  0.4612290000000 1.0
C      1  0.4612750000000  0.5313900000000  0.5553430000000 1.0
C      1  0.4874730000000  0.5711400000000  0.4901360000000 1.0
C      1  0.4993090000000  0.5309210000000  0.5275170000000 1.0
C      1  0.5658220000000  0.5001030000000  0.4423140000000 1.0
C      1  0.5023840000000  0.5803410000000  0.5438970000000 1.0
C      1  0.5491800000000  0.5398560000000  0.4760510000000 1.0
C      1  0.4584280000000  0.4719720000000  0.5509660000000 1.0
C      1  0.4728190000000  0.5809290000000  0.5423350000000 1.0
C      1  0.5286340000000  0.5464780000000  0.4271030000000 1.0
C      1  0.4918850000000  0.4637640000000  0.4912580000000 1.0
C      1  0.4699350000000  0.4275890000000  0.5228140000000 1.0
C      1  0.5821740000000  0.4709840000000  0.4805990000000 1.0
C      1  0.5456820000000  0.4973680000000  0.4225990000000 1.0
C      1  0.4249570000000  0.4484330000000  0.5239690000000 1.0
C      1  0.5456020000000  0.5246690000000  0.5542270000000 1.0
C      1  0.5076640000000  0.5115930000000  0.3972340000000 1.0
C      1  0.4791940000000  0.5148420000000  0.5404470000000 1.0
C      1  0.5631120000000  0.4812160000000  0.5412360000000 1.0
C      1  0.5659140000000  0.4308200000000  0.4633420000000 1.0
C      1  0.5260470000000  0.4647870000000  0.5807880000000 1.0
C      1  0.3458740000000  0.4590950000000  0.4654700000000 1.0
C      1  0.5594140000000  0.5470900000000  0.5617340000000 1.0
C      1  0.4858380000000  0.4956740000000  0.4002640000000 1.0
C      1  0.5380770000000  0.5111740000000  0.5102270000000 1.0
C      1  0.5539070000000  0.5646560000000  0.4862320000000 1.0
C      1  0.4714270000000  0.4928650000000  0.4247440000000 1.0
C      1  0.5295980000000  0.5215680000000  0.4856260000000 1.0
C      1  0.4982610000000  0.4693230000000  0.5192740000000 1.0
C      1  0.4416720000000  0.4721250000000  0.4848820000000 1.0
C      1  0.4900120000000  0.4970230000000  0.5913250000000 1.0
C      1  0.5593870000000  0.4940130000000  0.5162920000000 1.0
C      1  0.4538610000000  0.4585950000000  0.4611210000000 1.0
C      1  0.5794330000000  0.6043910000000  0.4039980000000 1.0
C      1  0.4774840000000  0.4374590000000  0.4946840000000 1.0
C      1  0.4313740000000  0.4659410000000  0.5454470000000 1.0
C      1  0.4614380000000  0.5357480000000  0.4968050000000 1.0
C      1  0.5757220000000  0.4441170000000  0.4879740000000 1.0
C      1  0.5329530000000  0.5077950000000  0.6036930000000 1.0
C      1  0.5102830000000  0.5522790000000  0.4494660000000 1.0
C      1  0.5245970000000  0.4252580000000  0.4797160000000 1.0
C      1  0.5368450000000  0.4698730000000  0.4202750000000 1.0
C      1  0.4949740000000  0.4511100000000  0.4346390000000 1.0
C      1  0.5352950000000  0.4781020000000  0.4712990000000 1.0
C      1  0.4584820000000  0.4888580000000  0.5011950000000 1.0
C      1  0.5076140000000  0.5193660000000  0.5965920000000 1.0
C      1  0.4844770000000  0.4320050000000  0.5500140000000 1.0
C      1  0.5000740000000  0.5110280000000  0.4759010000000 1.0
C      1  0.4870110000000  0.5472040000000  0.5069000000000 1.0
C      1  0.4191710000000  0.4601320000000  0.4983650000000 1.0
C      1  0.4558530000000  0.5924060000000  0.5220220000000 1.0
C      1  0.4965360000000  0.4702080000000  0.5819550000000 1.0
C      1  0.4197710000000  0.5663920000000  0.5079380000000 1.0
C      1  0.5626000000000  0.5855580000000  0.4104440000000 1.0
C      1  0.5307850000000  0.5796360000000  0.4928060000000 1.0
C      1  0.5237640000000  0.4485820000000  0.4347510000000 1.0
C      1  0.4426590000000  0.5574350000000  0.4926320000000 1.0
END
