TITL C-599893-4344-689 0.00223716243309055 125000 -815.455889032924 0 0 134 (C1) n - 1
REM
REM in /home/nfs/bkarasulu/CARBON/AIRSS/Generating-Clusters/TERSOFF/Only-C1/FIRE-HFTN
REM
REM
REM
REM
REM
REM ./C.cell (11c1c37f851c82e70ff6c80c92926a4b)
REM AIRSS Version 0.9.1 bugfix July 2018 build 013d7b7c2542+ Fri, 06 Jul 2018 19:26:36 +0100
REM compiler GCC version 9.2.1 20190827 (Red Hat 9.2.1-1)
REM options -cpp -mtune=generic -march=x86-64 -g -O0 -fpre-include=/usr/include/finclude/math-vector-fortran.h
REM seed -8352363 498744965 1284851162 1380367920 -2100659245 -550670324 1242112993 1789253393 -731783262 -1306841655 -1269050489 -311648347 1090715723 80847854 1134769991 372195397 1042929240 -475294507 1804389170 1902685 852395001 -1813687439 -534464884 -1628992445 -285664403 1526486683 859909415 559468351 -550297443 -229171563 648391891 1712507392 -1607255854
REM
CELL 1.54180   50.00000   50.00000   50.00000   90.00000   90.00000   90.00000
LATT -1
SFAC C  
C      1  0.4774440000000  0.5544770000000  0.4134790000000 1.0
C      1  0.5650600000000  0.5121590000000  0.4843650000000 1.0
C      1  0.4986210000000  0.4321680000000  0.5384360000000 1.0
C      1  0.5895790000000  0.5465880000000  0.5819670000000 1.0
C      1  0.4697480000000  0.5379200000000  0.4888000000000 1.0
C      1  0.4071480000000  0.4961390000000  0.5116100000000 1.0
C      1  0.6214940000000  0.4953100000000  0.4960290000000 1.0
C      1  0.5554640000000  0.5736630000000  0.5268600000000 1.0
C      1  0.4686230000000  0.4498190000000  0.4633710000000 1.0
C      1  0.4530940000000  0.5374420000000  0.4112260000000 1.0
C      1  0.4464560000000  0.5250300000000  0.5550150000000 1.0
C      1  0.6088710000000  0.5346330000000  0.4772580000000 1.0
C      1  0.5023850000000  0.4535870000000  0.5826980000000 1.0
C      1  0.4634080000000  0.4224040000000  0.4584680000000 1.0
C      1  0.4250080000000  0.5403450000000  0.5427810000000 1.0
C      1  0.3797000000000  0.4849350000000  0.5504760000000 1.0
C      1  0.4831820000000  0.5914530000000  0.4892990000000 1.0
C      1  0.4559280000000  0.3942400000000  0.5101610000000 1.0
C      1  0.5425550000000  0.4059480000000  0.5412480000000 1.0
C      1  0.5013900000000  0.6036910000000  0.4703660000000 1.0
C      1  0.6230010000000  0.5250960000000  0.5007090000000 1.0
C      1  0.4464190000000  0.4612330000000  0.4770250000000 1.0
C      1  0.4958590000000  0.5236430000000  0.4785940000000 1.0
C      1  0.5429770000000  0.5646730000000  0.4506960000000 1.0
C      1  0.5366500000000  0.4782400000000  0.5428750000000 1.0
C      1  0.4508040000000  0.5357670000000  0.4654500000000 1.0
C      1  0.5630320000000  0.4825220000000  0.5559070000000 1.0
C      1  0.4113510000000  0.4268790000000  0.4485170000000 1.0
C      1  0.5721740000000  0.5033800000000  0.5721230000000 1.0
C      1  0.4233970000000  0.5121590000000  0.5954170000000 1.0
C      1  0.4285840000000  0.5507890000000  0.4552460000000 1.0
C      1  0.5442410000000  0.4585170000000  0.5208240000000 1.0
C      1  0.5229450000000  0.4462340000000  0.3999520000000 1.0
C      1  0.4805480000000  0.5801080000000  0.4263440000000 1.0
C      1  0.5200030000000  0.5673820000000  0.4960110000000 1.0
C      1  0.4398470000000  0.4135380000000  0.5193630000000 1.0
C      1  0.4356210000000  0.4144940000000  0.4582930000000 1.0
C      1  0.6122020000000  0.5191270000000  0.5477360000000 1.0
C      1  0.3805570000000  0.4659800000000  0.4702970000000 1.0
C      1  0.5383810000000  0.5261840000000  0.5283770000000 1.0
C      1  0.4269250000000  0.4980030000000  0.4511220000000 1.0
C      1  0.4846420000000  0.4788470000000  0.3779030000000 1.0
C      1  0.5540180000000  0.6133300000000  0.4906540000000 1.0
C      1  0.4333920000000  0.4608460000000  0.4266260000000 1.0
C      1  0.3450670000000  0.5037230000000  0.5852530000000 1.0
C      1  0.4769820000000  0.5429820000000  0.6397890000000 1.0
C      1  0.4066420000000  0.4295030000000  0.3988080000000 1.0
C      1  0.5961260000000  0.4555810000000  0.5118930000000 1.0
C      1  0.4328640000000  0.4407010000000  0.5194810000000 1.0
C      1  0.3987870000000  0.4778370000000  0.5314710000000 1.0
C      1  0.4077760000000  0.5460350000000  0.5224120000000 1.0
C      1  0.6186250000000  0.4916320000000  0.5422310000000 1.0
C      1  0.4763300000000  0.3865670000000  0.4945920000000 1.0
C      1  0.5284060000000  0.6130000000000  0.4793860000000 1.0
C      1  0.5678900000000  0.5566210000000  0.5067130000000 1.0
C      1  0.5020200000000  0.5407900000000  0.4105160000000 1.0
C      1  0.6112140000000  0.5677970000000  0.5236860000000 1.0
C      1  0.5268010000000  0.5749690000000  0.5222670000000 1.0
C      1  0.3966410000000  0.5387720000000  0.4965290000000 1.0
C      1  0.3619710000000  0.4940990000000  0.5678970000000 1.0
C      1  0.4830450000000  0.5670790000000  0.5991600000000 1.0
C      1  0.4736350000000  0.5041850000000  0.3787000000000 1.0
C      1  0.4306390000000  0.5484880000000  0.4262830000000 1.0
C      1  0.4524180000000  0.4741720000000  0.4104140000000 1.0
C      1  0.4983040000000  0.5164700000000  0.4508530000000 1.0
C      1  0.4977090000000  0.3955860000000  0.4777190000000 1.0
C      1  0.4878460000000  0.4981980000000  0.5987400000000 1.0
C      1  0.5723720000000  0.4501810000000  0.5266090000000 1.0
C      1  0.3914620000000  0.4416160000000  0.4637530000000 1.0
C      1  0.5484500000000  0.4904330000000  0.4765370000000 1.0
C      1  0.5989390000000  0.5913680000000  0.5143930000000 1.0
C      1  0.5642500000000  0.5580370000000  0.5767140000000 1.0
C      1  0.5739280000000  0.4551320000000  0.5553200000000 1.0
C      1  0.5224670000000  0.3977780000000  0.4920260000000 1.0
C      1  0.5425240000000  0.5379690000000  0.5775760000000 1.0
C      1  0.4708320000000  0.5203630000000  0.5976530000000 1.0
C      1  0.5940440000000  0.5217710000000  0.5693030000000 1.0
C      1  0.4878060000000  0.4082590000000  0.4531830000000 1.0
C      1  0.5485550000000  0.5107990000000  0.5880860000000 1.0
C      1  0.5101850000000  0.4910680000000  0.5402450000000 1.0
C      1  0.5077210000000  0.4793030000000  0.5941050000000 1.0
C      1  0.5379790000000  0.4236990000000  0.5636810000000 1.0
C      1  0.4517790000000  0.5104680000000  0.4528610000000 1.0
C      1  0.5285410000000  0.5398030000000  0.5527780000000 1.0
C      1  0.4335200000000  0.5038160000000  0.5052250000000 1.0
C      1  0.4832220000000  0.4702420000000  0.4506780000000 1.0
C      1  0.5230760000000  0.4819790000000  0.4856310000000 1.0
C      1  0.5486590000000  0.4881160000000  0.4111400000000 1.0
C      1  0.4964450000000  0.4402070000000  0.4082840000000 1.0
C      1  0.4766650000000  0.4602580000000  0.3991730000000 1.0
C      1  0.5216600000000  0.4585600000000  0.5027540000000 1.0
C      1  0.5359880000000  0.3991910000000  0.5156360000000 1.0
C      1  0.4498440000000  0.4588670000000  0.5053310000000 1.0
C      1  0.4104980000000  0.4523260000000  0.5314470000000 1.0
C      1  0.4969010000000  0.4490840000000  0.5156300000000 1.0
C      1  0.4809390000000  0.4883310000000  0.5372890000000 1.0
C      1  0.6172230000000  0.5385700000000  0.5258730000000 1.0
C      1  0.5587990000000  0.5294090000000  0.5078850000000 1.0
C      1  0.5777810000000  0.5656540000000  0.4817660000000 1.0
C      1  0.4933420000000  0.5972990000000  0.4432650000000 1.0
C      1  0.5978310000000  0.4458600000000  0.4851980000000 1.0
C      1  0.5897770000000  0.5141820000000  0.4694960000000 1.0
C      1  0.6065660000000  0.4901200000000  0.4708950000000 1.0
C      1  0.3832990000000  0.4950060000000  0.4706350000000 1.0
C      1  0.4556890000000  0.5088830000000  0.4006070000000 1.0
C      1  0.5429320000000  0.4637300000000  0.4020520000000 1.0
C      1  0.6142860000000  0.4780480000000  0.5179410000000 1.0
C      1  0.5635470000000  0.5757860000000  0.5541750000000 1.0
C      1  0.3997210000000  0.5047460000000  0.4494500000000 1.0
C      1  0.5090270000000  0.5052390000000  0.4949370000000 1.0
C      1  0.4732320000000  0.5669660000000  0.4957590000000 1.0
C      1  0.5513040000000  0.4600910000000  0.5970130000000 1.0
C      1  0.4956320000000  0.4181220000000  0.4271020000000 1.0
C      1  0.5109230000000  0.4340600000000  0.5639130000000 1.0
C      1  0.4064600000000  0.5522890000000  0.4731090000000 1.0
C      1  0.4771320000000  0.5438580000000  0.6124050000000 1.0
C      1  0.3886730000000  0.5101530000000  0.4946400000000 1.0
C      1  0.4310820000000  0.4706100000000  0.4541740000000 1.0
C      1  0.4770410000000  0.4978370000000  0.4474790000000 1.0
C      1  0.5357050000000  0.4853100000000  0.5973580000000 1.0
C      1  0.6018400000000  0.4632010000000  0.4647050000000 1.0
C      1  0.4742660000000  0.4668220000000  0.5184330000000 1.0
C      1  0.5377000000000  0.5098440000000  0.4219190000000 1.0
C      1  0.5244970000000  0.5621390000000  0.4700800000000 1.0
C      1  0.5161520000000  0.5111510000000  0.5208270000000 1.0
C      1  0.5785870000000  0.6070980000000  0.5027170000000 1.0
C      1  0.5579920000000  0.4415450000000  0.5752500000000 1.0
C      1  0.4570560000000  0.5191540000000  0.5096860000000 1.0
C      1  0.4164400000000  0.4385310000000  0.4224190000000 1.0
C      1  0.5142690000000  0.5232890000000  0.4287290000000 1.0
C      1  0.5138680000000  0.5629190000000  0.5445810000000 1.0
C      1  0.4466300000000  0.5192780000000  0.5827360000000 1.0
C      1  0.4648790000000  0.5125720000000  0.5366090000000 1.0
C      1  0.5691020000000  0.5678920000000  0.4563760000000 1.0
END
