TITL C-599892-9790-1263 7.13436453585155 125000 -160.437376367423 0 0 28 (C1) n - 1
REM
REM in /home/nfs/bkarasulu/CARBON/AIRSS/Generating-Clusters/TERSOFF/Only-C1/FIRE-HFTN
REM
REM
REM
REM
REM
REM ./C.cell (11c1c37f851c82e70ff6c80c92926a4b)
REM AIRSS Version 0.9.1 bugfix July 2018 build 013d7b7c2542+ Fri, 06 Jul 2018 19:26:36 +0100
REM compiler GCC version 9.2.1 20190827 (Red Hat 9.2.1-1)
REM options -cpp -mtune=generic -march=x86-64 -g -O0 -fpre-include=/usr/include/finclude/math-vector-fortran.h
REM seed -923534370 -1012182204 -1139717618 449468842 -1938440070 -1291721041 -1173253786 -1056405695 -458661839 -1702273463 -1993727837 1564418725 -623167533 1226719395 1238046336 67484970 -1252699628 -1926818787 1957456814 45964133 -1632242547 -1188700484 -1774984954 -112275516 -1844351306 761461588 845554398 -526664616 -330527295 1900325571 556024546 839824917 105010946
REM
CELL 1.54180   50.00000   50.00000   50.00000   90.00000   90.00000   90.00000
LATT -1
SFAC C  
C      1  0.5282330000000  0.4871110000000  0.4417840000000 1.0
C      1  0.4619890000000  0.4173430000000  0.4509770000000 1.0
C      1  0.4945830000000  0.4528490000000  0.5271430000000 1.0
C      1  0.4937150000000  0.6092460000000  0.5889590000000 1.0
C      1  0.4942280000000  0.6448900000000  0.6281870000000 1.0
C      1  0.5532820000000  0.4583200000000  0.4846900000000 1.0
C      1  0.4934580000000  0.5914260000000  0.5693480000000 1.0
C      1  0.4580070000000  0.4691550000000  0.4556190000000 1.0
C      1  0.4451610000000  0.5355240000000  0.4297230000000 1.0
C      1  0.5484050000000  0.4079100000000  0.4684180000000 1.0
C      1  0.4932020000000  0.5736050000000  0.5497360000000 1.0
C      1  0.4944800000000  0.6624220000000  0.6474810000000 1.0
C      1  0.5107190000000  0.4605160000000  0.5081710000000 1.0
C      1  0.4926900000000  0.5379620000000  0.5105170000000 1.0
C      1  0.4686650000000  0.4949740000000  0.4565280000000 1.0
C      1  0.5746340000000  0.4742230000000  0.4908720000000 1.0
C      1  0.4551670000000  0.4429150000000  0.4530370000000 1.0
C      1  0.4924450000000  0.5200210000000  0.4910380000000 1.0
C      1  0.4563050000000  0.5157230000000  0.4424860000000 1.0
C      1  0.5036360000000  0.3872970000000  0.4542510000000 1.0
C      1  0.5567960000000  0.4317230000000  0.4766590000000 1.0
C      1  0.4939710000000  0.6270660000000  0.6085710000000 1.0
C      1  0.5266360000000  0.4682720000000  0.4865300000000 1.0
C      1  0.4790970000000  0.3970150000000  0.4510520000000 1.0
C      1  0.5160260000000  0.4851840000000  0.4662320000000 1.0
C      1  0.4929460000000  0.5557850000000  0.5301250000000 1.0
C      1  0.5291710000000  0.3913830000000  0.4604480000000 1.0
C      1  0.4923520000000  0.5001380000000  0.4714170000000 1.0
END
