TITL C-599895-9959-1140 127.724090393076 125000 -742.998530760076 0 0 126 (C1) n - 1
REM
REM in /home/nfs/bkarasulu/CARBON/AIRSS/Generating-Clusters/TERSOFF/Only-C1/FIRE-HFTN
REM
REM
REM
REM
REM
REM ./C.cell (11c1c37f851c82e70ff6c80c92926a4b)
REM AIRSS Version 0.9.1 bugfix July 2018 build 013d7b7c2542+ Fri, 06 Jul 2018 19:26:36 +0100
REM compiler GCC version 9.2.1 20190827 (Red Hat 9.2.1-1)
REM options -cpp -mtune=generic -march=x86-64 -g -O0 -fpre-include=/usr/include/finclude/math-vector-fortran.h
REM seed -2009477340 1186974667 -1321931217 656807460 340962655 -1751436296 1186453685 -1880533353 -107370386 -1983953532 1677595573 1331663057 1482918134 1650792431 -1402336672 -1087720434 647568778 -1443496310 921693884 442846762 -800266494 1536219021 -93705786 -1268680276 283446739 -943895643 851465664 -840989148 -356574478 634148614 -134508973 590186950 -340508799
REM
CELL 1.54180   50.00000   50.00000   50.00000   90.00000   90.00000   90.00000
LATT -1
SFAC C  
C      1  0.4590400000000  0.5113630000000  0.4216790000000 1.0
C      1  0.5488120000000  0.5857340000000  0.4653480000000 1.0
C      1  0.4545620000000  0.5511600000000  0.4896700000000 1.0
C      1  0.5165390000000  0.4612070000000  0.4151760000000 1.0
C      1  0.4320270000000  0.4193570000000  0.4654700000000 1.0
C      1  0.4455170000000  0.5692810000000  0.5561670000000 1.0
C      1  0.4732080000000  0.4776860000000  0.5569160000000 1.0
C      1  0.5261690000000  0.6011610000000  0.4751580000000 1.0
C      1  0.4668960000000  0.4641620000000  0.4133300000000 1.0
C      1  0.4688870000000  0.5034560000000  0.4792490000000 1.0
C      1  0.5993460000000  0.4719050000000  0.4925200000000 1.0
C      1  0.5688920000000  0.5271870000000  0.4519490000000 1.0
C      1  0.5011480000000  0.5580030000000  0.5689070000000 1.0
C      1  0.4755510000000  0.4771710000000  0.4706060000000 1.0
C      1  0.5372860000000  0.4595150000000  0.5337900000000 1.0
C      1  0.4513090000000  0.6317390000000  0.5156360000000 1.0
C      1  0.4861440000000  0.4601070000000  0.4902550000000 1.0
C      1  0.4924630000000  0.4537200000000  0.4054890000000 1.0
C      1  0.5235320000000  0.4793340000000  0.4354870000000 1.0
C      1  0.4579700000000  0.4084260000000  0.4600700000000 1.0
C      1  0.5254410000000  0.5517040000000  0.4857640000000 1.0
C      1  0.4490320000000  0.5726140000000  0.4704020000000 1.0
C      1  0.5447700000000  0.5511220000000  0.5893960000000 1.0
C      1  0.4894300000000  0.5134280000000  0.4963060000000 1.0
C      1  0.4165270000000  0.5266970000000  0.4024150000000 1.0
C      1  0.4500010000000  0.4913050000000  0.5496880000000 1.0
C      1  0.5448000000000  0.4753130000000  0.4554960000000 1.0
C      1  0.4248830000000  0.5349790000000  0.5223140000000 1.0
C      1  0.4729380000000  0.3883240000000  0.4726400000000 1.0
C      1  0.4633440000000  0.4905670000000  0.4028210000000 1.0
C      1  0.5668390000000  0.4012830000000  0.4322020000000 1.0
C      1  0.4738060000000  0.4287760000000  0.4466040000000 1.0
C      1  0.5365260000000  0.4835950000000  0.5995260000000 1.0
C      1  0.5781300000000  0.5295030000000  0.5009550000000 1.0
C      1  0.5122480000000  0.4991480000000  0.5054360000000 1.0
C      1  0.4300090000000  0.4479380000000  0.4612710000000 1.0
C      1  0.5078120000000  0.4093060000000  0.5364050000000 1.0
C      1  0.5090700000000  0.4713150000000  0.5013110000000 1.0
C      1  0.3948150000000  0.4995320000000  0.4662460000000 1.0
C      1  0.5384420000000  0.5054840000000  0.5159080000000 1.0
C      1  0.5198570000000  0.4050700000000  0.4891140000000 1.0
C      1  0.5247810000000  0.5241850000000  0.4483400000000 1.0
C      1  0.4910480000000  0.5278040000000  0.3809000000000 1.0
C      1  0.4561910000000  0.4511050000000  0.4372880000000 1.0
C      1  0.6033430000000  0.3824290000000  0.3993990000000 1.0
C      1  0.4979670000000  0.3879220000000  0.4825620000000 1.0
C      1  0.5456800000000  0.5818650000000  0.5368610000000 1.0
C      1  0.5055030000000  0.5719250000000  0.4078990000000 1.0
C      1  0.4783920000000  0.5035520000000  0.3815960000000 1.0
C      1  0.5121630000000  0.5007210000000  0.6011860000000 1.0
C      1  0.5552390000000  0.4060230000000  0.5241030000000 1.0
C      1  0.5108430000000  0.5441100000000  0.4631340000000 1.0
C      1  0.5280170000000  0.4055960000000  0.5166390000000 1.0
C      1  0.4992060000000  0.5515030000000  0.3912370000000 1.0
C      1  0.4802080000000  0.6080620000000  0.4647580000000 1.0
C      1  0.4637340000000  0.5623080000000  0.4461830000000 1.0
C      1  0.5450670000000  0.5753330000000  0.4375410000000 1.0
C      1  0.4048640000000  0.4764760000000  0.5348610000000 1.0
C      1  0.4847810000000  0.5436250000000  0.4505280000000 1.0
C      1  0.4531940000000  0.4251920000000  0.5150100000000 1.0
C      1  0.4361940000000  0.4807960000000  0.5001080000000 1.0
C      1  0.5837370000000  0.4478120000000  0.7196160000000 1.0
C      1  0.4164580000000  0.3964950000000  0.5393280000000 1.0
C      1  0.3923890000000  0.4926600000000  0.5141650000000 1.0
C      1  0.4107860000000  0.5441010000000  0.4644170000000 1.0
C      1  0.4173980000000  0.5170620000000  0.4688090000000 1.0
C      1  0.4347250000000  0.4108800000000  0.5275490000000 1.0
C      1  0.4460630000000  0.5876430000000  0.5346810000000 1.0
C      1  0.5338790000000  0.4574970000000  0.5045240000000 1.0
C      1  0.3931450000000  0.4617290000000  0.5542630000000 1.0
C      1  0.4480080000000  0.5576150000000  0.4231070000000 1.0
C      1  0.5678630000000  0.4956410000000  0.4560680000000 1.0
C      1  0.4186120000000  0.4641310000000  0.4829790000000 1.0
C      1  0.4525240000000  0.6043190000000  0.5106970000000 1.0
C      1  0.5686760000000  0.5686960000000  0.5316060000000 1.0
C      1  0.5408210000000  0.4520670000000  0.4760770000000 1.0
C      1  0.5516780000000  0.5621340000000  0.4805510000000 1.0
C      1  0.5624850000000  0.5056240000000  0.5015650000000 1.0
C      1  0.5819740000000  0.4479210000000  0.5374200000000 1.0
C      1  0.5174220000000  0.5998250000000  0.5029440000000 1.0
C      1  0.5852430000000  0.3917710000000  0.4156690000000 1.0
C      1  0.5528350000000  0.4729180000000  0.5770120000000 1.0
C      1  0.5763900000000  0.4203610000000  0.5325960000000 1.0
C      1  0.4516630000000  0.5447680000000  0.5164930000000 1.0
C      1  0.5590740000000  0.5491320000000  0.4327660000000 1.0
C      1  0.4760770000000  0.5546930000000  0.5288090000000 1.0
C      1  0.4407480000000  0.5051960000000  0.4832380000000 1.0
C      1  0.4599750000000  0.5975450000000  0.4824670000000 1.0
C      1  0.5721940000000  0.5428660000000  0.4771140000000 1.0
C      1  0.4918570000000  0.5198310000000  0.5983140000000 1.0
C      1  0.4908630000000  0.4255680000000  0.5498070000000 1.0
C      1  0.5967590000000  0.4615820000000  0.5172970000000 1.0
C      1  0.5089070000000  0.5038120000000  0.4368780000000 1.0
C      1  0.4400560000000  0.5316960000000  0.4152160000000 1.0
C      1  0.5785520000000  0.5425400000000  0.5267660000000 1.0
C      1  0.5031810000000  0.4985940000000  0.5561960000000 1.0
C      1  0.5557450000000  0.4688310000000  0.6487100000000 1.0
C      1  0.5019120000000  0.4292090000000  0.4510680000000 1.0
C      1  0.5451290000000  0.5133740000000  0.5425150000000 1.0
C      1  0.5286890000000  0.4247370000000  0.4662220000000 1.0
C      1  0.5601820000000  0.4611740000000  0.5509100000000 1.0
C      1  0.5180490000000  0.5458430000000  0.5108290000000 1.0
C      1  0.4825420000000  0.5174700000000  0.4364310000000 1.0
C      1  0.5235050000000  0.5177870000000  0.5591260000000 1.0
C      1  0.4971810000000  0.5693440000000  0.5424090000000 1.0
C      1  0.4885090000000  0.4533220000000  0.5528710000000 1.0
C      1  0.5141920000000  0.4665210000000  0.5480030000000 1.0
C      1  0.5173710000000  0.5847820000000  0.4304860000000 1.0
C      1  0.5463650000000  0.4758670000000  0.6249600000000 1.0
C      1  0.5651270000000  0.4617910000000  0.6724720000000 1.0
C      1  0.3932680000000  0.4798450000000  0.4869080000000 1.0
C      1  0.5881640000000  0.5167950000000  0.5674810000000 1.0
C      1  0.4802930000000  0.5427570000000  0.5827860000000 1.0
C      1  0.5057380000000  0.6008770000000  0.4539370000000 1.0
C      1  0.4019410000000  0.5203720000000  0.5178460000000 1.0
C      1  0.5745090000000  0.4547440000000  0.6962390000000 1.0
C      1  0.5908240000000  0.4841310000000  0.4699500000000 1.0
C      1  0.4543210000000  0.5435530000000  0.5694920000000 1.0
C      1  0.5248910000000  0.5429550000000  0.5726380000000 1.0
C      1  0.5183630000000  0.5862220000000  0.5287540000000 1.0
C      1  0.4200620000000  0.5694400000000  0.4657670000000 1.0
C      1  0.5485640000000  0.4112050000000  0.4485800000000 1.0
C      1  0.4452460000000  0.5171850000000  0.5616080000000 1.0
C      1  0.5713090000000  0.5238100000000  0.5473120000000 1.0
C      1  0.4714240000000  0.4398250000000  0.5023370000000 1.0
C      1  0.4331320000000  0.4803030000000  0.5291240000000 1.0
END
