TITL C-599891-72-181 0.00595900062974322 125000 -487.558335754646 0 0 80 (C1) n - 1
REM
REM in /home/nfs/bkarasulu/CARBON/AIRSS/Generating-Clusters/TERSOFF/Only-C1/FIRE-HFTN
REM
REM
REM
REM
REM
REM ./C.cell (11c1c37f851c82e70ff6c80c92926a4b)
REM AIRSS Version 0.9.1 bugfix July 2018 build 013d7b7c2542+ Fri, 06 Jul 2018 19:26:36 +0100
REM compiler GCC version 9.2.1 20190827 (Red Hat 9.2.1-1)
REM options -cpp -mtune=generic -march=x86-64 -g -O0 -fpre-include=/usr/include/finclude/math-vector-fortran.h
REM seed 1477135818 2035408563 1150557545 2027152300 -815179521 -949693181 -512057750 173755346 1432920087 -630981517 -1672971820 -1417042887 -1878289143 -874126094 -1729701005 833072713 1510497766 1600514092 -796732659 1765348058 351533928 -476610515 885855524 388343613 -685389304 1537999766 112142606 -66684240 -1097987904 819614814 -1987327695 -2064497974 -641303891
REM
CELL 1.54180   50.00000   50.00000   50.00000   90.00000   90.00000   90.00000
LATT -1
SFAC C  
C      1  0.5766720000000  0.5639240000000  0.5214510000000 1.0
C      1  0.5614600000000  0.4477350000000  0.5219590000000 1.0
C      1  0.5612450000000  0.5584500000000  0.4368920000000 1.0
C      1  0.4938380000000  0.5375940000000  0.5065220000000 1.0
C      1  0.5588770000000  0.5298240000000  0.4377830000000 1.0
C      1  0.4438840000000  0.5203660000000  0.4568050000000 1.0
C      1  0.4883270000000  0.5328280000000  0.4787400000000 1.0
C      1  0.5150020000000  0.5942610000000  0.4841470000000 1.0
C      1  0.5322380000000  0.5068780000000  0.5405160000000 1.0
C      1  0.4274430000000  0.4872710000000  0.5543460000000 1.0
C      1  0.5078180000000  0.4427440000000  0.4814220000000 1.0
C      1  0.5417400000000  0.4548110000000  0.5437510000000 1.0
C      1  0.4627330000000  0.4842440000000  0.6093800000000 1.0
C      1  0.4377200000000  0.4331470000000  0.4796730000000 1.0
C      1  0.4144880000000  0.4993320000000  0.5105660000000 1.0
C      1  0.4522650000000  0.4490060000000  0.5735890000000 1.0
C      1  0.5487780000000  0.4067220000000  0.5018550000000 1.0
C      1  0.4318630000000  0.5050770000000  0.5328160000000 1.0
C      1  0.4586020000000  0.5103530000000  0.5238630000000 1.0
C      1  0.5927060000000  0.5816890000000  0.5317670000000 1.0
C      1  0.5282460000000  0.6044980000000  0.4398430000000 1.0
C      1  0.5316220000000  0.5037870000000  0.4691690000000 1.0
C      1  0.5481370000000  0.4843080000000  0.5484930000000 1.0
C      1  0.5581560000000  0.5462190000000  0.5101710000000 1.0
C      1  0.4321100000000  0.4540750000000  0.4991590000000 1.0
C      1  0.4336990000000  0.4596150000000  0.5535250000000 1.0
C      1  0.4557050000000  0.4998530000000  0.6296000000000 1.0
C      1  0.5366430000000  0.5912160000000  0.4651040000000 1.0
C      1  0.5039300000000  0.5042220000000  0.5406440000000 1.0
C      1  0.5394790000000  0.3952770000000  0.5245580000000 1.0
C      1  0.5452220000000  0.4875980000000  0.4091780000000 1.0
C      1  0.5590340000000  0.5765270000000  0.4155010000000 1.0
C      1  0.4911940000000  0.4301200000000  0.4618320000000 1.0
C      1  0.5169340000000  0.5926220000000  0.5381890000000 1.0
C      1  0.4486840000000  0.5152600000000  0.6494230000000 1.0
C      1  0.5004520000000  0.6106290000000  0.4438500000000 1.0
C      1  0.5840810000000  0.4649790000000  0.5261090000000 1.0
C      1  0.4636760000000  0.4273350000000  0.4691220000000 1.0
C      1  0.4871530000000  0.4892050000000  0.4580590000000 1.0
C      1  0.4603400000000  0.5394400000000  0.4711980000000 1.0
C      1  0.4725220000000  0.4305640000000  0.5596650000000 1.0
C      1  0.4932340000000  0.4602220000000  0.4977330000000 1.0
C      1  0.5433420000000  0.5985800000000  0.4169650000000 1.0
C      1  0.5521740000000  0.4346630000000  0.4985980000000 1.0
C      1  0.5006820000000  0.4311760000000  0.4353950000000 1.0
C      1  0.4790130000000  0.4796550000000  0.4838530000000 1.0
C      1  0.4632410000000  0.4958590000000  0.4997400000000 1.0
C      1  0.4681160000000  0.4389870000000  0.5318440000000 1.0
C      1  0.4435940000000  0.4743370000000  0.4453930000000 1.0
C      1  0.4691900000000  0.4687050000000  0.5875330000000 1.0
C      1  0.4848440000000  0.5221090000000  0.5288600000000 1.0
C      1  0.4948060000000  0.4780620000000  0.5458370000000 1.0
C      1  0.5251340000000  0.4336930000000  0.5553400000000 1.0
C      1  0.4942150000000  0.4675250000000  0.5729220000000 1.0
C      1  0.5768060000000  0.4857470000000  0.5427910000000 1.0
C      1  0.4907150000000  0.6004760000000  0.4691230000000 1.0
C      1  0.5559190000000  0.5104570000000  0.4179500000000 1.0
C      1  0.4406580000000  0.4486710000000  0.5266900000000 1.0
C      1  0.5511700000000  0.5234050000000  0.4651720000000 1.0
C      1  0.4248700000000  0.5681210000000  0.4876750000000 1.0
C      1  0.4165530000000  0.4178100000000  0.4710740000000 1.0
C      1  0.5309920000000  0.4650160000000  0.4094520000000 1.0
C      1  0.5399580000000  0.4768660000000  0.4736200000000 1.0
C      1  0.4682670000000  0.4875060000000  0.4366760000000 1.0
C      1  0.5039970000000  0.5116000000000  0.4650790000000 1.0
C      1  0.5169910000000  0.5942130000000  0.5117420000000 1.0
C      1  0.4999980000000  0.4387850000000  0.5680590000000 1.0
C      1  0.5354670000000  0.4497020000000  0.4810040000000 1.0
C      1  0.4501090000000  0.5653260000000  0.4774920000000 1.0
C      1  0.5541870000000  0.5465560000000  0.4822770000000 1.0
C      1  0.5154500000000  0.4450180000000  0.4178990000000 1.0
C      1  0.5444840000000  0.5284330000000  0.5271740000000 1.0
C      1  0.5309360000000  0.4071670000000  0.5471980000000 1.0
C      1  0.5541490000000  0.5690080000000  0.4637120000000 1.0
C      1  0.4305850000000  0.4929250000000  0.4647510000000 1.0
C      1  0.4664860000000  0.5877860000000  0.4736360000000 1.0
C      1  0.4879910000000  0.4585920000000  0.5248810000000 1.0
C      1  0.4573610000000  0.5140220000000  0.4307550000000 1.0
C      1  0.4221100000000  0.4809380000000  0.4899220000000 1.0
C      1  0.5174890000000  0.5886780000000  0.5639500000000 1.0
END
