TITL C-599891-72-355 1.14880633600647 125000 -149.437575414593 0 0 26 (C1) n - 1
REM
REM in /home/nfs/bkarasulu/CARBON/AIRSS/Generating-Clusters/TERSOFF/Only-C1/FIRE-HFTN
REM
REM
REM
REM
REM
REM ./C.cell (11c1c37f851c82e70ff6c80c92926a4b)
REM AIRSS Version 0.9.1 bugfix July 2018 build 013d7b7c2542+ Fri, 06 Jul 2018 19:26:36 +0100
REM compiler GCC version 9.2.1 20190827 (Red Hat 9.2.1-1)
REM options -cpp -mtune=generic -march=x86-64 -g -O0 -fpre-include=/usr/include/finclude/math-vector-fortran.h
REM seed 660246606 1042655854 991139090 -717919338 -738818408 1204694050 1365058882 -627036276 -1690652592 518758288 1141807301 196740671 154459423 -748653746 -1042700633 2104538259 1486480550 -290631125 1808412812 -1525173474 -237333624 -1317692820 431484018 -288422680 1054078760 1468271925 924044436 1623543446 -720602573 1572439293 -1758691899 -989744960 468827622
REM
CELL 1.54180   50.00000   50.00000   50.00000   90.00000   90.00000   90.00000
LATT -1
SFAC C  
C      1  0.3920080000000  0.3936110000000  0.5210180000000 1.0
C      1  0.5392550000000  0.5455850000000  0.4975280000000 1.0
C      1  0.5632640000000  0.5222140000000  0.4565250000000 1.0
C      1  0.4782490000000  0.4944520000000  0.5033060000000 1.0
C      1  0.5589870000000  0.5330410000000  0.4821980000000 1.0
C      1  0.4261500000000  0.4335450000000  0.5139960000000 1.0
C      1  0.4718620000000  0.5160330000000  0.4864160000000 1.0
C      1  0.5152740000000  0.5273430000000  0.4350850000000 1.0
C      1  0.4817210000000  0.5384100000000  0.4724640000000 1.0
C      1  0.5664150000000  0.4799850000000  0.5507940000000 1.0
C      1  0.5279310000000  0.5352360000000  0.5221260000000 1.0
C      1  0.4090810000000  0.4135810000000  0.5175060000000 1.0
C      1  0.5874540000000  0.5120330000000  0.4490950000000 1.0
C      1  0.5465280000000  0.4930040000000  0.5390940000000 1.0
C      1  0.5031340000000  0.4945060000000  0.5164170000000 1.0
C      1  0.4931660000000  0.5596310000000  0.4880040000000 1.0
C      1  0.5213360000000  0.5632780000000  0.4837440000000 1.0
C      1  0.5412330000000  0.5224490000000  0.4389770000000 1.0
C      1  0.4432180000000  0.4535090000000  0.5104860000000 1.0
C      1  0.5063190000000  0.5509640000000  0.5327750000000 1.0
C      1  0.5263250000000  0.5071050000000  0.5261980000000 1.0
C      1  0.5860440000000  0.4672200000000  0.5622570000000 1.0
C      1  0.4602790000000  0.4734640000000  0.5069770000000 1.0
C      1  0.4874380000000  0.5615780000000  0.5159550000000 1.0
C      1  0.4921130000000  0.5342510000000  0.4465890000000 1.0
C      1  0.3752170000000  0.3739700000000  0.5244710000000 1.0
END
