TITL C-599894-471-1143 0.000263630087825689 125000 -857.529813988608 0 0 138 (C1) n - 1
REM
REM in /home/nfs/bkarasulu/CARBON/AIRSS/Generating-Clusters/TERSOFF/Only-C1/FIRE-HFTN
REM
REM
REM
REM
REM
REM ./C.cell (11c1c37f851c82e70ff6c80c92926a4b)
REM AIRSS Version 0.9.1 bugfix July 2018 build 013d7b7c2542+ Fri, 06 Jul 2018 19:26:36 +0100
REM compiler GCC version 9.2.1 20190827 (Red Hat 9.2.1-1)
REM options -cpp -mtune=generic -march=x86-64 -g -O0 -fpre-include=/usr/include/finclude/math-vector-fortran.h
REM seed 1763651585 955167866 1744913046 -947747950 262645423 788722597 1821024765 789097613 886392615 -826630533 1077891769 1384264587 -1074342204 543130399 1053628149 -1547228961 -1247539818 -129196655 -1773323848 467786486 1159571617 -2116626036 1760269035 592909767 56067986 1544435056 507095978 381433481 814813451 1353378793 1037539700 -1156015195 1169001370
REM
CELL 1.54180   50.00000   50.00000   50.00000   90.00000   90.00000   90.00000
LATT -1
SFAC C  
C      1  0.5280280000000  0.4845250000000  0.5423880000000 1.0
C      1  0.4711940000000  0.5221260000000  0.5332500000000 1.0
C      1  0.5711620000000  0.6009200000000  0.5389810000000 1.0
C      1  0.4307380000000  0.4997450000000  0.5240010000000 1.0
C      1  0.4967320000000  0.4289920000000  0.4904910000000 1.0
C      1  0.5955140000000  0.4682380000000  0.5106990000000 1.0
C      1  0.6013920000000  0.5123970000000  0.4912640000000 1.0
C      1  0.4609370000000  0.4713240000000  0.4832820000000 1.0
C      1  0.4005990000000  0.5441230000000  0.4756150000000 1.0
C      1  0.5035540000000  0.5174210000000  0.5708090000000 1.0
C      1  0.4933300000000  0.4932760000000  0.5076070000000 1.0
C      1  0.5632860000000  0.4531140000000  0.4255760000000 1.0
C      1  0.5174630000000  0.5697590000000  0.5551410000000 1.0
C      1  0.3923910000000  0.5326810000000  0.5276290000000 1.0
C      1  0.5209280000000  0.6122680000000  0.4775960000000 1.0
C      1  0.5821340000000  0.5222900000000  0.4459000000000 1.0
C      1  0.3755360000000  0.5095120000000  0.5225430000000 1.0
C      1  0.5641550000000  0.4297710000000  0.4388420000000 1.0
C      1  0.4466260000000  0.4157580000000  0.4889240000000 1.0
C      1  0.3941120000000  0.4591450000000  0.4792640000000 1.0
C      1  0.4656270000000  0.5153620000000  0.4073810000000 1.0
C      1  0.5540890000000  0.4017180000000  0.4797880000000 1.0
C      1  0.5425510000000  0.4981570000000  0.4975260000000 1.0
C      1  0.4448720000000  0.5230840000000  0.5233120000000 1.0
C      1  0.4325310000000  0.4456070000000  0.4503260000000 1.0
C      1  0.5598570000000  0.5362660000000  0.4333120000000 1.0
C      1  0.6039100000000  0.5994510000000  0.5029280000000 1.0
C      1  0.4189960000000  0.4708100000000  0.5593840000000 1.0
C      1  0.5390100000000  0.5253580000000  0.4166240000000 1.0
C      1  0.4885590000000  0.5129720000000  0.4647990000000 1.0
C      1  0.5100350000000  0.4693590000000  0.6033420000000 1.0
C      1  0.4498910000000  0.5605900000000  0.5637090000000 1.0
C      1  0.5529830000000  0.4550010000000  0.5737600000000 1.0
C      1  0.3867580000000  0.4831470000000  0.5226110000000 1.0
C      1  0.5061910000000  0.5662950000000  0.4674430000000 1.0
C      1  0.4322790000000  0.4209010000000  0.4350170000000 1.0
C      1  0.6010660000000  0.5146190000000  0.5664800000000 1.0
C      1  0.4352490000000  0.5353190000000  0.5675840000000 1.0
C      1  0.5385830000000  0.4511410000000  0.5076160000000 1.0
C      1  0.5243870000000  0.5110630000000  0.5513570000000 1.0
C      1  0.4642810000000  0.4654590000000  0.5708810000000 1.0
C      1  0.4528360000000  0.5399790000000  0.4168120000000 1.0
C      1  0.4207420000000  0.5483970000000  0.4552280000000 1.0
C      1  0.5113950000000  0.5341760000000  0.4130270000000 1.0
C      1  0.3920870000000  0.4588610000000  0.5075380000000 1.0
C      1  0.4084340000000  0.4863750000000  0.4412620000000 1.0
C      1  0.4518910000000  0.4216450000000  0.4143010000000 1.0
C      1  0.5105740000000  0.5830220000000  0.4022280000000 1.0
C      1  0.4832350000000  0.4680790000000  0.5485950000000 1.0
C      1  0.5873130000000  0.5570550000000  0.5466510000000 1.0
C      1  0.5584300000000  0.4370050000000  0.5513420000000 1.0
C      1  0.5645890000000  0.6275230000000  0.4992720000000 1.0
C      1  0.4602320000000  0.5761680000000  0.4453900000000 1.0
C      1  0.4807840000000  0.4539450000000  0.4379480000000 1.0
C      1  0.5199180000000  0.4456350000000  0.4852030000000 1.0
C      1  0.6024630000000  0.4835180000000  0.4871540000000 1.0
C      1  0.4714410000000  0.4262100000000  0.4759600000000 1.0
C      1  0.4742010000000  0.4373760000000  0.4158290000000 1.0
C      1  0.4516610000000  0.5568280000000  0.4908300000000 1.0
C      1  0.4104520000000  0.4627740000000  0.4564480000000 1.0
C      1  0.4883010000000  0.4005290000000  0.5297010000000 1.0
C      1  0.4959100000000  0.4993520000000  0.4407480000000 1.0
C      1  0.4406960000000  0.3688520000000  0.4906130000000 1.0
C      1  0.5815450000000  0.6117820000000  0.5151010000000 1.0
C      1  0.4942400000000  0.5813410000000  0.5661880000000 1.0
C      1  0.4608760000000  0.4514420000000  0.4603990000000 1.0
C      1  0.5439390000000  0.5680580000000  0.5665110000000 1.0
C      1  0.4114730000000  0.4010010000000  0.5836820000000 1.0
C      1  0.5456330000000  0.4979460000000  0.4093580000000 1.0
C      1  0.4058590000000  0.5432350000000  0.5039590000000 1.0
C      1  0.4430090000000  0.5645990000000  0.4649280000000 1.0
C      1  0.5880920000000  0.4412690000000  0.5108920000000 1.0
C      1  0.4352490000000  0.3926920000000  0.4767940000000 1.0
C      1  0.4907510000000  0.4889260000000  0.6055530000000 1.0
C      1  0.5481690000000  0.5498640000000  0.5880170000000 1.0
C      1  0.4934290000000  0.5408650000000  0.4731380000000 1.0
C      1  0.5715430000000  0.4125750000000  0.4599540000000 1.0
C      1  0.5020950000000  0.4715420000000  0.4439150000000 1.0
C      1  0.5901990000000  0.4880060000000  0.5606730000000 1.0
C      1  0.5851710000000  0.4959190000000  0.4355420000000 1.0
C      1  0.4785810000000  0.4938320000000  0.4840660000000 1.0
C      1  0.4228720000000  0.5048990000000  0.4263980000000 1.0
C      1  0.5423530000000  0.6263620000000  0.4846440000000 1.0
C      1  0.4550160000000  0.4566820000000  0.5085390000000 1.0
C      1  0.4907710000000  0.4262360000000  0.5188170000000 1.0
C      1  0.4823110000000  0.4955120000000  0.5335910000000 1.0
C      1  0.6089750000000  0.5780110000000  0.4873840000000 1.0
C      1  0.5413690000000  0.5249540000000  0.5064110000000 1.0
C      1  0.4265820000000  0.3974720000000  0.4501940000000 1.0
C      1  0.5535900000000  0.5253850000000  0.5976750000000 1.0
C      1  0.5243430000000  0.4585080000000  0.5810550000000 1.0
C      1  0.5389060000000  0.4780530000000  0.5173980000000 1.0
C      1  0.5644030000000  0.5639080000000  0.4803200000000 1.0
C      1  0.5534810000000  0.4065780000000  0.5067470000000 1.0
C      1  0.5672280000000  0.5762180000000  0.5516810000000 1.0
C      1  0.4807050000000  0.5094180000000  0.5870800000000 1.0
C      1  0.4840170000000  0.5952550000000  0.5039970000000 1.0
C      1  0.4117850000000  0.4217780000000  0.5679580000000 1.0
C      1  0.6035040000000  0.4239160000000  0.4946020000000 1.0
C      1  0.4443690000000  0.4961020000000  0.4089930000000 1.0
C      1  0.5022010000000  0.5923470000000  0.3778660000000 1.0
C      1  0.5303540000000  0.5304790000000  0.5318550000000 1.0
C      1  0.5119090000000  0.4659210000000  0.5563850000000 1.0
C      1  0.5465540000000  0.5470420000000  0.4904750000000 1.0
C      1  0.5933820000000  0.4869000000000  0.5320040000000 1.0
C      1  0.5385840000000  0.4879220000000  0.4714900000000 1.0
C      1  0.4923630000000  0.5128020000000  0.4164130000000 1.0
C      1  0.4108690000000  0.4868290000000  0.5378890000000 1.0
C      1  0.4350400000000  0.4354110000000  0.5066180000000 1.0
C      1  0.4686490000000  0.5800480000000  0.5534110000000 1.0
C      1  0.4413770000000  0.4821040000000  0.5737300000000 1.0
C      1  0.4696860000000  0.5918280000000  0.5270180000000 1.0
C      1  0.5695200000000  0.4786890000000  0.5780460000000 1.0
C      1  0.5991180000000  0.5321950000000  0.5435530000000 1.0
C      1  0.5653090000000  0.4809280000000  0.4215060000000 1.0
C      1  0.4577330000000  0.3641120000000  0.5109670000000 1.0
C      1  0.4338630000000  0.5445510000000  0.5085730000000 1.0
C      1  0.4758100000000  0.3770850000000  0.5259890000000 1.0
C      1  0.4781190000000  0.5485310000000  0.4959360000000 1.0
C      1  0.4505720000000  0.5104650000000  0.5785490000000 1.0
C      1  0.4869460000000  0.5435410000000  0.5223720000000 1.0
C      1  0.4758900000000  0.4490980000000  0.5269790000000 1.0
C      1  0.5309000000000  0.5954390000000  0.4157240000000 1.0
C      1  0.5598720000000  0.4993080000000  0.5954370000000 1.0
C      1  0.4980770000000  0.5601370000000  0.4133600000000 1.0
C      1  0.4276790000000  0.5332330000000  0.4318900000000 1.0
C      1  0.5028790000000  0.5912960000000  0.4823100000000 1.0
C      1  0.4704650000000  0.5615420000000  0.4232850000000 1.0
C      1  0.4138080000000  0.4434140000000  0.5506490000000 1.0
C      1  0.5956900000000  0.5308560000000  0.4701490000000 1.0
C      1  0.5981010000000  0.4144380000000  0.4698770000000 1.0
C      1  0.5216570000000  0.4657770000000  0.4641710000000 1.0
C      1  0.5982310000000  0.5146760000000  0.5204660000000 1.0
C      1  0.4085110000000  0.5347310000000  0.5533060000000 1.0
C      1  0.4111370000000  0.4408570000000  0.5213630000000 1.0
C      1  0.5118600000000  0.5516360000000  0.5335360000000 1.0
C      1  0.5598960000000  0.4329970000000  0.5205340000000 1.0
C      1  0.5918520000000  0.5583300000000  0.4771070000000 1.0
END
