TITL C-599891-72-1116 0.620616705171068 125000 -360.44775137935 0 0 61 (C1) n - 1
REM
REM in /home/nfs/bkarasulu/CARBON/AIRSS/Generating-Clusters/TERSOFF/Only-C1/FIRE-HFTN
REM
REM
REM
REM
REM
REM ./C.cell (11c1c37f851c82e70ff6c80c92926a4b)
REM AIRSS Version 0.9.1 bugfix July 2018 build 013d7b7c2542+ Fri, 06 Jul 2018 19:26:36 +0100
REM compiler GCC version 9.2.1 20190827 (Red Hat 9.2.1-1)
REM options -cpp -mtune=generic -march=x86-64 -g -O0 -fpre-include=/usr/include/finclude/math-vector-fortran.h
REM seed -465251526 1662238760 -826481662 148340436 1187924771 690538058 251089748 310370502 850606628 1113671097 -2067881659 -1340807835 130526972 -1405113361 1312383079 -1108496885 -390004499 1827101934 -1376730309 -1575471699 366831888 1762200400 -32252216 -42810822 1195643119 -1398888778 1575023695 -866505216 -1434862028 494920422 243596394 1944614139 -1269056454
REM
CELL 1.54180   50.00000   50.00000   50.00000   90.00000   90.00000   90.00000
LATT -1
SFAC C  
C      1  0.5622820000000  0.5653610000000  0.5039450000000 1.0
C      1  0.5148760000000  0.4519740000000  0.5350330000000 1.0
C      1  0.5554710000000  0.5164820000000  0.5025080000000 1.0
C      1  0.3806780000000  0.4825840000000  0.5061180000000 1.0
C      1  0.5021340000000  0.5155650000000  0.4715330000000 1.0
C      1  0.5044330000000  0.5238100000000  0.4994330000000 1.0
C      1  0.4909080000000  0.4247400000000  0.4518790000000 1.0
C      1  0.3609800000000  0.4864650000000  0.5227340000000 1.0
C      1  0.5335310000000  0.5444930000000  0.5374210000000 1.0
C      1  0.6399480000000  0.4469390000000  0.5365790000000 1.0
C      1  0.5806810000000  0.4212490000000  0.5042620000000 1.0
C      1  0.5072090000000  0.5000130000000  0.5188580000000 1.0
C      1  0.5919890000000  0.4457140000000  0.5118000000000 1.0
C      1  0.4106320000000  0.5220140000000  0.4662880000000 1.0
C      1  0.4619170000000  0.5376680000000  0.5314890000000 1.0
C      1  0.5395810000000  0.4782240000000  0.4768010000000 1.0
C      1  0.5007250000000  0.4560110000000  0.5595070000000 1.0
C      1  0.4920110000000  0.4891390000000  0.4691170000000 1.0
C      1  0.5355300000000  0.5604950000000  0.5130800000000 1.0
C      1  0.4019940000000  0.4790510000000  0.4884310000000 1.0
C      1  0.5574240000000  0.5042040000000  0.5519600000000 1.0
C      1  0.4756680000000  0.5863370000000  0.4760220000000 1.0
C      1  0.4456970000000  0.5019500000000  0.4928280000000 1.0
C      1  0.4193810000000  0.4332770000000  0.4662900000000 1.0
C      1  0.4890750000000  0.4989380000000  0.5411160000000 1.0
C      1  0.4436260000000  0.6167580000000  0.3970990000000 1.0
C      1  0.4222110000000  0.5692890000000  0.4473930000000 1.0
C      1  0.5335210000000  0.4080970000000  0.5130950000000 1.0
C      1  0.6168990000000  0.4461880000000  0.5244380000000 1.0
C      1  0.4388300000000  0.5915780000000  0.4446060000000 1.0
C      1  0.5938650000000  0.4944060000000  0.5040570000000 1.0
C      1  0.5850690000000  0.5499260000000  0.5009960000000 1.0
C      1  0.4123830000000  0.5457310000000  0.4545440000000 1.0
C      1  0.4659030000000  0.4157170000000  0.4521780000000 1.0
C      1  0.5777730000000  0.4700260000000  0.5072100000000 1.0
C      1  0.4659100000000  0.4867530000000  0.4796990000000 1.0
C      1  0.4460880000000  0.6240280000000  0.4797390000000 1.0
C      1  0.5112000000000  0.5527670000000  0.4994720000000 1.0
C      1  0.5476030000000  0.5201480000000  0.5311930000000 1.0
C      1  0.5247840000000  0.4748290000000  0.5199950000000 1.0
C      1  0.5587740000000  0.4060890000000  0.5047030000000 1.0
C      1  0.5015460000000  0.4381600000000  0.5807550000000 1.0
C      1  0.5090330000000  0.5474830000000  0.5514040000000 1.0
C      1  0.4411900000000  0.6044640000000  0.4199490000000 1.0
C      1  0.5136260000000  0.4697660000000  0.4665510000000 1.0
C      1  0.5460120000000  0.5066510000000  0.4764600000000 1.0
C      1  0.5028230000000  0.4210540000000  0.6003740000000 1.0
C      1  0.5177230000000  0.4261530000000  0.5246420000000 1.0
C      1  0.4863400000000  0.4801590000000  0.5601940000000 1.0
C      1  0.4510440000000  0.5209650000000  0.5133320000000 1.0
C      1  0.5659070000000  0.4901540000000  0.5722050000000 1.0
C      1  0.5844020000000  0.5212450000000  0.5013520000000 1.0
C      1  0.4191540000000  0.5008320000000  0.4824350000000 1.0
C      1  0.5278060000000  0.5209140000000  0.4599650000000 1.0
C      1  0.5485200000000  0.4701050000000  0.5031610000000 1.0
C      1  0.4823660000000  0.5469320000000  0.5465560000000 1.0
C      1  0.5083200000000  0.4442010000000  0.4568360000000 1.0
C      1  0.4946130000000  0.5714880000000  0.4870840000000 1.0
C      1  0.4066860000000  0.4540720000000  0.4767860000000 1.0
C      1  0.4535980000000  0.6009860000000  0.4670280000000 1.0
C      1  0.4400960000000  0.4191870000000  0.4574830000000 1.0
END
