TITL C-599895-9959-84 -0.830360545633446 125000 -1129.71784688736 0 0 183 (C1) n - 1
REM
REM in /home/nfs/bkarasulu/CARBON/AIRSS/Generating-Clusters/TERSOFF/Only-C1/FIRE-HFTN
REM
REM
REM
REM
REM
REM ./C.cell (11c1c37f851c82e70ff6c80c92926a4b)
REM AIRSS Version 0.9.1 bugfix July 2018 build 013d7b7c2542+ Fri, 06 Jul 2018 19:26:36 +0100
REM compiler GCC version 9.2.1 20190827 (Red Hat 9.2.1-1)
REM options -cpp -mtune=generic -march=x86-64 -g -O0 -fpre-include=/usr/include/finclude/math-vector-fortran.h
REM seed -1977488109 1217202722 483160573 523199152 -446651221 2072835894 935409324 1260126042 -993663013 -1789083243 -1690293027 -1313521318 1456901937 -831738925 -722100695 401858320 -1726588999 -169974389 -1555481008 131398390 1212101986 -2115177091 1697284274 -1219657892 2124705515 -1667617064 1981208395 2128612499 1785732891 -1039208266 -962829099 -1219091085 1617544228
REM
CELL 1.54180   50.00000   50.00000   50.00000   90.00000   90.00000   90.00000
LATT -1
SFAC C  
C      1  0.4341590000000  0.4079800000000  0.4883980000000 1.0
C      1  0.3968450000000  0.5420110000000  0.5089060000000 1.0
C      1  0.5398270000000  0.5549000000000  0.6162870000000 1.0
C      1  0.4294970000000  0.3363050000000  0.4851320000000 1.0
C      1  0.3632450000000  0.4879850000000  0.5531500000000 1.0
C      1  0.4742540000000  0.5463490000000  0.5168800000000 1.0
C      1  0.5322120000000  0.4972960000000  0.4324920000000 1.0
C      1  0.6099500000000  0.5732400000000  0.5237710000000 1.0
C      1  0.4163180000000  0.5598800000000  0.5225880000000 1.0
C      1  0.5679650000000  0.5033890000000  0.6014610000000 1.0
C      1  0.4389770000000  0.4560740000000  0.6093010000000 1.0
C      1  0.5480050000000  0.4077920000000  0.5460620000000 1.0
C      1  0.4536120000000  0.4336570000000  0.6043060000000 1.0
C      1  0.4774740000000  0.6279570000000  0.5376750000000 1.0
C      1  0.4892410000000  0.4421810000000  0.4109120000000 1.0
C      1  0.4995930000000  0.5887670000000  0.4961860000000 1.0
C      1  0.5271280000000  0.5243600000000  0.4229470000000 1.0
C      1  0.4324580000000  0.4284210000000  0.5604770000000 1.0
C      1  0.5596400000000  0.5758820000000  0.6124390000000 1.0
C      1  0.6889460000000  0.4807750000000  0.3916330000000 1.0
C      1  0.4058280000000  0.5607260000000  0.4651110000000 1.0
C      1  0.5657730000000  0.6325510000000  0.4451570000000 1.0
C      1  0.5315990000000  0.5198760000000  0.5096420000000 1.0
C      1  0.5563090000000  0.3822390000000  0.5055390000000 1.0
C      1  0.5391160000000  0.5154280000000  0.4824800000000 1.0
C      1  0.5674720000000  0.4736550000000  0.5027160000000 1.0
C      1  0.4614040000000  0.3692070000000  0.4676980000000 1.0
C      1  0.5872000000000  0.4345540000000  0.5601700000000 1.0
C      1  0.5691250000000  0.5797970000000  0.5854090000000 1.0
C      1  0.6310740000000  0.5108600000000  0.5284530000000 1.0
C      1  0.3917570000000  0.5415490000000  0.4801140000000 1.0
C      1  0.6022520000000  0.4225980000000  0.4609320000000 1.0
C      1  0.4625380000000  0.5210260000000  0.5133910000000 1.0
C      1  0.3821560000000  0.4913380000000  0.4784980000000 1.0
C      1  0.5091950000000  0.5004950000000  0.5129450000000 1.0
C      1  0.4892870000000  0.4874730000000  0.5303320000000 1.0
C      1  0.5138970000000  0.4059830000000  0.5076930000000 1.0
C      1  0.5513020000000  0.5410080000000  0.5165780000000 1.0
C      1  0.5799630000000  0.4233600000000  0.5116600000000 1.0
C      1  0.4973560000000  0.4935540000000  0.4871320000000 1.0
C      1  0.5769880000000  0.5213600000000  0.5837550000000 1.0
C      1  0.6098440000000  0.4943210000000  0.5273410000000 1.0
C      1  0.5921190000000  0.5899200000000  0.5716300000000 1.0
C      1  0.3867950000000  0.5216900000000  0.4364850000000 1.0
C      1  0.5702920000000  0.5386080000000  0.5626820000000 1.0
C      1  0.4674640000000  0.4470080000000  0.4699700000000 1.0
C      1  0.5466840000000  0.5302040000000  0.4025230000000 1.0
C      1  0.5726450000000  0.5281970000000  0.4157300000000 1.0
C      1  0.4670000000000  0.4711250000000  0.5166780000000 1.0
C      1  0.4857140000000  0.4028310000000  0.4969100000000 1.0
C      1  0.5028800000000  0.4541010000000  0.4321640000000 1.0
C      1  0.5829090000000  0.4480860000000  0.5831670000000 1.0
C      1  0.5135800000000  0.5713770000000  0.5401270000000 1.0
C      1  0.4571530000000  0.4266590000000  0.5770880000000 1.0
C      1  0.4220590000000  0.5515540000000  0.4161710000000 1.0
C      1  0.5020120000000  0.5241750000000  0.3768910000000 1.0
C      1  0.4636590000000  0.5645100000000  0.4990700000000 1.0
C      1  0.4628730000000  0.6093500000000  0.5242570000000 1.0
C      1  0.4860450000000  0.6268850000000  0.4729900000000 1.0
C      1  0.5212780000000  0.5365750000000  0.6047480000000 1.0
C      1  0.5402040000000  0.6118450000000  0.4822870000000 1.0
C      1  0.5592680000000  0.4550570000000  0.5969600000000 1.0
C      1  0.3980490000000  0.4451840000000  0.4615600000000 1.0
C      1  0.6227870000000  0.4143310000000  0.4451030000000 1.0
C      1  0.3605830000000  0.4614750000000  0.5543560000000 1.0
C      1  0.4237600000000  0.4560060000000  0.5634810000000 1.0
C      1  0.4224160000000  0.4692560000000  0.4268700000000 1.0
C      1  0.4780690000000  0.5651980000000  0.3634400000000 1.0
C      1  0.5569940000000  0.4945560000000  0.4478080000000 1.0
C      1  0.4371380000000  0.5952910000000  0.4775270000000 1.0
C      1  0.4159120000000  0.3483950000000  0.5048770000000 1.0
C      1  0.3829480000000  0.5177880000000  0.4644710000000 1.0
C      1  0.4488690000000  0.3455240000000  0.4689300000000 1.0
C      1  0.3546580000000  0.4511420000000  0.4835780000000 1.0
C      1  0.5985480000000  0.5463350000000  0.4813760000000 1.0
C      1  0.4324480000000  0.5459070000000  0.5450830000000 1.0
C      1  0.3693220000000  0.4367920000000  0.5493330000000 1.0
C      1  0.5327690000000  0.5025440000000  0.5591580000000 1.0
C      1  0.4824950000000  0.5229930000000  0.4420680000000 1.0
C      1  0.4455230000000  0.5202620000000  0.5372180000000 1.0
C      1  0.5764360000000  0.5875750000000  0.4622360000000 1.0
C      1  0.4462620000000  0.4394660000000  0.4526930000000 1.0
C      1  0.5773840000000  0.5653570000000  0.4795920000000 1.0
C      1  0.5206780000000  0.4348690000000  0.5090020000000 1.0
C      1  0.6034310000000  0.4967710000000  0.4792250000000 1.0
C      1  0.4306200000000  0.4711350000000  0.5867960000000 1.0
C      1  0.5695880000000  0.6525880000000  0.4289350000000 1.0
C      1  0.5686760000000  0.5909870000000  0.6333400000000 1.0
C      1  0.5364600000000  0.4390040000000  0.5891120000000 1.0
C      1  0.6346130000000  0.5333550000000  0.5141100000000 1.0
C      1  0.5554350000000  0.5623150000000  0.5681480000000 1.0
C      1  0.4709380000000  0.5739010000000  0.4248980000000 1.0
C      1  0.6128950000000  0.4728370000000  0.4662890000000 1.0
C      1  0.6333130000000  0.4740450000000  0.4474000000000 1.0
C      1  0.5212490000000  0.5607890000000  0.4621380000000 1.0
C      1  0.6041680000000  0.5850680000000  0.5475510000000 1.0
C      1  0.4633490000000  0.6079060000000  0.4655450000000 1.0
C      1  0.6159190000000  0.5522650000000  0.5046430000000 1.0
C      1  0.5279650000000  0.5621910000000  0.5626070000000 1.0
C      1  0.5257130000000  0.4478190000000  0.4842880000000 1.0
C      1  0.3999200000000  0.5336620000000  0.4141570000000 1.0
C      1  0.5735520000000  0.4210660000000  0.5393560000000 1.0
C      1  0.6520330000000  0.4765180000000  0.4288290000000 1.0
C      1  0.4576540000000  0.5062220000000  0.5592910000000 1.0
C      1  0.5794220000000  0.4061050000000  0.4671050000000 1.0
C      1  0.4901780000000  0.5561580000000  0.5368540000000 1.0
C      1  0.4893130000000  0.5497530000000  0.3829550000000 1.0
C      1  0.4617580000000  0.3933370000000  0.4819590000000 1.0
C      1  0.5433950000000  0.5906710000000  0.5031890000000 1.0
C      1  0.4390610000000  0.4778550000000  0.5180690000000 1.0
C      1  0.4856670000000  0.5000560000000  0.3786000000000 1.0
C      1  0.4147190000000  0.3727770000000  0.5157590000000 1.0
C      1  0.5313060000000  0.5256260000000  0.3782980000000 1.0
C      1  0.5821070000000  0.4476410000000  0.4965340000000 1.0
C      1  0.4231670000000  0.4697890000000  0.5394150000000 1.0
C      1  0.5779960000000  0.5152840000000  0.4415160000000 1.0
C      1  0.4281130000000  0.4914730000000  0.4434310000000 1.0
C      1  0.6706440000000  0.4786840000000  0.4100820000000 1.0
C      1  0.5528530000000  0.4913570000000  0.4762220000000 1.0
C      1  0.4681370000000  0.5292180000000  0.4655990000000 1.0
C      1  0.4733650000000  0.5905390000000  0.5058070000000 1.0
C      1  0.4790910000000  0.5869880000000  0.4498200000000 1.0
C      1  0.4900620000000  0.5574600000000  0.4106370000000 1.0
C      1  0.4232000000000  0.4289650000000  0.4684020000000 1.0
C      1  0.5578850000000  0.5655830000000  0.5008140000000 1.0
C      1  0.4350100000000  0.6064770000000  0.5272140000000 1.0
C      1  0.5200040000000  0.4843660000000  0.6023240000000 1.0
C      1  0.5957710000000  0.5212010000000  0.4653150000000 1.0
C      1  0.5140370000000  0.6260080000000  0.4773380000000 1.0
C      1  0.5706590000000  0.5331280000000  0.5355550000000 1.0
C      1  0.5092090000000  0.4816000000000  0.4289770000000 1.0
C      1  0.5250220000000  0.4511150000000  0.5319490000000 1.0
C      1  0.5610260000000  0.6113850000000  0.4625030000000 1.0
C      1  0.5335850000000  0.5376070000000  0.4663560000000 1.0
C      1  0.5054170000000  0.5113470000000  0.6097710000000 1.0
C      1  0.5073070000000  0.4686230000000  0.4767390000000 1.0
C      1  0.5379070000000  0.4159980000000  0.5717690000000 1.0
C      1  0.5480090000000  0.4689930000000  0.5275910000000 1.0
C      1  0.4809500000000  0.4326520000000  0.5619720000000 1.0
C      1  0.5502800000000  0.4818000000000  0.6051660000000 1.0
C      1  0.6006170000000  0.4480480000000  0.4740630000000 1.0
C      1  0.4227270000000  0.4001090000000  0.5149010000000 1.0
C      1  0.4591520000000  0.5394110000000  0.5932180000000 1.0
C      1  0.5193450000000  0.5868510000000  0.5170620000000 1.0
C      1  0.5146070000000  0.5411940000000  0.5767700000000 1.0
C      1  0.4450350000000  0.4517370000000  0.4250810000000 1.0
C      1  0.5512250000000  0.4872280000000  0.5482050000000 1.0
C      1  0.4650270000000  0.4557030000000  0.4042700000000 1.0
C      1  0.5013480000000  0.5793790000000  0.4681540000000 1.0
C      1  0.4912390000000  0.4544250000000  0.4580830000000 1.0
C      1  0.4762030000000  0.4190930000000  0.5384560000000 1.0
C      1  0.4734270000000  0.4239060000000  0.5119570000000 1.0
C      1  0.3780930000000  0.4625030000000  0.4746750000000 1.0
C      1  0.4729740000000  0.5107380000000  0.4873900000000 1.0
C      1  0.4328180000000  0.4931770000000  0.4698460000000 1.0
C      1  0.5034240000000  0.4505460000000  0.5602530000000 1.0
C      1  0.5553950000000  0.4144560000000  0.4547580000000 1.0
C      1  0.5922940000000  0.4915480000000  0.5056600000000 1.0
C      1  0.4699870000000  0.4791930000000  0.3874440000000 1.0
C      1  0.4167930000000  0.4148300000000  0.5395620000000 1.0
C      1  0.4769790000000  0.5217950000000  0.6060220000000 1.0
C      1  0.5020020000000  0.5378160000000  0.4271820000000 1.0
C      1  0.3749610000000  0.5092160000000  0.5419350000000 1.0
C      1  0.4685970000000  0.4481150000000  0.4990340000000 1.0
C      1  0.3888130000000  0.4196990000000  0.5430340000000 1.0
C      1  0.4540540000000  0.5529360000000  0.4740290000000 1.0
C      1  0.5144310000000  0.4589520000000  0.5855260000000 1.0
C      1  0.3907210000000  0.5274190000000  0.3890290000000 1.0
C      1  0.5087840000000  0.5164540000000  0.5632380000000 1.0
C      1  0.4426310000000  0.4954710000000  0.5803110000000 1.0
C      1  0.3982800000000  0.4958900000000  0.5019300000000 1.0
C      1  0.4437040000000  0.5675140000000  0.4185850000000 1.0
C      1  0.4852990000000  0.5020170000000  0.5547450000000 1.0
C      1  0.5359060000000  0.3932970000000  0.5226260000000 1.0
C      1  0.4427920000000  0.5502300000000  0.5730630000000 1.0
C      1  0.4230470000000  0.5870690000000  0.5111420000000 1.0
C      1  0.5759720000000  0.3998470000000  0.4949720000000 1.0
C      1  0.4252640000000  0.4894400000000  0.4966620000000 1.0
C      1  0.4848940000000  0.4965680000000  0.4332110000000 1.0
C      1  0.5386650000000  0.4333560000000  0.4638140000000 1.0
C      1  0.4321380000000  0.5695260000000  0.4658450000000 1.0
C      1  0.3991860000000  0.4546310000000  0.4339390000000 1.0
C      1  0.3905710000000  0.5164420000000  0.5200230000000 1.0
END
