TITL C-599897-7526-1150 190430.34377036 125000 -780.315834632963 0 0 130 (C1) n - 1
REM
REM in /home/nfs/bkarasulu/CARBON/AIRSS/Generating-Clusters/TERSOFF/Only-C1/FIRE-HFTN
REM
REM
REM
REM
REM
REM ./C.cell (11c1c37f851c82e70ff6c80c92926a4b)
REM AIRSS Version 0.9.1 bugfix July 2018 build 013d7b7c2542+ Fri, 06 Jul 2018 19:26:36 +0100
REM compiler GCC version 9.2.1 20190827 (Red Hat 9.2.1-1)
REM options -cpp -mtune=generic -march=x86-64 -g -O0 -fpre-include=/usr/include/finclude/math-vector-fortran.h
REM seed -1725370732 -900730216 -1570041638 1053457333 1162234774 -958330635 1502257916 -2145757759 1926084401 1764339267 537513958 666479458 550363379 -1949439771 -327616769 -1897202018 -693787768 -967445278 -53419380 -2053785526 -1553580916 -644988195 -2127702573 -1203651188 -1838178143 1287919446 -643203703 761541499 -729476088 -1607597399 -686349903 -402831454 316556368
REM
CELL 1.54180   50.00000   50.00000   50.00000   90.00000   90.00000   90.00000
LATT -1
SFAC C  
C      1  0.4221320000000  0.4655020000000  0.5648560000000 1.0
C      1  0.5852390000000  0.4096420000000  0.4949300000000 1.0
C      1  0.5420640000000  0.4038160000000  0.5426740000000 1.0
C      1  0.5595530000000  0.4512450000000  0.4921290000000 1.0
C      1  0.4678270000000  0.4930090000000  0.4608600000000 1.0
C      1  0.4916870000000  0.4900870000000  0.4013310000000 1.0
C      1  0.4662070000000  0.5616050000000  0.4384780000000 1.0
C      1  0.6063130000000  0.5308830000000  0.5538610000000 1.0
C      1  0.5654570000000  0.5130790000000  0.4195910000000 1.0
C      1  0.4745730000000  0.5970420000000  0.5223740000000 1.0
C      1  0.5038710000000  0.5208510000000  0.4420220000000 1.0
C      1  0.5191260000000  0.4831780000000  0.4673180000000 1.0
C      1  0.3983930000000  0.4924320000000  0.5323310000000 1.0
C      1  0.4493180000000  0.4796450000000  0.4415400000000 1.0
C      1  0.5003190000000  0.6242940000000  0.5525450000000 1.0
C      1  0.5953440000000  0.5087110000000  0.5643400000000 1.0
C      1  0.5194840000000  0.4566850000000  0.4721960000000 1.0
C      1  0.5490230000000  0.5658790000000  0.5386060000000 1.0
C      1  0.4705060000000  0.5618760000000  0.4882210000000 1.0
C      1  0.4593410000000  0.4682430000000  0.5018950000000 1.0
C      1  0.5326390000000  0.5544230000000  0.4965300000000 1.0
C      1  0.5062950000000  0.5764380000000  0.5558990000000 1.0
C      1  0.5991270000000  0.4910220000000  0.5017890000000 1.0
C      1  0.4993680000000  0.5030010000000  0.5453760000000 1.0
C      1  0.5198260000000  0.5249450000000  0.5912280000000 1.0
C      1  0.4075600000000  0.4569750000000  0.4452870000000 1.0
C      1  0.4806600000000  0.5198160000000  0.4588700000000 1.0
C      1  0.4248800000000  0.5510630000000  0.5720120000000 1.0
C      1  0.5106960000000  0.5371970000000  0.4975180000000 1.0
C      1  0.4387560000000  0.4108200000000  0.4638050000000 1.0
C      1  0.5943200000000  0.4764130000000  0.5274030000000 1.0
C      1  0.3868280000000  0.4808610000000  0.4856310000000 1.0
C      1  0.4612380000000  0.4914790000000  0.5723460000000 1.0
C      1  0.4457740000000  0.4269720000000  0.4395790000000 1.0
C      1  0.5289400000000  0.5592090000000  0.5572500000000 1.0
C      1  0.4359110000000  0.4538650000000  0.4386700000000 1.0
C      1  0.5493740000000  0.4747010000000  0.5071510000000 1.0
C      1  0.5900220000000  0.5370620000000  0.5071890000000 1.0
C      1  0.5152440000000  0.4810620000000  0.4176140000000 1.0
C      1  0.5519300000000  0.5052710000000  0.4426410000000 1.0
C      1  0.5219640000000  0.6719550000000  0.5502060000000 1.0
C      1  0.4373040000000  0.5125240000000  0.4892710000000 1.0
C      1  0.4989150000000  0.4381240000000  0.4715590000000 1.0
C      1  0.4177470000000  0.5431490000000  0.4542850000000 1.0
C      1  0.5641010000000  0.5012320000000  0.4681000000000 1.0
C      1  0.4442750000000  0.4378880000000  0.5989600000000 1.0
C      1  0.5413010000000  0.4305310000000  0.5503060000000 1.0
C      1  0.4826750000000  0.4704520000000  0.5173610000000 1.0
C      1  0.4723200000000  0.5444720000000  0.5815970000000 1.0
C      1  0.3961410000000  0.5472550000000  0.4737740000000 1.0
C      1  0.4544970000000  0.4413990000000  0.4951500000000 1.0
C      1  0.5483190000000  0.5462100000000  0.5186320000000 1.0
C      1  0.4791090000000  0.5170960000000  0.4042170000000 1.0
C      1  0.4059690000000  0.5330680000000  0.5647420000000 1.0
C      1  0.5460250000000  0.5754470000000  0.4833240000000 1.0
C      1  0.4960960000000  0.4951080000000  0.5184100000000 1.0
C      1  0.5535350000000  0.5976910000000  0.5000630000000 1.0
C      1  0.4462850000000  0.4275390000000  0.5509830000000 1.0
C      1  0.6033990000000  0.5627080000000  0.4399620000000 1.0
C      1  0.4321600000000  0.4273610000000  0.4856900000000 1.0
C      1  0.5460250000000  0.4995710000000  0.4917520000000 1.0
C      1  0.5944490000000  0.5348910000000  0.4790550000000 1.0
C      1  0.5109460000000  0.4666210000000  0.5709770000000 1.0
C      1  0.4281570000000  0.4992930000000  0.4412440000000 1.0
C      1  0.5628480000000  0.4702830000000  0.5708210000000 1.0
C      1  0.3885210000000  0.5290390000000  0.4939390000000 1.0
C      1  0.5639920000000  0.5248820000000  0.5119740000000 1.0
C      1  0.4030420000000  0.4643270000000  0.5424060000000 1.0
C      1  0.5578110000000  0.6228110000000  0.4903760000000 1.0
C      1  0.4884530000000  0.4861860000000  0.5662280000000 1.0
C      1  0.4021070000000  0.4378840000000  0.5323790000000 1.0
C      1  0.4937890000000  0.5354910000000  0.5953850000000 1.0
C      1  0.4514720000000  0.5280860000000  0.4079440000000 1.0
C      1  0.4382420000000  0.4436330000000  0.5730520000000 1.0
C      1  0.4767300000000  0.3976620000000  0.4911950000000 1.0
C      1  0.5313720000000  0.5006930000000  0.6006750000000 1.0
C      1  0.4646000000000  0.5871810000000  0.4991460000000 1.0
C      1  0.4122690000000  0.5081190000000  0.5533890000000 1.0
C      1  0.5953920000000  0.4482330000000  0.5228580000000 1.0
C      1  0.4515310000000  0.5384440000000  0.5353950000000 1.0
C      1  0.4842120000000  0.4269920000000  0.4964300000000 1.0
C      1  0.6286060000000  0.5739220000000  0.3953110000000 1.0
C      1  0.5364400000000  0.4778420000000  0.5839640000000 1.0
C      1  0.4869790000000  0.5479460000000  0.5057860000000 1.0
C      1  0.5759960000000  0.5180680000000  0.3962780000000 1.0
C      1  0.4811690000000  0.4726530000000  0.3827170000000 1.0
C      1  0.4718760000000  0.3879390000000  0.4425080000000 1.0
C      1  0.6059950000000  0.5422870000000  0.5294900000000 1.0
C      1  0.5140480000000  0.5097890000000  0.5010440000000 1.0
C      1  0.4263070000000  0.5176490000000  0.4625520000000 1.0
C      1  0.5836060000000  0.4848460000000  0.5544240000000 1.0
C      1  0.5557400000000  0.5912590000000  0.5279190000000 1.0
C      1  0.5158670000000  0.5770080000000  0.4279930000000 1.0
C      1  0.4596680000000  0.3903810000000  0.4690210000000 1.0
C      1  0.5802090000000  0.4351470000000  0.5030120000000 1.0
C      1  0.5017240000000  0.3783800000000  0.5480880000000 1.0
C      1  0.4407310000000  0.5280860000000  0.5127850000000 1.0
C      1  0.4925200000000  0.4300860000000  0.4450510000000 1.0
C      1  0.4058820000000  0.4368880000000  0.4870670000000 1.0
C      1  0.3962890000000  0.4583290000000  0.4714960000000 1.0
C      1  0.5278900000000  0.5072240000000  0.5474130000000 1.0
C      1  0.6172020000000  0.5688500000000  0.4182020000000 1.0
C      1  0.5415100000000  0.5737310000000  0.4364810000000 1.0
C      1  0.5373520000000  0.4766890000000  0.5319890000000 1.0
C      1  0.5224170000000  0.4984340000000  0.4419650000000 1.0
C      1  0.5459140000000  0.4462180000000  0.4672730000000 1.0
C      1  0.4417210000000  0.5487580000000  0.4279440000000 1.0
C      1  0.4828870000000  0.3971080000000  0.5504420000000 1.0
C      1  0.5193950000000  0.4512010000000  0.5441800000000 1.0
C      1  0.5485690000000  0.4459490000000  0.4384520000000 1.0
C      1  0.4718720000000  0.4156360000000  0.4328270000000 1.0
C      1  0.4931960000000  0.4416320000000  0.5260360000000 1.0
C      1  0.4976050000000  0.5347150000000  0.4178870000000 1.0
C      1  0.5279320000000  0.3811730000000  0.5432410000000 1.0
C      1  0.4514440000000  0.5472860000000  0.5626340000000 1.0
C      1  0.4928200000000  0.5986040000000  0.5440910000000 1.0
C      1  0.4333540000000  0.4917580000000  0.5666350000000 1.0
C      1  0.5586060000000  0.5683800000000  0.4587600000000 1.0
C      1  0.4918550000000  0.5624530000000  0.4235050000000 1.0
C      1  0.3898130000000  0.5016260000000  0.5053740000000 1.0
C      1  0.4544590000000  0.4902490000000  0.4862700000000 1.0
C      1  0.5329770000000  0.4578780000000  0.4188280000000 1.0
C      1  0.5911790000000  0.5056410000000  0.4766030000000 1.0
C      1  0.4700580000000  0.5477380000000  0.4636590000000 1.0
C      1  0.5849850000000  0.5550050000000  0.4598200000000 1.0
C      1  0.4234210000000  0.4207860000000  0.5351970000000 1.0
C      1  0.4737110000000  0.4230400000000  0.5447960000000 1.0
C      1  0.5106600000000  0.6486800000000  0.5534300000000 1.0
C      1  0.5624270000000  0.4420080000000  0.5655280000000 1.0
C      1  0.5298580000000  0.5312160000000  0.5649410000000 1.0
END
