TITL C-599892-9790-960 13492.1500064945 125000 -1171.51792568287 0 0 189 (C1) n - 1
REM
REM in /home/nfs/bkarasulu/CARBON/AIRSS/Generating-Clusters/TERSOFF/Only-C1/FIRE-HFTN
REM
REM
REM
REM
REM
REM ./C.cell (11c1c37f851c82e70ff6c80c92926a4b)
REM AIRSS Version 0.9.1 bugfix July 2018 build 013d7b7c2542+ Fri, 06 Jul 2018 19:26:36 +0100
REM compiler GCC version 9.2.1 20190827 (Red Hat 9.2.1-1)
REM options -cpp -mtune=generic -march=x86-64 -g -O0 -fpre-include=/usr/include/finclude/math-vector-fortran.h
REM seed 2130890431 360501258 672386316 1539518124 -219514919 256550521 -2005541012 -265136163 611283854 1183008086 2012290797 1207097885 125980987 102359609 172692403 -1733364391 -1548056436 -1386719707 -775310952 805465191 1632762415 865215346 763180310 -82702939 -167169254 294089867 -220581640 22322449 -359091111 -1559836231 625039820 -7110137 1867428831
REM
CELL 1.54180   50.00000   50.00000   50.00000   90.00000   90.00000   90.00000
LATT -1
SFAC C  
C      1  0.4771230000000  0.5173500000000  0.5347860000000 1.0
C      1  0.5684840000000  0.5459880000000  0.5694720000000 1.0
C      1  0.5589100000000  0.5284410000000  0.4707260000000 1.0
C      1  0.5046780000000  0.5014210000000  0.4693830000000 1.0
C      1  0.5803310000000  0.5740260000000  0.4597180000000 1.0
C      1  0.5185310000000  0.4791490000000  0.5417340000000 1.0
C      1  0.5298790000000  0.4851940000000  0.4738670000000 1.0
C      1  0.5331010000000  0.5934310000000  0.4344880000000 1.0
C      1  0.4820150000000  0.5125050000000  0.4876460000000 1.0
C      1  0.4307390000000  0.4912770000000  0.5736310000000 1.0
C      1  0.4255250000000  0.5686330000000  0.4930070000000 1.0
C      1  0.5669630000000  0.3961690000000  0.4764540000000 1.0
C      1  0.5095130000000  0.3681630000000  0.5237890000000 1.0
C      1  0.4756720000000  0.4588260000000  0.4831070000000 1.0
C      1  0.4511610000000  0.4727170000000  0.5963240000000 1.0
C      1  0.4477190000000  0.5259180000000  0.3840540000000 1.0
C      1  0.6168190000000  0.5649030000000  0.5202010000000 1.0
C      1  0.4477770000000  0.5132120000000  0.6226780000000 1.0
C      1  0.4931610000000  0.4965850000000  0.3927850000000 1.0
C      1  0.5147040000000  0.4633490000000  0.5185930000000 1.0
C      1  0.5190600000000  0.5059010000000  0.5483910000000 1.0
C      1  0.5448720000000  0.5378730000000  0.5277120000000 1.0
C      1  0.4976420000000  0.5378070000000  0.5815910000000 1.0
C      1  0.5334050000000  0.4634700000000  0.4548190000000 1.0
C      1  0.4915390000000  0.4510830000000  0.5071250000000 1.0
C      1  0.4607790000000  0.3746660000000  0.5156730000000 1.0
C      1  0.4218290000000  0.5801170000000  0.5422290000000 1.0
C      1  0.4973230000000  0.3838300000000  0.5474130000000 1.0
C      1  0.3603100000000  0.4869480000000  0.5336200000000 1.0
C      1  0.5141350000000  0.4094130000000  0.5082150000000 1.0
C      1  0.5605720000000  0.4643450000000  0.5081340000000 1.0
C      1  0.4738940000000  0.4411830000000  0.5549090000000 1.0
C      1  0.5425080000000  0.4873600000000  0.4073440000000 1.0
C      1  0.5292510000000  0.5526110000000  0.4047150000000 1.0
C      1  0.5709390000000  0.4811930000000  0.4115460000000 1.0
C      1  0.4677790000000  0.3811040000000  0.5436800000000 1.0
C      1  0.3876950000000  0.4992630000000  0.4173350000000 1.0
C      1  0.5281170000000  0.5397970000000  0.4302650000000 1.0
C      1  0.5286860000000  0.4125040000000  0.4185970000000 1.0
C      1  0.5352040000000  0.3691540000000  0.5108470000000 1.0
C      1  0.4543920000000  0.5987740000000  0.4558220000000 1.0
C      1  0.4964140000000  0.5267570000000  0.5123520000000 1.0
C      1  0.4199600000000  0.4524610000000  0.4148400000000 1.0
C      1  0.5787320000000  0.4335170000000  0.4389220000000 1.0
C      1  0.5311420000000  0.5714350000000  0.5889240000000 1.0
C      1  0.4751380000000  0.4785340000000  0.3787830000000 1.0
C      1  0.5394310000000  0.5998060000000  0.5470760000000 1.0
C      1  0.4370760000000  0.4101420000000  0.5681650000000 1.0
C      1  0.4645160000000  0.4865220000000  0.4901780000000 1.0
C      1  0.4964530000000  0.5404000000000  0.3703260000000 1.0
C      1  0.4441530000000  0.3855340000000  0.4934070000000 1.0
C      1  0.4802390000000  0.5814070000000  0.5874930000000 1.0
C      1  0.4858770000000  0.5609620000000  0.4387620000000 1.0
C      1  0.4032960000000  0.4409140000000  0.5347680000000 1.0
C      1  0.5256190000000  0.4121400000000  0.4469230000000 1.0
C      1  0.5527790000000  0.4877420000000  0.4927010000000 1.0
C      1  0.4394660000000  0.5684350000000  0.4196380000000 1.0
C      1  0.4774770000000  0.6154030000000  0.5080920000000 1.0
C      1  0.5772080000000  0.4543790000000  0.4214010000000 1.0
C      1  0.5889500000000  0.5254810000000  0.5745290000000 1.0
C      1  0.4292840000000  0.5033120000000  0.5213960000000 1.0
C      1  0.6087240000000  0.5267220000000  0.4591990000000 1.0
C      1  0.6484520000000  0.5257570000000  0.4907690000000 1.0
C      1  0.4430730000000  0.6139820000000  0.4754480000000 1.0
C      1  0.5565060000000  0.4254180000000  0.5649200000000 1.0
C      1  0.4360590000000  0.5315020000000  0.5216580000000 1.0
C      1  0.5089210000000  0.3903350000000  0.4562760000000 1.0
C      1  0.4319530000000  0.4388090000000  0.5299930000000 1.0
C      1  0.5842710000000  0.5879170000000  0.4856480000000 1.0
C      1  0.5037890000000  0.5649570000000  0.5879110000000 1.0
C      1  0.4781110000000  0.4673310000000  0.5486280000000 1.0
C      1  0.4385660000000  0.4397570000000  0.4543180000000 1.0
C      1  0.4579590000000  0.5381270000000  0.5386270000000 1.0
C      1  0.5008720000000  0.5367970000000  0.4386320000000 1.0
C      1  0.4305050000000  0.5884190000000  0.5144930000000 1.0
C      1  0.5602990000000  0.5847080000000  0.5025650000000 1.0
C      1  0.4101820000000  0.4148170000000  0.5752490000000 1.0
C      1  0.4951620000000  0.4306350000000  0.5810600000000 1.0
C      1  0.4948770000000  0.5883520000000  0.4757680000000 1.0
C      1  0.4172110000000  0.4877680000000  0.4725100000000 1.0
C      1  0.5152040000000  0.4808420000000  0.6083270000000 1.0
C      1  0.4388710000000  0.4319180000000  0.5036420000000 1.0
C      1  0.5863520000000  0.5235530000000  0.5103530000000 1.0
C      1  0.4918400000000  0.4422110000000  0.4619240000000 1.0
C      1  0.5995400000000  0.5056910000000  0.5281030000000 1.0
C      1  0.5702870000000  0.5165390000000  0.6181780000000 1.0
C      1  0.6250200000000  0.5152550000000  0.4816390000000 1.0
C      1  0.5203280000000  0.4383930000000  0.4595710000000 1.0
C      1  0.5193130000000  0.6423870000000  0.5369840000000 1.0
C      1  0.5227220000000  0.5049690000000  0.3907800000000 1.0
C      1  0.4472670000000  0.4440040000000  0.4078500000000 1.0
C      1  0.5172920000000  0.6150150000000  0.5373820000000 1.0
C      1  0.5144250000000  0.5160840000000  0.5746530000000 1.0
C      1  0.3860550000000  0.5126150000000  0.5702900000000 1.0
C      1  0.5355180000000  0.4208650000000  0.5223660000000 1.0
C      1  0.5740410000000  0.4595770000000  0.5853170000000 1.0
C      1  0.3955990000000  0.4393980000000  0.4869330000000 1.0
C      1  0.4858050000000  0.3608220000000  0.5077350000000 1.0
C      1  0.4299800000000  0.5560470000000  0.4439380000000 1.0
C      1  0.5892420000000  0.4804160000000  0.5939690000000 1.0
C      1  0.5225480000000  0.4518150000000  0.5893350000000 1.0
C      1  0.5597950000000  0.5561370000000  0.5431160000000 1.0
C      1  0.4902890000000  0.4840890000000  0.6218170000000 1.0
C      1  0.4235390000000  0.5066110000000  0.4496400000000 1.0
C      1  0.5879450000000  0.5081980000000  0.5978120000000 1.0
C      1  0.4887330000000  0.5767320000000  0.4136850000000 1.0
C      1  0.5483700000000  0.5317020000000  0.4468000000000 1.0
C      1  0.4718490000000  0.5315240000000  0.5885640000000 1.0
C      1  0.4886680000000  0.5742550000000  0.5297480000000 1.0
C      1  0.4686140000000  0.5632040000000  0.5455040000000 1.0
C      1  0.4909150000000  0.4227660000000  0.5089530000000 1.0
C      1  0.5389400000000  0.4478790000000  0.5145200000000 1.0
C      1  0.3663080000000  0.4664540000000  0.5175870000000 1.0
C      1  0.4352250000000  0.4903450000000  0.4957080000000 1.0
C      1  0.4691140000000  0.4527080000000  0.3914540000000 1.0
C      1  0.4623040000000  0.4892150000000  0.6174800000000 1.0
C      1  0.6046490000000  0.4806760000000  0.5155460000000 1.0
C      1  0.6002720000000  0.5013330000000  0.4450460000000 1.0
C      1  0.4668040000000  0.4476680000000  0.5972630000000 1.0
C      1  0.4775790000000  0.4220240000000  0.4467040000000 1.0
C      1  0.4568140000000  0.5320470000000  0.4775440000000 1.0
C      1  0.5504310000000  0.5798050000000  0.4547510000000 1.0
C      1  0.4584400000000  0.3836610000000  0.4686530000000 1.0
C      1  0.4309360000000  0.5137360000000  0.4011970000000 1.0
C      1  0.4212930000000  0.4131180000000  0.4935450000000 1.0
C      1  0.5755800000000  0.4145670000000  0.4582720000000 1.0
C      1  0.4025620000000  0.4615270000000  0.4675540000000 1.0
C      1  0.4937450000000  0.6161960000000  0.4833210000000 1.0
C      1  0.5971760000000  0.5524440000000  0.4482280000000 1.0
C      1  0.4807840000000  0.3951010000000  0.4557310000000 1.0
C      1  0.5092010000000  0.6304420000000  0.4642200000000 1.0
C      1  0.5517870000000  0.4414770000000  0.5893290000000 1.0
C      1  0.4128770000000  0.5146910000000  0.5782450000000 1.0
C      1  0.5023820000000  0.4655880000000  0.4219760000000 1.0
C      1  0.4554620000000  0.4312490000000  0.4330350000000 1.0
C      1  0.6043660000000  0.5152270000000  0.5535640000000 1.0
C      1  0.5208540000000  0.5340900000000  0.3841760000000 1.0
C      1  0.4759030000000  0.5800150000000  0.4574480000000 1.0
C      1  0.5455890000000  0.5256070000000  0.6082100000000 1.0
C      1  0.5122120000000  0.4237920000000  0.4003310000000 1.0
C      1  0.6153860000000  0.4869660000000  0.4886380000000 1.0
C      1  0.4496970000000  0.4441260000000  0.4806030000000 1.0
C      1  0.4475710000000  0.5328440000000  0.6021030000000 1.0
C      1  0.4141620000000  0.4508450000000  0.4434650000000 1.0
C      1  0.5985400000000  0.5488010000000  0.5105500000000 1.0
C      1  0.3943360000000  0.4300860000000  0.5593420000000 1.0
C      1  0.5564980000000  0.5827510000000  0.5313250000000 1.0
C      1  0.4256440000000  0.5406920000000  0.5842840000000 1.0
C      1  0.4610550000000  0.5789200000000  0.4058390000000 1.0
C      1  0.4302680000000  0.5669320000000  0.5687760000000 1.0
C      1  0.4495120000000  0.3854870000000  0.5643950000000 1.0
C      1  0.4946410000000  0.4454270000000  0.4033820000000 1.0
C      1  0.5888070000000  0.5020300000000  0.4189390000000 1.0
C      1  0.4139730000000  0.5051380000000  0.4224580000000 1.0
C      1  0.5394710000000  0.5944360000000  0.5749570000000 1.0
C      1  0.4900490000000  0.4915350000000  0.4215380000000 1.0
C      1  0.5805190000000  0.4483050000000  0.5500180000000 1.0
C      1  0.4929940000000  0.6024660000000  0.5286560000000 1.0
C      1  0.6045060000000  0.4789970000000  0.4629040000000 1.0
C      1  0.5958060000000  0.5504850000000  0.4194680000000 1.0
C      1  0.4392750000000  0.5443000000000  0.4972510000000 1.0
C      1  0.4589510000000  0.5749860000000  0.5698230000000 1.0
C      1  0.5238560000000  0.4643760000000  0.5636000000000 1.0
C      1  0.5913950000000  0.5271740000000  0.4061250000000 1.0
C      1  0.5126100000000  0.5711910000000  0.4885250000000 1.0
C      1  0.4992940000000  0.5571430000000  0.5091870000000 1.0
C      1  0.5662930000000  0.5130300000000  0.4926360000000 1.0
C      1  0.5224860000000  0.5219990000000  0.5261860000000 1.0
C      1  0.3677000000000  0.5031670000000  0.5534440000000 1.0
C      1  0.5294920000000  0.4708020000000  0.4276950000000 1.0
C      1  0.3862480000000  0.4474260000000  0.5127090000000 1.0
C      1  0.5358940000000  0.4141330000000  0.5502680000000 1.0
C      1  0.4486320000000  0.6097180000000  0.5036160000000 1.0
C      1  0.5232860000000  0.6191740000000  0.4435520000000 1.0
C      1  0.5536340000000  0.3796970000000  0.4936170000000 1.0
C      1  0.5395930000000  0.5772370000000  0.4830060000000 1.0
C      1  0.6039830000000  0.6063310000000  0.4898880000000 1.0
C      1  0.5844120000000  0.4613680000000  0.5241850000000 1.0
C      1  0.5491430000000  0.5494040000000  0.5912770000000 1.0
C      1  0.4401750000000  0.5300690000000  0.4537390000000 1.0
C      1  0.4675970000000  0.4919550000000  0.5434510000000 1.0
C      1  0.4484910000000  0.4306270000000  0.5515720000000 1.0
C      1  0.5184590000000  0.5794280000000  0.4115540000000 1.0
C      1  0.4170810000000  0.5707050000000  0.4655510000000 1.0
C      1  0.5105000000000  0.4056700000000  0.5619360000000 1.0
C      1  0.4697940000000  0.5360840000000  0.3723560000000 1.0
C      1  0.5270380000000  0.5054370000000  0.5983180000000 1.0
C      1  0.4952610000000  0.5095020000000  0.4428610000000 1.0
C      1  0.4390060000000  0.4912360000000  0.5461130000000 1.0
END
