TITL C-599893-4344-350 -12758.3599422221 125000 -1096.29183469641 0 0 175 (C1) n - 1
REM
REM in /home/nfs/bkarasulu/CARBON/AIRSS/Generating-Clusters/TERSOFF/Only-C1/FIRE-HFTN
REM
REM
REM
REM
REM
REM ./C.cell (11c1c37f851c82e70ff6c80c92926a4b)
REM AIRSS Version 0.9.1 bugfix July 2018 build 013d7b7c2542+ Fri, 06 Jul 2018 19:26:36 +0100
REM compiler GCC version 9.2.1 20190827 (Red Hat 9.2.1-1)
REM options -cpp -mtune=generic -march=x86-64 -g -O0 -fpre-include=/usr/include/finclude/math-vector-fortran.h
REM seed -637741860 1122173161 -1458706111 -28919624 -1451825749 -523514411 42204580 1095763748 1993592578 159515508 -1675995342 1207113186 536941656 557587793 -1550575014 -688175035 -1466644621 145361783 -1102655477 -524851865 433476376 -222808076 -1248327324 1214969688 55295900 371375080 -37964122 -598996142 733710274 -467593192 1669670772 -1490727249 -637906707
REM
CELL 1.54180   50.00000   50.00000   50.00000   90.00000   90.00000   90.00000
LATT -1
SFAC C  
C      1  0.5670750000000  0.4890280000000  0.5849990000000 1.0
C      1  0.4786440000000  0.4605750000000  0.4766810000000 1.0
C      1  0.6035020000000  0.5713390000000  0.5959340000000 1.0
C      1  0.5165150000000  0.4785150000000  0.3863810000000 1.0
C      1  0.5152140000000  0.5232430000000  0.4157420000000 1.0
C      1  0.5519120000000  0.5803880000000  0.4894800000000 1.0
C      1  0.4870510000000  0.4950500000000  0.5557340000000 1.0
C      1  0.4339150000000  0.5396450000000  0.5142210000000 1.0
C      1  0.6150280000000  0.5219910000000  0.4534780000000 1.0
C      1  0.4644690000000  0.6137180000000  0.5230700000000 1.0
C      1  0.4609870000000  0.3948050000000  0.4731690000000 1.0
C      1  0.5417440000000  0.4443160000000  0.4647430000000 1.0
C      1  0.5089200000000  0.4515450000000  0.3980800000000 1.0
C      1  0.5668150000000  0.4064120000000  0.4804540000000 1.0
C      1  0.5297580000000  0.5127760000000  0.4385470000000 1.0
C      1  0.5478470000000  0.5560970000000  0.4069600000000 1.0
C      1  0.4682630000000  0.4195330000000  0.4282350000000 1.0
C      1  0.4516830000000  0.4674170000000  0.5199240000000 1.0
C      1  0.4287130000000  0.5880350000000  0.4305660000000 1.0
C      1  0.4540080000000  0.3836470000000  0.4996320000000 1.0
C      1  0.4862590000000  0.6170900000000  0.5047190000000 1.0
C      1  0.5587550000000  0.4745460000000  0.5395280000000 1.0
C      1  0.5586760000000  0.5516680000000  0.5968010000000 1.0
C      1  0.4701290000000  0.4457730000000  0.5177000000000 1.0
C      1  0.4139730000000  0.5425320000000  0.5341630000000 1.0
C      1  0.5110110000000  0.4889350000000  0.5430600000000 1.0
C      1  0.4402630000000  0.5971580000000  0.5223700000000 1.0
C      1  0.4091490000000  0.4413070000000  0.5533470000000 1.0
C      1  0.5522790000000  0.4953270000000  0.4366780000000 1.0
C      1  0.5177090000000  0.4591120000000  0.5962690000000 1.0
C      1  0.5151300000000  0.5130790000000  0.4833760000000 1.0
C      1  0.4696180000000  0.5060360000000  0.6005610000000 1.0
C      1  0.5574260000000  0.4543460000000  0.4911070000000 1.0
C      1  0.4540200000000  0.5825240000000  0.4184750000000 1.0
C      1  0.4238560000000  0.4464930000000  0.5781530000000 1.0
C      1  0.5323880000000  0.6099390000000  0.5514090000000 1.0
C      1  0.4290680000000  0.4282790000000  0.4621660000000 1.0
C      1  0.4939690000000  0.4956370000000  0.3815970000000 1.0
C      1  0.4674410000000  0.4394390000000  0.4901940000000 1.0
C      1  0.5149640000000  0.4068850000000  0.5534010000000 1.0
C      1  0.4613440000000  0.5554200000000  0.4242720000000 1.0
C      1  0.4300980000000  0.4936920000000  0.4321210000000 1.0
C      1  0.4432540000000  0.5539170000000  0.5880560000000 1.0
C      1  0.4483520000000  0.4348500000000  0.5876410000000 1.0
C      1  0.5963360000000  0.5025510000000  0.4436020000000 1.0
C      1  0.4107400000000  0.4673510000000  0.5404990000000 1.0
C      1  0.4970500000000  0.4421920000000  0.5267010000000 1.0
C      1  0.4088560000000  0.4599840000000  0.4932920000000 1.0
C      1  0.5369060000000  0.5301990000000  0.3972790000000 1.0
C      1  0.5062810000000  0.5916020000000  0.4318800000000 1.0
C      1  0.5155430000000  0.6210820000000  0.5048710000000 1.0
C      1  0.5236220000000  0.5541770000000  0.4613380000000 1.0
C      1  0.4689900000000  0.5614350000000  0.4719820000000 1.0
C      1  0.5027150000000  0.6100670000000  0.4585000000000 1.0
C      1  0.4892070000000  0.5207670000000  0.4901170000000 1.0
C      1  0.5381110000000  0.4486850000000  0.5781400000000 1.0
C      1  0.4793950000000  0.6077300000000  0.4773390000000 1.0
C      1  0.6359230000000  0.5278610000000  0.4350120000000 1.0
C      1  0.5899040000000  0.5395080000000  0.5374260000000 1.0
C      1  0.6141920000000  0.4448080000000  0.5232640000000 1.0
C      1  0.5275460000000  0.5671020000000  0.4859560000000 1.0
C      1  0.3707190000000  0.4424430000000  0.5226700000000 1.0
C      1  0.4074670000000  0.5668340000000  0.5442610000000 1.0
C      1  0.5751210000000  0.5189190000000  0.5251100000000 1.0
C      1  0.5204110000000  0.4861780000000  0.6042670000000 1.0
C      1  0.4470560000000  0.3745750000000  0.5553200000000 1.0
C      1  0.4104950000000  0.4327530000000  0.4841330000000 1.0
C      1  0.5770710000000  0.3812820000000  0.4812120000000 1.0
C      1  0.6350090000000  0.5207450000000  0.4087590000000 1.0
C      1  0.5922690000000  0.4987550000000  0.4142470000000 1.0
C      1  0.5473950000000  0.4988770000000  0.6035850000000 1.0
C      1  0.4523450000000  0.4215210000000  0.4768520000000 1.0
C      1  0.3710990000000  0.4896950000000  0.5367170000000 1.0
C      1  0.5915340000000  0.5341940000000  0.5663150000000 1.0
C      1  0.5853200000000  0.5532290000000  0.5867330000000 1.0
C      1  0.5224440000000  0.6224700000000  0.4760360000000 1.0
C      1  0.4289750000000  0.5850850000000  0.5477730000000 1.0
C      1  0.5728160000000  0.4918180000000  0.4570550000000 1.0
C      1  0.5993510000000  0.4817510000000  0.4963530000000 1.0
C      1  0.5645110000000  0.6240440000000  0.4346130000000 1.0
C      1  0.5931980000000  0.5619390000000  0.5192280000000 1.0
C      1  0.5755510000000  0.4774370000000  0.4814240000000 1.0
C      1  0.5055850000000  0.4652890000000  0.4830320000000 1.0
C      1  0.5286500000000  0.4412450000000  0.4167210000000 1.0
C      1  0.5552480000000  0.5027680000000  0.5349720000000 1.0
C      1  0.5946290000000  0.5577040000000  0.4895910000000 1.0
C      1  0.4771030000000  0.4931790000000  0.3604190000000 1.0
C      1  0.4659400000000  0.5048570000000  0.5426740000000 1.0
C      1  0.5803120000000  0.5866480000000  0.5262930000000 1.0
C      1  0.5291900000000  0.5113970000000  0.5418310000000 1.0
C      1  0.5261330000000  0.4554270000000  0.4420950000000 1.0
C      1  0.4837130000000  0.4359700000000  0.4074400000000 1.0
C      1  0.4024290000000  0.4937090000000  0.4267070000000 1.0
C      1  0.4953230000000  0.4164130000000  0.6076110000000 1.0
C      1  0.5202770000000  0.5377750000000  0.5493760000000 1.0
C      1  0.5064040000000  0.3927990000000  0.4562910000000 1.0
C      1  0.4641670000000  0.4857390000000  0.4678550000000 1.0
C      1  0.4605510000000  0.4937170000000  0.5178120000000 1.0
C      1  0.4546120000000  0.5307680000000  0.5972460000000 1.0
C      1  0.4221400000000  0.5396300000000  0.4874680000000 1.0
C      1  0.4693910000000  0.5018860000000  0.4925200000000 1.0
C      1  0.5707590000000  0.5552520000000  0.4246100000000 1.0
C      1  0.5642020000000  0.4934700000000  0.4094440000000 1.0
C      1  0.3949830000000  0.4880630000000  0.5522490000000 1.0
C      1  0.3944180000000  0.4264260000000  0.5314180000000 1.0
C      1  0.6161910000000  0.4698680000000  0.5135400000000 1.0
C      1  0.6098150000000  0.5381790000000  0.4759550000000 1.0
C      1  0.5003270000000  0.3946780000000  0.5096280000000 1.0
C      1  0.4551950000000  0.4807670000000  0.5971610000000 1.0
C      1  0.5302470000000  0.4019100000000  0.4440210000000 1.0
C      1  0.5351940000000  0.6113820000000  0.5234270000000 1.0
C      1  0.5745810000000  0.5720590000000  0.4736740000000 1.0
C      1  0.5078560000000  0.4156040000000  0.5273370000000 1.0
C      1  0.5443380000000  0.5276180000000  0.6069860000000 1.0
C      1  0.4597550000000  0.5875790000000  0.4778750000000 1.0
C      1  0.4731600000000  0.5760380000000  0.5603170000000 1.0
C      1  0.3858780000000  0.4773620000000  0.4913170000000 1.0
C      1  0.4363180000000  0.4979990000000  0.4605800000000 1.0
C      1  0.6140910000000  0.5068030000000  0.3983320000000 1.0
C      1  0.5097450000000  0.3879120000000  0.4842560000000 1.0
C      1  0.5336870000000  0.4227410000000  0.5675270000000 1.0
C      1  0.4770950000000  0.4859090000000  0.4395870000000 1.0
C      1  0.4243920000000  0.4657440000000  0.5164600000000 1.0
C      1  0.4738840000000  0.3793460000000  0.5475070000000 1.0
C      1  0.5388620000000  0.5679860000000  0.5824730000000 1.0
C      1  0.3904130000000  0.4996690000000  0.4737160000000 1.0
C      1  0.4793550000000  0.5974660000000  0.4165360000000 1.0
C      1  0.5742290000000  0.4275820000000  0.4978510000000 1.0
C      1  0.4354900000000  0.5870160000000  0.4944630000000 1.0
C      1  0.4765040000000  0.3815930000000  0.5184350000000 1.0
C      1  0.5210560000000  0.4865350000000  0.4873660000000 1.0
C      1  0.4779400000000  0.5537350000000  0.4466720000000 1.0
C      1  0.5342410000000  0.5878350000000  0.4182330000000 1.0
C      1  0.4150090000000  0.5769300000000  0.4515540000000 1.0
C      1  0.4789010000000  0.3983050000000  0.4490080000000 1.0
C      1  0.5158020000000  0.4635900000000  0.5291630000000 1.0
C      1  0.5567950000000  0.5955510000000  0.5129880000000 1.0
C      1  0.4270130000000  0.4757110000000  0.5873540000000 1.0
C      1  0.4259480000000  0.3793230000000  0.5388520000000 1.0
C      1  0.5446070000000  0.5012000000000  0.3897390000000 1.0
C      1  0.5034950000000  0.4740410000000  0.4398870000000 1.0
C      1  0.5874620000000  0.5069740000000  0.5756160000000 1.0
C      1  0.4940190000000  0.4443390000000  0.6025770000000 1.0
C      1  0.5370580000000  0.5938120000000  0.5723210000000 1.0
C      1  0.4810230000000  0.5482600000000  0.4949580000000 1.0
C      1  0.3689520000000  0.4710040000000  0.5145330000000 1.0
C      1  0.5151710000000  0.5309760000000  0.5987440000000 1.0
C      1  0.4466570000000  0.5758530000000  0.5694530000000 1.0
C      1  0.4791050000000  0.5587190000000  0.5395300000000 1.0
C      1  0.5568830000000  0.5979170000000  0.4334190000000 1.0
C      1  0.4278310000000  0.3911770000000  0.5127220000000 1.0
C      1  0.4678640000000  0.4541240000000  0.5973710000000 1.0
C      1  0.5064880000000  0.5547750000000  0.5321830000000 1.0
C      1  0.4096670000000  0.4140110000000  0.5079690000000 1.0
C      1  0.5268210000000  0.5266070000000  0.4622610000000 1.0
C      1  0.4065400000000  0.4934750000000  0.5776640000000 1.0
C      1  0.4555160000000  0.4882560000000  0.4204980000000 1.0
C      1  0.5580070000000  0.4673920000000  0.5676820000000 1.0
C      1  0.5321310000000  0.4132390000000  0.4183600000000 1.0
C      1  0.5436270000000  0.4600920000000  0.5192860000000 1.0
C      1  0.5473520000000  0.4154550000000  0.4621920000000 1.0
C      1  0.5722890000000  0.5757140000000  0.4451680000000 1.0
C      1  0.4991320000000  0.5070480000000  0.6029820000000 1.0
C      1  0.4398290000000  0.4275670000000  0.4348650000000 1.0
C      1  0.3832750000000  0.4967150000000  0.4460450000000 1.0
C      1  0.5950600000000  0.4271970000000  0.5164080000000 1.0
C      1  0.4918160000000  0.3939860000000  0.5929790000000 1.0
C      1  0.4922330000000  0.5158500000000  0.4014200000000 1.0
C      1  0.4165740000000  0.5135620000000  0.4757300000000 1.0
C      1  0.4614570000000  0.5485940000000  0.5186340000000 1.0
C      1  0.4186620000000  0.5677260000000  0.4785940000000 1.0
C      1  0.5077040000000  0.5605860000000  0.5045630000000 1.0
C      1  0.4945010000000  0.3900350000000  0.5651550000000 1.0
C      1  0.5189470000000  0.5478280000000  0.5759610000000 1.0
C      1  0.5041080000000  0.5637320000000  0.4436520000000 1.0
END
