TITL C-599891-72-1358 594.728859487421 125000 -1083.90468824397 0 0 175 (C1) n - 1
REM
REM in /home/nfs/bkarasulu/CARBON/AIRSS/Generating-Clusters/TERSOFF/Only-C1/FIRE-HFTN
REM
REM
REM
REM
REM
REM ./C.cell (11c1c37f851c82e70ff6c80c92926a4b)
REM AIRSS Version 0.9.1 bugfix July 2018 build 013d7b7c2542+ Fri, 06 Jul 2018 19:26:36 +0100
REM compiler GCC version 9.2.1 20190827 (Red Hat 9.2.1-1)
REM options -cpp -mtune=generic -march=x86-64 -g -O0 -fpre-include=/usr/include/finclude/math-vector-fortran.h
REM seed -1135248894 186402873 2076077657 1534506056 983773869 1715664993 -556783957 -1698117345 -1463306300 -1044731439 -1010051874 917998865 -1928071712 -2017389506 -884252293 1650405948 -199817672 1547945152 -1558451941 -2107174319 -1200161897 -1979095706 1698831448 621553155 -1459382748 -263257817 1485685632 1978141395 -1277127253 2474288 33819917 -111189662 930927041
REM
CELL 1.54180   50.00000   50.00000   50.00000   90.00000   90.00000   90.00000
LATT -1
SFAC C  
C      1  0.6125340000000  0.4701710000000  0.4908850000000 1.0
C      1  0.4936660000000  0.5506710000000  0.5133400000000 1.0
C      1  0.4740640000000  0.6094540000000  0.5427270000000 1.0
C      1  0.5696680000000  0.5127390000000  0.4459840000000 1.0
C      1  0.5756970000000  0.4217510000000  0.4401530000000 1.0
C      1  0.4629340000000  0.6088020000000  0.4920750000000 1.0
C      1  0.5103840000000  0.5202160000000  0.3968420000000 1.0
C      1  0.5381000000000  0.5503170000000  0.4184970000000 1.0
C      1  0.4698410000000  0.5817110000000  0.4034620000000 1.0
C      1  0.4591880000000  0.4229730000000  0.4662210000000 1.0
C      1  0.4125710000000  0.4340620000000  0.5950990000000 1.0
C      1  0.5654440000000  0.5356670000000  0.5537170000000 1.0
C      1  0.5866730000000  0.6437540000000  0.5032670000000 1.0
C      1  0.4573910000000  0.5378980000000  0.4182960000000 1.0
C      1  0.5512560000000  0.4320030000000  0.4291340000000 1.0
C      1  0.4306520000000  0.5271470000000  0.5053800000000 1.0
C      1  0.4680780000000  0.4664480000000  0.5600810000000 1.0
C      1  0.5620610000000  0.4784290000000  0.4790950000000 1.0
C      1  0.4300430000000  0.5024530000000  0.4624280000000 1.0
C      1  0.4406800000000  0.4386750000000  0.5971750000000 1.0
C      1  0.4377480000000  0.5086530000000  0.3630090000000 1.0
C      1  0.4639060000000  0.4228170000000  0.5151570000000 1.0
C      1  0.4501730000000  0.5650160000000  0.5661360000000 1.0
C      1  0.4795110000000  0.4725540000000  0.6083620000000 1.0
C      1  0.5531210000000  0.5600550000000  0.5446340000000 1.0
C      1  0.4236440000000  0.5761510000000  0.4519630000000 1.0
C      1  0.5121510000000  0.5945600000000  0.5209920000000 1.0
C      1  0.3876580000000  0.4692930000000  0.4973770000000 1.0
C      1  0.5556260000000  0.5427560000000  0.4997630000000 1.0
C      1  0.4659590000000  0.4794890000000  0.5142300000000 1.0
C      1  0.5424920000000  0.5587530000000  0.5179350000000 1.0
C      1  0.5363680000000  0.5148860000000  0.3846090000000 1.0
C      1  0.4906010000000  0.5366810000000  0.3843790000000 1.0
C      1  0.4915170000000  0.4180220000000  0.5242340000000 1.0
C      1  0.4865680000000  0.4217790000000  0.6189450000000 1.0
C      1  0.5589220000000  0.4894210000000  0.5049950000000 1.0
C      1  0.3846670000000  0.5300950000000  0.4264460000000 1.0
C      1  0.4801390000000  0.5460480000000  0.4894840000000 1.0
C      1  0.5217810000000  0.4626340000000  0.5552350000000 1.0
C      1  0.4443020000000  0.4099570000000  0.5311820000000 1.0
C      1  0.4841640000000  0.4728910000000  0.4648320000000 1.0
C      1  0.4311940000000  0.5298080000000  0.4099490000000 1.0
C      1  0.4530380000000  0.4328500000000  0.4398110000000 1.0
C      1  0.4049870000000  0.5571510000000  0.5689750000000 1.0
C      1  0.4558730000000  0.5465040000000  0.5444560000000 1.0
C      1  0.4976860000000  0.4981420000000  0.4621400000000 1.0
C      1  0.4590570000000  0.5438830000000  0.4683740000000 1.0
C      1  0.3647390000000  0.4943780000000  0.4580990000000 1.0
C      1  0.5211810000000  0.6197540000000  0.4822440000000 1.0
C      1  0.4668090000000  0.5944620000000  0.4678450000000 1.0
C      1  0.4511010000000  0.4724570000000  0.5377640000000 1.0
C      1  0.5056230000000  0.4313950000000  0.4719160000000 1.0
C      1  0.5465880000000  0.4587710000000  0.4368750000000 1.0
C      1  0.6094520000000  0.4833950000000  0.5170820000000 1.0
C      1  0.5913580000000  0.4443560000000  0.5485470000000 1.0
C      1  0.5037770000000  0.6430610000000  0.3930040000000 1.0
C      1  0.3693600000000  0.5128720000000  0.4396130000000 1.0
C      1  0.5516630000000  0.4902040000000  0.3926910000000 1.0
C      1  0.5906140000000  0.5261630000000  0.5424210000000 1.0
C      1  0.5534690000000  0.5384680000000  0.3953860000000 1.0
C      1  0.4354170000000  0.5406390000000  0.6052040000000 1.0
C      1  0.4703700000000  0.5328150000000  0.4428100000000 1.0
C      1  0.4883190000000  0.3826510000000  0.4719660000000 1.0
C      1  0.5220750000000  0.4093880000000  0.5620160000000 1.0
C      1  0.5430160000000  0.5063590000000  0.4352590000000 1.0
C      1  0.4073480000000  0.4674450000000  0.5150310000000 1.0
C      1  0.4815960000000  0.5297050000000  0.3586200000000 1.0
C      1  0.4225020000000  0.4698970000000  0.5383830000000 1.0
C      1  0.5485660000000  0.5189580000000  0.5703340000000 1.0
C      1  0.5101060000000  0.4863610000000  0.5672500000000 1.0
C      1  0.4732520000000  0.4266470000000  0.4193180000000 1.0
C      1  0.6076420000000  0.5109790000000  0.5268150000000 1.0
C      1  0.4880340000000  0.6000480000000  0.4488990000000 1.0
C      1  0.4609140000000  0.4059350000000  0.3711810000000 1.0
C      1  0.5368390000000  0.6006630000000  0.4409360000000 1.0
C      1  0.4881260000000  0.4952510000000  0.5200510000000 1.0
C      1  0.5040390000000  0.3944550000000  0.5141420000000 1.0
C      1  0.5635920000000  0.4375410000000  0.5918380000000 1.0
C      1  0.5233750000000  0.4097490000000  0.5908080000000 1.0
C      1  0.4384920000000  0.5143270000000  0.6147710000000 1.0
C      1  0.5300470000000  0.4412940000000  0.4818480000000 1.0
C      1  0.5147020000000  0.6071610000000  0.4578590000000 1.0
C      1  0.5646460000000  0.6466990000000  0.5192720000000 1.0
C      1  0.4074130000000  0.5388590000000  0.5469930000000 1.0
C      1  0.4444240000000  0.5912650000000  0.3949960000000 1.0
C      1  0.4619720000000  0.6130280000000  0.5186490000000 1.0
C      1  0.3717010000000  0.4787610000000  0.4784110000000 1.0
C      1  0.4835550000000  0.5412790000000  0.5385400000000 1.0
C      1  0.5883310000000  0.4188130000000  0.4648000000000 1.0
C      1  0.4327720000000  0.4888740000000  0.6040340000000 1.0
C      1  0.5026710000000  0.5363310000000  0.5601720000000 1.0
C      1  0.5355360000000  0.3845020000000  0.4763720000000 1.0
C      1  0.5152650000000  0.5831090000000  0.5664090000000 1.0
C      1  0.5450930000000  0.4602710000000  0.4660890000000 1.0
C      1  0.4145540000000  0.4887440000000  0.5824730000000 1.0
C      1  0.5267080000000  0.4161130000000  0.4304940000000 1.0
C      1  0.5041680000000  0.5592940000000  0.5781940000000 1.0
C      1  0.4668950000000  0.4159130000000  0.3944990000000 1.0
C      1  0.5538270000000  0.6083820000000  0.5491900000000 1.0
C      1  0.5290050000000  0.4919220000000  0.6466290000000 1.0
C      1  0.4848800000000  0.4104210000000  0.4686570000000 1.0
C      1  0.4764990000000  0.4390320000000  0.5641750000000 1.0
C      1  0.5489790000000  0.6240720000000  0.5257100000000 1.0
C      1  0.5388580000000  0.4346240000000  0.5069780000000 1.0
C      1  0.4738190000000  0.5534380000000  0.4005730000000 1.0
C      1  0.6083470000000  0.4873090000000  0.4681930000000 1.0
C      1  0.4846650000000  0.4809690000000  0.5787570000000 1.0
C      1  0.5554640000000  0.6197430000000  0.4346960000000 1.0
C      1  0.4845750000000  0.6000790000000  0.4199490000000 1.0
C      1  0.5250750000000  0.4496550000000  0.6194650000000 1.0
C      1  0.4489640000000  0.5722700000000  0.4636200000000 1.0
C      1  0.5005940000000  0.4021870000000  0.6061160000000 1.0
C      1  0.4083540000000  0.5433950000000  0.4204170000000 1.0
C      1  0.4281780000000  0.5130560000000  0.3876170000000 1.0
C      1  0.5606490000000  0.5171310000000  0.5035650000000 1.0
C      1  0.5918320000000  0.4690910000000  0.5338560000000 1.0
C      1  0.4364860000000  0.4557740000000  0.4383850000000 1.0
C      1  0.5862930000000  0.5282050000000  0.4287510000000 1.0
C      1  0.5825710000000  0.4010180000000  0.4868730000000 1.0
C      1  0.3984120000000  0.4455120000000  0.5748200000000 1.0
C      1  0.5847500000000  0.4239470000000  0.5299680000000 1.0
C      1  0.4742590000000  0.3623940000000  0.4608840000000 1.0
C      1  0.5392650000000  0.5747640000000  0.4308710000000 1.0
C      1  0.4426300000000  0.4070930000000  0.5581160000000 1.0
C      1  0.4598190000000  0.5165820000000  0.3499260000000 1.0
C      1  0.5493380000000  0.4638350000000  0.5514570000000 1.0
C      1  0.5803480000000  0.5274660000000  0.4009880000000 1.0
C      1  0.5987390000000  0.4157970000000  0.5073740000000 1.0
C      1  0.5635460000000  0.4766280000000  0.5296800000000 1.0
C      1  0.5162430000000  0.5677600000000  0.5136740000000 1.0
C      1  0.4577710000000  0.4379210000000  0.4910010000000 1.0
C      1  0.5575630000000  0.6712680000000  0.5290720000000 1.0
C      1  0.5273120000000  0.6151600000000  0.5091740000000 1.0
C      1  0.5390950000000  0.4306470000000  0.6032220000000 1.0
C      1  0.4952460000000  0.5191740000000  0.4431760000000 1.0
C      1  0.5380490000000  0.3912330000000  0.5455410000000 1.0
C      1  0.5791440000000  0.5001710000000  0.3901970000000 1.0
C      1  0.5514070000000  0.3824840000000  0.5229210000000 1.0
C      1  0.5053570000000  0.5040370000000  0.6421300000000 1.0
C      1  0.5317270000000  0.3935290000000  0.4487880000000 1.0
C      1  0.4669600000000  0.4654800000000  0.4890040000000 1.0
C      1  0.4970760000000  0.4505050000000  0.4514640000000 1.0
C      1  0.5692870000000  0.4488790000000  0.5673120000000 1.0
C      1  0.4556660000000  0.4242360000000  0.5766380000000 1.0
C      1  0.4494690000000  0.4652280000000  0.6071110000000 1.0
C      1  0.4850960000000  0.4955950000000  0.6266110000000 1.0
C      1  0.4083350000000  0.4694130000000  0.5631260000000 1.0
C      1  0.5154230000000  0.5041430000000  0.4829160000000 1.0
C      1  0.4318330000000  0.5356680000000  0.5319470000000 1.0
C      1  0.4378410000000  0.5245400000000  0.4783280000000 1.0
C      1  0.5102090000000  0.3808770000000  0.4900450000000 1.0
C      1  0.5372350000000  0.4684360000000  0.6363750000000 1.0
C      1  0.5029980000000  0.4316030000000  0.5503870000000 1.0
C      1  0.5004990000000  0.4326950000000  0.4276870000000 1.0
C      1  0.4994400000000  0.5977740000000  0.5465950000000 1.0
C      1  0.5571630000000  0.4260360000000  0.5238580000000 1.0
C      1  0.5203620000000  0.5136440000000  0.5648860000000 1.0
C      1  0.4246610000000  0.5779630000000  0.5645210000000 1.0
C      1  0.5810090000000  0.4932150000000  0.4632170000000 1.0
C      1  0.4088880000000  0.5470910000000  0.5954540000000 1.0
C      1  0.4961680000000  0.4486170000000  0.6175960000000 1.0
C      1  0.5595000000000  0.5089880000000  0.5935460000000 1.0
C      1  0.4843500000000  0.5589870000000  0.5985560000000 1.0
C      1  0.5110000000000  0.5027330000000  0.5090970000000 1.0
C      1  0.6082760000000  0.4421510000000  0.4860130000000 1.0
C      1  0.4953480000000  0.6222990000000  0.4063110000000 1.0
C      1  0.5584030000000  0.3866780000000  0.4943380000000 1.0
C      1  0.5438920000000  0.5833800000000  0.5590810000000 1.0
C      1  0.6290900000000  0.4963900000000  0.4530250000000 1.0
C      1  0.4124970000000  0.5708310000000  0.4266890000000 1.0
C      1  0.4296410000000  0.4799520000000  0.4478400000000 1.0
C      1  0.5196470000000  0.5255840000000  0.4263430000000 1.0
C      1  0.4198290000000  0.5879900000000  0.4055060000000 1.0
C      1  0.5445060000000  0.4813700000000  0.4198760000000 1.0
C      1  0.4568900000000  0.5557990000000  0.5928670000000 1.0
END
