TITL C-599895-9959-1496 1992.53139166414 125000 -1194.10457427005 0 0 197 (C1) n - 1
REM
REM in /home/nfs/bkarasulu/CARBON/AIRSS/Generating-Clusters/TERSOFF/Only-C1/FIRE-HFTN
REM
REM
REM
REM
REM
REM ./C.cell (11c1c37f851c82e70ff6c80c92926a4b)
REM AIRSS Version 0.9.1 bugfix July 2018 build 013d7b7c2542+ Fri, 06 Jul 2018 19:26:36 +0100
REM compiler GCC version 9.2.1 20190827 (Red Hat 9.2.1-1)
REM options -cpp -mtune=generic -march=x86-64 -g -O0 -fpre-include=/usr/include/finclude/math-vector-fortran.h
REM seed 342319430 582048070 -533696934 -1453614078 1483773499 -1089849252 -1922178610 -1461491776 -904768585 755777680 -1843118542 -633974842 -1135055443 -1203529763 -187523493 282052839 -1318656831 -1233450772 -1488998223 628751490 -1785748197 -3065201 -247133073 -483918721 866173315 -374776560 1384231748 -1948709439 -909284330 -242008799 -1612386954 -1716782247 1645323196
REM
CELL 1.54180   50.00000   50.00000   50.00000   90.00000   90.00000   90.00000
LATT -1
SFAC C  
C      1  0.4603730000000  0.5658920000000  0.4130880000000 1.0
C      1  0.3935330000000  0.5237400000000  0.4525420000000 1.0
C      1  0.3832320000000  0.4735400000000  0.4833390000000 1.0
C      1  0.4575190000000  0.5951550000000  0.5142250000000 1.0
C      1  0.5049170000000  0.6128360000000  0.4831570000000 1.0
C      1  0.5180160000000  0.5732930000000  0.6033040000000 1.0
C      1  0.5088400000000  0.5370750000000  0.4233550000000 1.0
C      1  0.6177630000000  0.4354500000000  0.5431770000000 1.0
C      1  0.4317300000000  0.4735370000000  0.5284190000000 1.0
C      1  0.5346480000000  0.5223470000000  0.4267900000000 1.0
C      1  0.4889070000000  0.5388610000000  0.4921390000000 1.0
C      1  0.4070890000000  0.4312710000000  0.5142620000000 1.0
C      1  0.5114050000000  0.6208260000000  0.5119380000000 1.0
C      1  0.4935330000000  0.4631180000000  0.6368980000000 1.0
C      1  0.4678990000000  0.5287690000000  0.5066210000000 1.0
C      1  0.5763800000000  0.5941770000000  0.4600560000000 1.0
C      1  0.5836000000000  0.5676200000000  0.5280610000000 1.0
C      1  0.6192810000000  0.4890520000000  0.4971220000000 1.0
C      1  0.5139450000000  0.5275490000000  0.4887240000000 1.0
C      1  0.4345110000000  0.5194170000000  0.5980910000000 1.0
C      1  0.4722690000000  0.4806200000000  0.5413930000000 1.0
C      1  0.4813970000000  0.5794390000000  0.4266030000000 1.0
C      1  0.5013480000000  0.4820120000000  0.4898710000000 1.0
C      1  0.5757690000000  0.5562260000000  0.5526070000000 1.0
C      1  0.5314580000000  0.5675820000000  0.5152070000000 1.0
C      1  0.6121990000000  0.4967030000000  0.4000440000000 1.0
C      1  0.4090400000000  0.5186770000000  0.5506710000000 1.0
C      1  0.4400040000000  0.4501410000000  0.3665670000000 1.0
C      1  0.4301520000000  0.5813550000000  0.5248960000000 1.0
C      1  0.5183350000000  0.5029850000000  0.5002380000000 1.0
C      1  0.3888140000000  0.4527790000000  0.5719100000000 1.0
C      1  0.4516390000000  0.6014610000000  0.4837330000000 1.0
C      1  0.4693170000000  0.5489390000000  0.5492760000000 1.0
C      1  0.5007560000000  0.5316800000000  0.6076160000000 1.0
C      1  0.4549380000000  0.5081020000000  0.4919740000000 1.0
C      1  0.4334290000000  0.5508210000000  0.3764240000000 1.0
C      1  0.4440400000000  0.5253470000000  0.4450120000000 1.0
C      1  0.4946310000000  0.4764770000000  0.6122170000000 1.0
C      1  0.4688900000000  0.5261570000000  0.5672950000000 1.0
C      1  0.3794990000000  0.4807230000000  0.5295400000000 1.0
C      1  0.4887550000000  0.5657650000000  0.4841350000000 1.0
C      1  0.5401480000000  0.4322170000000  0.5925100000000 1.0
C      1  0.5707040000000  0.5175790000000  0.5957510000000 1.0
C      1  0.5543290000000  0.4508900000000  0.4505510000000 1.0
C      1  0.4783080000000  0.3666880000000  0.5328520000000 1.0
C      1  0.5036480000000  0.5463770000000  0.3594980000000 1.0
C      1  0.5519650000000  0.4842670000000  0.5319810000000 1.0
C      1  0.5542690000000  0.5712840000000  0.5663650000000 1.0
C      1  0.3757190000000  0.5085440000000  0.5158170000000 1.0
C      1  0.4455720000000  0.4928730000000  0.5875430000000 1.0
C      1  0.5784590000000  0.5604750000000  0.5016530000000 1.0
C      1  0.4647420000000  0.6202430000000  0.5287000000000 1.0
C      1  0.5024700000000  0.4031280000000  0.5470820000000 1.0
C      1  0.5842830000000  0.6412640000000  0.4349960000000 1.0
C      1  0.5786740000000  0.4497040000000  0.5278940000000 1.0
C      1  0.4533520000000  0.5397010000000  0.5277500000000 1.0
C      1  0.5966910000000  0.4160880000000  0.4971820000000 1.0
C      1  0.4281170000000  0.5645770000000  0.5746330000000 1.0
C      1  0.6207250000000  0.5091580000000  0.4764140000000 1.0
C      1  0.3861660000000  0.4588850000000  0.5086410000000 1.0
C      1  0.4057240000000  0.5173490000000  0.5981040000000 1.0
C      1  0.5988630000000  0.5573180000000  0.4827230000000 1.0
C      1  0.5398160000000  0.4523860000000  0.5027540000000 1.0
C      1  0.5093310000000  0.3802710000000  0.4952850000000 1.0
C      1  0.6132180000000  0.5143910000000  0.4226720000000 1.0
C      1  0.5251720000000  0.5308800000000  0.3559450000000 1.0
C      1  0.5471540000000  0.4191610000000  0.5472840000000 1.0
C      1  0.5670100000000  0.4240690000000  0.5290750000000 1.0
C      1  0.4953920000000  0.4666240000000  0.5430200000000 1.0
C      1  0.4850750000000  0.4276640000000  0.4643880000000 1.0
C      1  0.5790320000000  0.5430970000000  0.4047660000000 1.0
C      1  0.4003770000000  0.4968560000000  0.4438640000000 1.0
C      1  0.5409210000000  0.4673700000000  0.5545580000000 1.0
C      1  0.5470100000000  0.5155310000000  0.3579360000000 1.0
C      1  0.5270910000000  0.4096520000000  0.6005400000000 1.0
C      1  0.3945420000000  0.5170370000000  0.5734350000000 1.0
C      1  0.4385640000000  0.4270910000000  0.4463720000000 1.0
C      1  0.4122380000000  0.5724430000000  0.4557820000000 1.0
C      1  0.4553290000000  0.4474970000000  0.5919730000000 1.0
C      1  0.4453160000000  0.5485320000000  0.4295660000000 1.0
C      1  0.6126450000000  0.4986340000000  0.5236650000000 1.0
C      1  0.3969900000000  0.5487460000000  0.4654370000000 1.0
C      1  0.5464600000000  0.5238540000000  0.4558250000000 1.0
C      1  0.5339920000000  0.4312670000000  0.4539480000000 1.0
C      1  0.4767380000000  0.6103500000000  0.4698980000000 1.0
C      1  0.4773420000000  0.6031680000000  0.4418250000000 1.0
C      1  0.5319930000000  0.4074790000000  0.4375160000000 1.0
C      1  0.5002570000000  0.3794620000000  0.4677150000000 1.0
C      1  0.6154760000000  0.4180690000000  0.5210180000000 1.0
C      1  0.5543450000000  0.5339290000000  0.4080840000000 1.0
C      1  0.5108550000000  0.4373200000000  0.4708780000000 1.0
C      1  0.4756290000000  0.4883700000000  0.4774160000000 1.0
C      1  0.5154250000000  0.4803290000000  0.5572250000000 1.0
C      1  0.5747450000000  0.4347700000000  0.6576530000000 1.0
C      1  0.4049140000000  0.4764690000000  0.4647950000000 1.0
C      1  0.5308740000000  0.4911110000000  0.4236820000000 1.0
C      1  0.6205570000000  0.5050560000000  0.4484190000000 1.0
C      1  0.4271050000000  0.5868190000000  0.4763390000000 1.0
C      1  0.5121380000000  0.5678420000000  0.4628960000000 1.0
C      1  0.3773010000000  0.4714280000000  0.5561250000000 1.0
C      1  0.4157650000000  0.4706830000000  0.4034720000000 1.0
C      1  0.4086410000000  0.4328580000000  0.5670840000000 1.0
C      1  0.4881650000000  0.4216550000000  0.5302480000000 1.0
C      1  0.5351450000000  0.3914320000000  0.5094380000000 1.0
C      1  0.5771670000000  0.4534610000000  0.4684600000000 1.0
C      1  0.5424110000000  0.4402220000000  0.5652860000000 1.0
C      1  0.5321090000000  0.6108770000000  0.5311670000000 1.0
C      1  0.5230520000000  0.4897550000000  0.6084380000000 1.0
C      1  0.4883730000000  0.3795870000000  0.5547420000000 1.0
C      1  0.5212250000000  0.3841000000000  0.4496610000000 1.0
C      1  0.5334270000000  0.5448090000000  0.4736450000000 1.0
C      1  0.4887920000000  0.6324160000000  0.5253390000000 1.0
C      1  0.4367390000000  0.4046220000000  0.4654340000000 1.0
C      1  0.5995350000000  0.4407220000000  0.4807820000000 1.0
C      1  0.4042700000000  0.4194770000000  0.5418280000000 1.0
C      1  0.5963580000000  0.5734250000000  0.4593760000000 1.0
C      1  0.4816540000000  0.4187830000000  0.4374770000000 1.0
C      1  0.3844000000000  0.5382220000000  0.5174260000000 1.0
C      1  0.4931510000000  0.4140610000000  0.4133460000000 1.0
C      1  0.5112280000000  0.4539420000000  0.4961750000000 1.0
C      1  0.5111530000000  0.4762750000000  0.4097910000000 1.0
C      1  0.4671590000000  0.4267740000000  0.4871480000000 1.0
C      1  0.5569810000000  0.4974280000000  0.4639340000000 1.0
C      1  0.4398910000000  0.5247250000000  0.4722160000000 1.0
C      1  0.4544410000000  0.5007880000000  0.4353990000000 1.0
C      1  0.4170630000000  0.4095700000000  0.4879000000000 1.0
C      1  0.5434100000000  0.5951820000000  0.5514490000000 1.0
C      1  0.4324690000000  0.4698570000000  0.4768690000000 1.0
C      1  0.3906350000000  0.5566810000000  0.5406500000000 1.0
C      1  0.5334170000000  0.5042580000000  0.5240990000000 1.0
C      1  0.5290410000000  0.4000050000000  0.5375790000000 1.0
C      1  0.4523010000000  0.4515170000000  0.4377420000000 1.0
C      1  0.4388650000000  0.4586060000000  0.3924510000000 1.0
C      1  0.5807310000000  0.6185530000000  0.4472730000000 1.0
C      1  0.4672730000000  0.4741450000000  0.5974660000000 1.0
C      1  0.5506320000000  0.5637590000000  0.4920780000000 1.0
C      1  0.4986410000000  0.4466930000000  0.5236510000000 1.0
C      1  0.4554140000000  0.4763590000000  0.4557050000000 1.0
C      1  0.5644620000000  0.4421170000000  0.6343700000000 1.0
C      1  0.4739770000000  0.4090270000000  0.5088870000000 1.0
C      1  0.5719780000000  0.4894430000000  0.5881120000000 1.0
C      1  0.4607740000000  0.4558230000000  0.4104710000000 1.0
C      1  0.4841330000000  0.5795280000000  0.5095800000000 1.0
C      1  0.4284140000000  0.5280700000000  0.5346120000000 1.0
C      1  0.4701790000000  0.5048620000000  0.4127470000000 1.0
C      1  0.5637500000000  0.4688300000000  0.5107000000000 1.0
C      1  0.5687620000000  0.4070960000000  0.5060880000000 1.0
C      1  0.5842800000000  0.4275150000000  0.6808060000000 1.0
C      1  0.5029530000000  0.5623880000000  0.4351690000000 1.0
C      1  0.4346650000000  0.4889920000000  0.5027870000000 1.0
C      1  0.4653250000000  0.3843030000000  0.4643080000000 1.0
C      1  0.5252120000000  0.5187060000000  0.6121480000000 1.0
C      1  0.4130970000000  0.5347330000000  0.3830440000000 1.0
C      1  0.6327070000000  0.4789780000000  0.3959060000000 1.0
C      1  0.5973640000000  0.4558260000000  0.5492020000000 1.0
C      1  0.4330990000000  0.4465410000000  0.5175900000000 1.0
C      1  0.3966830000000  0.5522550000000  0.4945410000000 1.0
C      1  0.4925470000000  0.5259080000000  0.5818100000000 1.0
C      1  0.5202150000000  0.4115470000000  0.4119260000000 1.0
C      1  0.5517990000000  0.4498890000000  0.6109440000000 1.0
C      1  0.4154520000000  0.5745200000000  0.5007320000000 1.0
C      1  0.5877490000000  0.5303260000000  0.5553770000000 1.0
C      1  0.4814090000000  0.5579720000000  0.3688740000000 1.0
C      1  0.4832790000000  0.3814120000000  0.5090740000000 1.0
C      1  0.5906030000000  0.4974150000000  0.3817470000000 1.0
C      1  0.5492390000000  0.4767880000000  0.6028670000000 1.0
C      1  0.4425380000000  0.5488970000000  0.5953710000000 1.0
C      1  0.4041530000000  0.4933780000000  0.4154370000000 1.0
C      1  0.5907500000000  0.4812650000000  0.5646650000000 1.0
C      1  0.5693320000000  0.5035930000000  0.3666990000000 1.0
C      1  0.5521010000000  0.5892500000000  0.4743350000000 1.0
C      1  0.5481690000000  0.5338370000000  0.6018030000000 1.0
C      1  0.4457950000000  0.4451120000000  0.4911840000000 1.0
C      1  0.4662270000000  0.5040180000000  0.5510620000000 1.0
C      1  0.5421600000000  0.5611490000000  0.5913470000000 1.0
C      1  0.3694620000000  0.4986630000000  0.4888190000000 1.0
C      1  0.5113930000000  0.5319350000000  0.5603800000000 1.0
C      1  0.5707310000000  0.4796250000000  0.4829850000000 1.0
C      1  0.6081840000000  0.5629020000000  0.4361640000000 1.0
C      1  0.4310980000000  0.4798640000000  0.5582660000000 1.0
C      1  0.5986180000000  0.5047640000000  0.5481600000000 1.0
C      1  0.4878770000000  0.4632870000000  0.4053160000000 1.0
C      1  0.4937140000000  0.5592790000000  0.6118170000000 1.0
C      1  0.4337410000000  0.4344950000000  0.5812180000000 1.0
C      1  0.4978380000000  0.5539460000000  0.5470240000000 1.0
C      1  0.6028110000000  0.5409740000000  0.4194530000000 1.0
C      1  0.5057120000000  0.5706970000000  0.5265720000000 1.0
C      1  0.5469640000000  0.4778900000000  0.4432320000000 1.0
C      1  0.4161000000000  0.5706950000000  0.5487720000000 1.0
C      1  0.4584080000000  0.5609610000000  0.3849100000000 1.0
C      1  0.5194760000000  0.5083900000000  0.5485450000000 1.0
C      1  0.4897420000000  0.5225450000000  0.4088650000000 1.0
C      1  0.4019600000000  0.5158840000000  0.3983620000000 1.0
C      1  0.5242260000000  0.5955150000000  0.4694530000000 1.0
C      1  0.6165940000000  0.5358910000000  0.4842590000000 1.0
C      1  0.4651610000000  0.5618900000000  0.6085730000000 1.0
C      1  0.6186360000000  0.4611650000000  0.4895510000000 1.0
END
