TITL C-599893-4344-994 -3072.82464943726 125000 -992.628458181246 0 0 164 (C1) n - 1
REM
REM in /home/nfs/bkarasulu/CARBON/AIRSS/Generating-Clusters/TERSOFF/Only-C1/FIRE-HFTN
REM
REM
REM
REM
REM
REM ./C.cell (11c1c37f851c82e70ff6c80c92926a4b)
REM AIRSS Version 0.9.1 bugfix July 2018 build 013d7b7c2542+ Fri, 06 Jul 2018 19:26:36 +0100
REM compiler GCC version 9.2.1 20190827 (Red Hat 9.2.1-1)
REM options -cpp -mtune=generic -march=x86-64 -g -O0 -fpre-include=/usr/include/finclude/math-vector-fortran.h
REM seed 532590474 -409389634 651436172 -1992487182 2095233962 -89250769 270718170 -998628421 69205594 1912059105 1052573752 -227184073 931303457 -138403973 701136443 -1325536829 1493686924 -333113361 -2017537434 -232264825 -24877695 -360391703 -1752090309 -14297512 1936996353 694664647 322479292 1781214155 1009114932 -112796712 -1807554327 -452473382 -1354588196
REM
CELL 1.54180   50.00000   50.00000   50.00000   90.00000   90.00000   90.00000
LATT -1
SFAC C  
C      1  0.4968420000000  0.4202000000000  0.5531900000000 1.0
C      1  0.4207730000000  0.5063130000000  0.4038840000000 1.0
C      1  0.3914390000000  0.5791740000000  0.5141830000000 1.0
C      1  0.4565730000000  0.5262870000000  0.5545530000000 1.0
C      1  0.4464090000000  0.5498950000000  0.5140680000000 1.0
C      1  0.5905600000000  0.5162330000000  0.5506280000000 1.0
C      1  0.5842630000000  0.4506080000000  0.5372330000000 1.0
C      1  0.5470270000000  0.5511040000000  0.4998480000000 1.0
C      1  0.4504890000000  0.4305280000000  0.5086300000000 1.0
C      1  0.5367730000000  0.4442950000000  0.4712320000000 1.0
C      1  0.4844820000000  0.5498220000000  0.3904430000000 1.0
C      1  0.4281950000000  0.4944910000000  0.5291440000000 1.0
C      1  0.5248060000000  0.5610900000000  0.5914170000000 1.0
C      1  0.4137340000000  0.4866350000000  0.5046710000000 1.0
C      1  0.4572400000000  0.4485430000000  0.5299070000000 1.0
C      1  0.5352490000000  0.5295950000000  0.4113980000000 1.0
C      1  0.5870790000000  0.4726760000000  0.4825280000000 1.0
C      1  0.5065540000000  0.5811800000000  0.6038860000000 1.0
C      1  0.4028830000000  0.5026190000000  0.4834770000000 1.0
C      1  0.5384020000000  0.4716980000000  0.4812920000000 1.0
C      1  0.3787330000000  0.5599220000000  0.5276980000000 1.0
C      1  0.4481660000000  0.5065030000000  0.4544250000000 1.0
C      1  0.4931170000000  0.5171290000000  0.5896210000000 1.0
C      1  0.5894620000000  0.4247450000000  0.4894040000000 1.0
C      1  0.4768050000000  0.5701230000000  0.4080600000000 1.0
C      1  0.5641020000000  0.4711700000000  0.5957730000000 1.0
C      1  0.5327970000000  0.5260380000000  0.5609420000000 1.0
C      1  0.5100670000000  0.3941290000000  0.5482740000000 1.0
C      1  0.5986060000000  0.5645610000000  0.5167720000000 1.0
C      1  0.4225930000000  0.5776600000000  0.4735140000000 1.0
C      1  0.4542700000000  0.5063080000000  0.5339380000000 1.0
C      1  0.5132630000000  0.5099230000000  0.5473050000000 1.0
C      1  0.5203750000000  0.5524210000000  0.5630310000000 1.0
C      1  0.5674240000000  0.5622150000000  0.4832030000000 1.0
C      1  0.5325250000000  0.4487440000000  0.5389700000000 1.0
C      1  0.5040670000000  0.4414200000000  0.5306930000000 1.0
C      1  0.4079120000000  0.4575300000000  0.5072680000000 1.0
C      1  0.5305330000000  0.4246550000000  0.4270000000000 1.0
C      1  0.5959490000000  0.5012940000000  0.5735400000000 1.0
C      1  0.5990770000000  0.5263210000000  0.4658300000000 1.0
C      1  0.5065370000000  0.5505190000000  0.5190160000000 1.0
C      1  0.5807630000000  0.5646600000000  0.5410450000000 1.0
C      1  0.5006380000000  0.4284560000000  0.5047140000000 1.0
C      1  0.5018580000000  0.4953200000000  0.5703190000000 1.0
C      1  0.5935250000000  0.5520410000000  0.4899830000000 1.0
C      1  0.4957810000000  0.5465820000000  0.4472070000000 1.0
C      1  0.4599850000000  0.4392520000000  0.4039050000000 1.0
C      1  0.5425190000000  0.5423010000000  0.4529700000000 1.0
C      1  0.4421260000000  0.4586380000000  0.4139950000000 1.0
C      1  0.5373400000000  0.5881010000000  0.5396880000000 1.0
C      1  0.6032520000000  0.4489770000000  0.4856290000000 1.0
C      1  0.5483430000000  0.3969820000000  0.4901740000000 1.0
C      1  0.4155930000000  0.5297920000000  0.4162980000000 1.0
C      1  0.4688090000000  0.5613430000000  0.5019260000000 1.0
C      1  0.5328490000000  0.4520940000000  0.5681810000000 1.0
C      1  0.4501250000000  0.5791620000000  0.4067040000000 1.0
C      1  0.4657100000000  0.4514880000000  0.4588410000000 1.0
C      1  0.5946900000000  0.5015830000000  0.5259900000000 1.0
C      1  0.5676540000000  0.5016640000000  0.5130650000000 1.0
C      1  0.4697660000000  0.4129450000000  0.5636010000000 1.0
C      1  0.4682490000000  0.6050660000000  0.5219650000000 1.0
C      1  0.5777270000000  0.4298530000000  0.5788380000000 1.0
C      1  0.4078580000000  0.5331400000000  0.5916610000000 1.0
C      1  0.4568890000000  0.5247920000000  0.4730890000000 1.0
C      1  0.4783870000000  0.5876840000000  0.5028660000000 1.0
C      1  0.6366840000000  0.4752870000000  0.5084400000000 1.0
C      1  0.4171350000000  0.5516890000000  0.4342140000000 1.0
C      1  0.4997340000000  0.5219050000000  0.5247910000000 1.0
C      1  0.5924820000000  0.4504920000000  0.5642020000000 1.0
C      1  0.5352700000000  0.6125090000000  0.5266300000000 1.0
C      1  0.5913330000000  0.4925340000000  0.4620670000000 1.0
C      1  0.5842360000000  0.5408240000000  0.4183760000000 1.0
C      1  0.4453170000000  0.5854030000000  0.4559090000000 1.0
C      1  0.4552720000000  0.4260880000000  0.5842170000000 1.0
C      1  0.5586190000000  0.5889130000000  0.4416430000000 1.0
C      1  0.3743480000000  0.5368890000000  0.5405090000000 1.0
C      1  0.4826370000000  0.4302850000000  0.4183640000000 1.0
C      1  0.4090840000000  0.5879070000000  0.4959300000000 1.0
C      1  0.6109640000000  0.4135680000000  0.4206500000000 1.0
C      1  0.3981050000000  0.4570700000000  0.5348670000000 1.0
C      1  0.4775280000000  0.5054530000000  0.5162170000000 1.0
C      1  0.5568280000000  0.5289300000000  0.5176220000000 1.0
C      1  0.4880980000000  0.3791840000000  0.5328950000000 1.0
C      1  0.4845290000000  0.3926680000000  0.4838120000000 1.0
C      1  0.4683360000000  0.5286240000000  0.5813580000000 1.0
C      1  0.4412970000000  0.4557410000000  0.5511160000000 1.0
C      1  0.4180680000000  0.4742730000000  0.5507180000000 1.0
C      1  0.5723480000000  0.4961880000000  0.4148560000000 1.0
C      1  0.4739690000000  0.4157020000000  0.4998470000000 1.0
C      1  0.4924220000000  0.4868620000000  0.4262530000000 1.0
C      1  0.4815550000000  0.5050290000000  0.4081790000000 1.0
C      1  0.4644980000000  0.3883110000000  0.5478140000000 1.0
C      1  0.5090370000000  0.4392550000000  0.4126810000000 1.0
C      1  0.4868240000000  0.5709700000000  0.4346010000000 1.0
C      1  0.4277280000000  0.5529090000000  0.5877940000000 1.0
C      1  0.5171170000000  0.5674010000000  0.5402640000000 1.0
C      1  0.5609630000000  0.5806830000000  0.5560070000000 1.0
C      1  0.4237840000000  0.4670070000000  0.5971150000000 1.0
C      1  0.4805110000000  0.4726900000000  0.4744380000000 1.0
C      1  0.4370380000000  0.5324100000000  0.4932720000000 1.0
C      1  0.5346690000000  0.6348760000000  0.5132730000000 1.0
C      1  0.4128220000000  0.6104810000000  0.5717360000000 1.0
C      1  0.4136880000000  0.4183370000000  0.4786390000000 1.0
C      1  0.5539990000000  0.4439480000000  0.5867020000000 1.0
C      1  0.4508390000000  0.6062640000000  0.5422480000000 1.0
C      1  0.5001810000000  0.3779000000000  0.5044840000000 1.0
C      1  0.4789240000000  0.5417100000000  0.4724590000000 1.0
C      1  0.5200570000000  0.4756000000000  0.5796160000000 1.0
C      1  0.4992340000000  0.4094220000000  0.4612510000000 1.0
C      1  0.5830400000000  0.4808030000000  0.4361330000000 1.0
C      1  0.5529860000000  0.5748760000000  0.5850310000000 1.0
C      1  0.4101060000000  0.5521270000000  0.4627570000000 1.0
C      1  0.5765360000000  0.4522050000000  0.4357730000000 1.0
C      1  0.5342850000000  0.4724630000000  0.4342900000000 1.0
C      1  0.5635670000000  0.5227280000000  0.4103760000000 1.0
C      1  0.5584800000000  0.4495020000000  0.5205220000000 1.0
C      1  0.4308070000000  0.4847540000000  0.4513750000000 1.0
C      1  0.5947190000000  0.4326280000000  0.4278470000000 1.0
C      1  0.4819210000000  0.4798960000000  0.5035350000000 1.0
C      1  0.6004450000000  0.5385090000000  0.4401370000000 1.0
C      1  0.4433220000000  0.4613240000000  0.4427490000000 1.0
C      1  0.4821510000000  0.5221890000000  0.3858960000000 1.0
C      1  0.4037940000000  0.4885100000000  0.4588230000000 1.0
C      1  0.4116870000000  0.4845640000000  0.5778150000000 1.0
C      1  0.3819580000000  0.4794560000000  0.4454720000000 1.0
C      1  0.5237490000000  0.4020940000000  0.4444940000000 1.0
C      1  0.5572630000000  0.5662590000000  0.4572690000000 1.0
C      1  0.4968250000000  0.5866970000000  0.4806250000000 1.0
C      1  0.5576260000000  0.6101000000000  0.4265070000000 1.0
C      1  0.4240040000000  0.4353560000000  0.4975160000000 1.0
C      1  0.5344190000000  0.3875250000000  0.5356640000000 1.0
C      1  0.5301820000000  0.3830890000000  0.5074120000000 1.0
C      1  0.4346250000000  0.5747650000000  0.4296270000000 1.0
C      1  0.3982820000000  0.5101390000000  0.5781340000000 1.0
C      1  0.4805460000000  0.5122240000000  0.3605110000000 1.0
C      1  0.4529410000000  0.5450750000000  0.5984500000000 1.0
C      1  0.4310670000000  0.5665430000000  0.5621890000000 1.0
C      1  0.5122830000000  0.4678460000000  0.4161770000000 1.0
C      1  0.4399630000000  0.4449020000000  0.5966720000000 1.0
C      1  0.5423790000000  0.4893400000000  0.5935240000000 1.0
C      1  0.5210650000000  0.5386400000000  0.4352880000000 1.0
C      1  0.6205170000000  0.4939050000000  0.5189290000000 1.0
C      1  0.5888210000000  0.4750550000000  0.5806180000000 1.0
C      1  0.4296460000000  0.4808140000000  0.4010000000000 1.0
C      1  0.4108230000000  0.5301570000000  0.4820280000000 1.0
C      1  0.4435620000000  0.5497230000000  0.5425760000000 1.0
C      1  0.5259150000000  0.4858850000000  0.4597850000000 1.0
C      1  0.5641730000000  0.4193380000000  0.5002900000000 1.0
C      1  0.4970830000000  0.4879370000000  0.4558740000000 1.0
C      1  0.5497700000000  0.5196180000000  0.4660160000000 1.0
C      1  0.5191490000000  0.5612510000000  0.4951670000000 1.0
C      1  0.5445030000000  0.3920020000000  0.4619470000000 1.0
C      1  0.6297900000000  0.4538830000000  0.4935330000000 1.0
C      1  0.5728370000000  0.5370960000000  0.5418820000000 1.0
C      1  0.5148090000000  0.4298310000000  0.4806580000000 1.0
C      1  0.5400940000000  0.5169560000000  0.5885310000000 1.0
C      1  0.4766230000000  0.5871520000000  0.4567250000000 1.0
C      1  0.3799580000000  0.5169690000000  0.5575480000000 1.0
C      1  0.5478490000000  0.4456680000000  0.4418580000000 1.0
C      1  0.4791320000000  0.4279890000000  0.4471640000000 1.0
C      1  0.5182900000000  0.5320030000000  0.6030070000000 1.0
C      1  0.4822630000000  0.4613790000000  0.5264450000000 1.0
C      1  0.4312480000000  0.5947950000000  0.5590230000000 1.0
C      1  0.5614210000000  0.4750470000000  0.5001840000000 1.0
END
