TITL C-599890-3321-412 -0.00107463690900083 125000 -234.335553491527 0 0 40 (C1) n - 1
REM
REM in /home/nfs/bkarasulu/CARBON/AIRSS/Generating-Clusters/TERSOFF/Only-C1/FIRE-HFTN
REM
REM
REM
REM
REM
REM ./C.cell (11c1c37f851c82e70ff6c80c92926a4b)
REM AIRSS Version 0.9.1 bugfix July 2018 build 013d7b7c2542+ Fri, 06 Jul 2018 19:26:36 +0100
REM compiler GCC version 9.2.1 20190827 (Red Hat 9.2.1-1)
REM options -cpp -mtune=generic -march=x86-64 -g -O0 -fpre-include=/usr/include/finclude/math-vector-fortran.h
REM seed 656200503 -1646749545 -484658916 330451144 -406430885 1715094434 -2052407640 -1780177946 -2008840414 -701150266 132043011 -1295409304 495944912 1769155950 -2067824558 1001655978 1698739991 -1206171731 1617273882 924066080 -2015572460 -964719956 -137351456 -2043211319 1638373314 -1057115641 765606313 -1394444970 -1693938310 248491469 213858540 1784164502 -2067343937
REM
CELL 1.54180   50.00000   50.00000   50.00000   90.00000   90.00000   90.00000
LATT -1
SFAC C  
C      1  0.5554510000000  0.4961080000000  0.5165270000000 1.0
C      1  0.4565440000000  0.4935080000000  0.5512870000000 1.0
C      1  0.5295420000000  0.4828840000000  0.4701950000000 1.0
C      1  0.5114230000000  0.5201100000000  0.5262430000000 1.0
C      1  0.4444320000000  0.4834590000000  0.5270840000000 1.0
C      1  0.4789020000000  0.4781490000000  0.5605310000000 1.0
C      1  0.5235170000000  0.4649240000000  0.5407360000000 1.0
C      1  0.4972510000000  0.4310890000000  0.5066060000000 1.0
C      1  0.5530060000000  0.5159350000000  0.4959450000000 1.0
C      1  0.5123660000000  0.5327520000000  0.4708870000000 1.0
C      1  0.5052920000000  0.5472480000000  0.5297330000000 1.0
C      1  0.4611900000000  0.5448530000000  0.5477960000000 1.0
C      1  0.5702150000000  0.5376830000000  0.4941300000000 1.0
C      1  0.5105570000000  0.4412990000000  0.4580170000000 1.0
C      1  0.5152040000000  0.4399930000000  0.4866630000000 1.0
C      1  0.5399410000000  0.4723170000000  0.5185170000000 1.0
C      1  0.5003540000000  0.4211410000000  0.4428880000000 1.0
C      1  0.5317740000000  0.4631470000000  0.4927330000000 1.0
C      1  0.5232050000000  0.5549480000000  0.4582260000000 1.0
C      1  0.4539510000000  0.5208300000000  0.5578720000000 1.0
C      1  0.4428250000000  0.4876850000000  0.4790460000000 1.0
C      1  0.4882960000000  0.4859440000000  0.4925690000000 1.0
C      1  0.5002190000000  0.5005610000000  0.5116910000000 1.0
C      1  0.4957370000000  0.4603300000000  0.5459680000000 1.0
C      1  0.4676010000000  0.5417930000000  0.4999430000000 1.0
C      1  0.4775790000000  0.5512600000000  0.5253110000000 1.0
C      1  0.5186070000000  0.4674910000000  0.4482550000000 1.0
C      1  0.4813670000000  0.4456820000000  0.5253730000000 1.0
C      1  0.5315500000000  0.5109830000000  0.4767270000000 1.0
C      1  0.4419620000000  0.5287620000000  0.5031150000000 1.0
C      1  0.4478990000000  0.5036940000000  0.4563680000000 1.0
C      1  0.4667960000000  0.5231160000000  0.4551590000000 1.0
C      1  0.4644070000000  0.4709670000000  0.4881560000000 1.0
C      1  0.5161090000000  0.4763590000000  0.4226790000000 1.0
C      1  0.5993030000000  0.5814240000000  0.4924350000000 1.0
C      1  0.4585820000000  0.4598740000000  0.5148600000000 1.0
C      1  0.4833170000000  0.5343280000000  0.4757820000000 1.0
C      1  0.5851450000000  0.5595500000000  0.4932610000000 1.0
C      1  0.4355570000000  0.5010850000000  0.5044830000000 1.0
C      1  0.5230270000000  0.5667360000000  0.5362040000000 1.0
END
