TITL C-599895-9959-297 0.000361949680797455 125000 -488.094543148392 0 0 81 (C1) n - 1
REM
REM in /home/nfs/bkarasulu/CARBON/AIRSS/Generating-Clusters/TERSOFF/Only-C1/FIRE-HFTN
REM
REM
REM
REM
REM
REM ./C.cell (11c1c37f851c82e70ff6c80c92926a4b)
REM AIRSS Version 0.9.1 bugfix July 2018 build 013d7b7c2542+ Fri, 06 Jul 2018 19:26:36 +0100
REM compiler GCC version 9.2.1 20190827 (Red Hat 9.2.1-1)
REM options -cpp -mtune=generic -march=x86-64 -g -O0 -fpre-include=/usr/include/finclude/math-vector-fortran.h
REM seed -1873712678 -1518916200 -720419315 -1105931859 896950135 1267173568 751722294 -1674941092 -1936854819 -990427131 1097485185 2133200830 -257841759 -2080629625 1638757713 37167764 -131751048 -1467847759 -809890842 1230219324 -1274770747 1991163546 -769650165 -482260539 -828832661 -1590245882 668977064 2107011353 -1903369936 1041956115 -1019591819 -829579831 443320304
REM
CELL 1.54180   50.00000   50.00000   50.00000   90.00000   90.00000   90.00000
LATT -1
SFAC C  
C      1  0.5713050000000  0.4845370000000  0.5255050000000 1.0
C      1  0.4999430000000  0.5409750000000  0.5587540000000 1.0
C      1  0.4735910000000  0.4800440000000  0.4771580000000 1.0
C      1  0.4740790000000  0.5438730000000  0.4115650000000 1.0
C      1  0.4985930000000  0.4322200000000  0.4438040000000 1.0
C      1  0.4425790000000  0.5154120000000  0.5344830000000 1.0
C      1  0.5199790000000  0.4294380000000  0.5791060000000 1.0
C      1  0.4325650000000  0.4889660000000  0.5349070000000 1.0
C      1  0.5791540000000  0.4600810000000  0.4827900000000 1.0
C      1  0.4850640000000  0.4781010000000  0.5228210000000 1.0
C      1  0.4193850000000  0.4918980000000  0.4689700000000 1.0
C      1  0.5394430000000  0.4874110000000  0.5702810000000 1.0
C      1  0.4410030000000  0.4416780000000  0.5296720000000 1.0
C      1  0.5677730000000  0.5171080000000  0.4597150000000 1.0
C      1  0.5362260000000  0.5167950000000  0.4167470000000 1.0
C      1  0.5398180000000  0.4190870000000  0.4946640000000 1.0
C      1  0.5241980000000  0.5425030000000  0.4527720000000 1.0
C      1  0.4186150000000  0.4922570000000  0.4399980000000 1.0
C      1  0.4112240000000  0.5535400000000  0.4880560000000 1.0
C      1  0.5684660000000  0.4625580000000  0.4582310000000 1.0
C      1  0.4628350000000  0.5059780000000  0.4716490000000 1.0
C      1  0.5529310000000  0.5090710000000  0.5833090000000 1.0
C      1  0.5049400000000  0.5228900000000  0.4600730000000 1.0
C      1  0.4308120000000  0.5354770000000  0.4936870000000 1.0
C      1  0.4702810000000  0.5550410000000  0.5146730000000 1.0
C      1  0.5350300000000  0.5781640000000  0.5595090000000 1.0
C      1  0.4625120000000  0.5245510000000  0.4285730000000 1.0
C      1  0.4936750000000  0.5790310000000  0.4411730000000 1.0
C      1  0.4363560000000  0.5128840000000  0.4779740000000 1.0
C      1  0.5604200000000  0.5109980000000  0.4864610000000 1.0
C      1  0.3983960000000  0.4982530000000  0.6003480000000 1.0
C      1  0.5154750000000  0.4984620000000  0.4698840000000 1.0
C      1  0.5692480000000  0.5662670000000  0.5213680000000 1.0
C      1  0.5753800000000  0.5113970000000  0.5113360000000 1.0
C      1  0.4383060000000  0.5091100000000  0.4268230000000 1.0
C      1  0.5531500000000  0.5318300000000  0.5434650000000 1.0
C      1  0.5108890000000  0.4923780000000  0.5754770000000 1.0
C      1  0.4220770000000  0.4750880000000  0.5581030000000 1.0
C      1  0.4004160000000  0.4776600000000  0.4257760000000 1.0
C      1  0.5849370000000  0.4633750000000  0.5104910000000 1.0
C      1  0.4751530000000  0.4045690000000  0.4802440000000 1.0
C      1  0.5312480000000  0.5329760000000  0.5248670000000 1.0
C      1  0.5208090000000  0.5096760000000  0.5146840000000 1.0
C      1  0.5277000000000  0.4697380000000  0.4268980000000 1.0
C      1  0.4990870000000  0.4758040000000  0.4650500000000 1.0
C      1  0.5251870000000  0.5528710000000  0.5715530000000 1.0
C      1  0.5750360000000  0.5372600000000  0.5258680000000 1.0
C      1  0.5493990000000  0.4745920000000  0.5453780000000 1.0
C      1  0.5574980000000  0.5057040000000  0.4356480000000 1.0
C      1  0.4648340000000  0.4257260000000  0.5275570000000 1.0
C      1  0.4269320000000  0.4471820000000  0.5541950000000 1.0
C      1  0.5223070000000  0.5415600000000  0.4231460000000 1.0
C      1  0.5539550000000  0.4763230000000  0.4383220000000 1.0
C      1  0.4670470000000  0.4710980000000  0.5028050000000 1.0
C      1  0.5198490000000  0.5592170000000  0.5209780000000 1.0
C      1  0.5389550000000  0.4373940000000  0.5132220000000 1.0
C      1  0.5420600000000  0.5764990000000  0.5308190000000 1.0
C      1  0.5475780000000  0.5337720000000  0.5711560000000 1.0
C      1  0.4387200000000  0.4674300000000  0.5119510000000 1.0
C      1  0.4928260000000  0.5555530000000  0.5327300000000 1.0
C      1  0.4748490000000  0.5755650000000  0.4629450000000 1.0
C      1  0.4475650000000  0.5371440000000  0.5170180000000 1.0
C      1  0.5078280000000  0.4585250000000  0.4440830000000 1.0
C      1  0.5136070000000  0.4378670000000  0.5537560000000 1.0
C      1  0.4999360000000  0.4998250000000  0.5305600000000 1.0
C      1  0.5334130000000  0.5675810000000  0.4620340000000 1.0
C      1  0.5332230000000  0.5018080000000  0.4907360000000 1.0
C      1  0.5188760000000  0.5883640000000  0.4517040000000 1.0
C      1  0.4990920000000  0.5110790000000  0.5570730000000 1.0
C      1  0.5341040000000  0.4504210000000  0.5376230000000 1.0
C      1  0.4972920000000  0.4817220000000  0.5965940000000 1.0
C      1  0.4974920000000  0.5583740000000  0.4193420000000 1.0
C      1  0.4192490000000  0.4706330000000  0.4885770000000 1.0
C      1  0.6034480000000  0.4475040000000  0.5229790000000 1.0
C      1  0.4879890000000  0.4312430000000  0.5432000000000 1.0
C      1  0.4096930000000  0.4867300000000  0.5798850000000 1.0
C      1  0.4864070000000  0.4129580000000  0.4576130000000 1.0
C      1  0.4772410000000  0.5211340000000  0.4531450000000 1.0
C      1  0.4675090000000  0.4086730000000  0.5054110000000 1.0
C      1  0.5219410000000  0.4923010000000  0.4091920000000 1.0
C      1  0.4720010000000  0.5692160000000  0.4893090000000 1.0
END
