TITL C-599894-471-1061 -0.000198203821076534 125000 -132.948363120231 0 0 23 (C1) n - 1
REM
REM in /home/nfs/bkarasulu/CARBON/AIRSS/Generating-Clusters/TERSOFF/Only-C1/FIRE-HFTN
REM
REM
REM
REM
REM
REM ./C.cell (11c1c37f851c82e70ff6c80c92926a4b)
REM AIRSS Version 0.9.1 bugfix July 2018 build 013d7b7c2542+ Fri, 06 Jul 2018 19:26:36 +0100
REM compiler GCC version 9.2.1 20190827 (Red Hat 9.2.1-1)
REM options -cpp -mtune=generic -march=x86-64 -g -O0 -fpre-include=/usr/include/finclude/math-vector-fortran.h
REM seed -577410752 -1152058217 671958636 -1356437678 -1100788597 -1984258223 85899645 1918284764 258762160 817229574 -1576842556 1536446878 -1442693020 -2006194793 -865996152 592193143 -548962168 -605346761 1543002500 -1188402695 427134432 -504574868 -44287542 -1431935895 -1628711189 -1626218181 -233104027 3982206 -910800931 239815927 -375898928 1759408572 213951399
REM
CELL 1.54180   50.00000   50.00000   50.00000   90.00000   90.00000   90.00000
LATT -1
SFAC C  
C      1  0.4860790000000  0.5052540000000  0.5493970000000 1.0
C      1  0.4825200000000  0.5615610000000  0.5143160000000 1.0
C      1  0.5426990000000  0.5185730000000  0.4994810000000 1.0
C      1  0.5200740000000  0.4319110000000  0.4979380000000 1.0
C      1  0.5101320000000  0.5217550000000  0.4627420000000 1.0
C      1  0.4874560000000  0.5524360000000  0.5390080000000 1.0
C      1  0.5205780000000  0.4788140000000  0.4844630000000 1.0
C      1  0.4773290000000  0.4860950000000  0.5307620000000 1.0
C      1  0.5192950000000  0.5270300000000  0.4375100000000 1.0
C      1  0.5355160000000  0.3821320000000  0.4911110000000 1.0
C      1  0.4834650000000  0.5538790000000  0.4887630000000 1.0
C      1  0.5283330000000  0.5286660000000  0.5464410000000 1.0
C      1  0.4486060000000  0.5162660000000  0.4428630000000 1.0
C      1  0.4849000000000  0.5318160000000  0.4714450000000 1.0
C      1  0.4946050000000  0.4655710000000  0.5224500000000 1.0
C      1  0.5256590000000  0.5061800000000  0.4808690000000 1.0
C      1  0.5444430000000  0.5254720000000  0.5252490000000 1.0
C      1  0.4510300000000  0.5026860000000  0.4893010000000 1.0
C      1  0.5003050000000  0.5295620000000  0.5492990000000 1.0
C      1  0.5119080000000  0.4582730000000  0.5015450000000 1.0
C      1  0.5278570000000  0.4068200000000  0.4944970000000 1.0
C      1  0.4561800000000  0.4924840000000  0.5133940000000 1.0
C      1  0.4610320000000  0.5167660000000  0.4671560000000 1.0
END
