TITL C-599894-471-1214 1.02008141654478e-05 125000 -624.920873336891 0 0 102 (C1) n - 1
REM
REM in /home/nfs/bkarasulu/CARBON/AIRSS/Generating-Clusters/TERSOFF/Only-C1/FIRE-HFTN
REM
REM
REM
REM
REM
REM ./C.cell (11c1c37f851c82e70ff6c80c92926a4b)
REM AIRSS Version 0.9.1 bugfix July 2018 build 013d7b7c2542+ Fri, 06 Jul 2018 19:26:36 +0100
REM compiler GCC version 9.2.1 20190827 (Red Hat 9.2.1-1)
REM options -cpp -mtune=generic -march=x86-64 -g -O0 -fpre-include=/usr/include/finclude/math-vector-fortran.h
REM seed 256090391 1084237202 -933977612 -1306823242 -2122539065 835291020 -1222285810 2035583309 -1531773657 42777889 2093314841 -1587508600 1022149160 226603886 990753746 242798181 -1611288531 -1010880871 604316135 -1811197127 365077321 -216019674 169555911 -762731240 -683926594 -1582805640 -2078845315 1183869177 -1639440067 20912748 -752239464 -1808833150 1688913283
REM
CELL 1.54180   50.00000   50.00000   50.00000   90.00000   90.00000   90.00000
LATT -1
SFAC C  
C      1  0.4794010000000  0.6006890000000  0.4847950000000 1.0
C      1  0.4365160000000  0.4612910000000  0.5649050000000 1.0
C      1  0.5050370000000  0.5171950000000  0.5693360000000 1.0
C      1  0.5600840000000  0.5142490000000  0.4814590000000 1.0
C      1  0.5694510000000  0.4877640000000  0.5562740000000 1.0
C      1  0.5131600000000  0.5518910000000  0.4378480000000 1.0
C      1  0.4449950000000  0.4351150000000  0.5554960000000 1.0
C      1  0.4611030000000  0.4375380000000  0.4391640000000 1.0
C      1  0.5384800000000  0.4114390000000  0.4535670000000 1.0
C      1  0.4861460000000  0.4804340000000  0.5328170000000 1.0
C      1  0.4988210000000  0.4351870000000  0.4698820000000 1.0
C      1  0.4663260000000  0.4210170000000  0.5460150000000 1.0
C      1  0.4560870000000  0.4822060000000  0.4786950000000 1.0
C      1  0.4571190000000  0.4136390000000  0.4817110000000 1.0
C      1  0.4861890000000  0.5185740000000  0.4972620000000 1.0
C      1  0.4990360000000  0.4923080000000  0.5557240000000 1.0
C      1  0.4957260000000  0.4555920000000  0.4907430000000 1.0
C      1  0.4442390000000  0.5283050000000  0.4389240000000 1.0
C      1  0.4667850000000  0.4596130000000  0.4950990000000 1.0
C      1  0.4658120000000  0.5199330000000  0.4200680000000 1.0
C      1  0.4632080000000  0.5386990000000  0.5587720000000 1.0
C      1  0.5364820000000  0.4281870000000  0.5144410000000 1.0
C      1  0.5343690000000  0.4537280000000  0.4127840000000 1.0
C      1  0.5936810000000  0.4923060000000  0.5073460000000 1.0
C      1  0.4804860000000  0.4577260000000  0.5869380000000 1.0
C      1  0.4938420000000  0.4185780000000  0.5393380000000 1.0
C      1  0.5832220000000  0.5176700000000  0.4995660000000 1.0
C      1  0.4152550000000  0.5364370000000  0.5228340000000 1.0
C      1  0.5397350000000  0.4295970000000  0.5441520000000 1.0
C      1  0.5061190000000  0.4736060000000  0.5117490000000 1.0
C      1  0.5290050000000  0.5166790000000  0.5131870000000 1.0
C      1  0.4221300000000  0.4807950000000  0.5459820000000 1.0
C      1  0.4240170000000  0.5647540000000  0.5263580000000 1.0
C      1  0.5137990000000  0.4292190000000  0.5584760000000 1.0
C      1  0.5664850000000  0.5580900000000  0.4515210000000 1.0
C      1  0.5926980000000  0.5109410000000  0.4465220000000 1.0
C      1  0.5420980000000  0.5318990000000  0.4930470000000 1.0
C      1  0.4732360000000  0.5620760000000  0.4585770000000 1.0
C      1  0.5152360000000  0.5715730000000  0.5334520000000 1.0
C      1  0.5518810000000  0.4713940000000  0.4269520000000 1.0
C      1  0.5454980000000  0.4928590000000  0.4680090000000 1.0
C      1  0.4669290000000  0.5435610000000  0.5307360000000 1.0
C      1  0.5526790000000  0.4720120000000  0.5164560000000 1.0
C      1  0.6269410000000  0.4618390000000  0.4872770000000 1.0
C      1  0.5667950000000  0.5598130000000  0.5291010000000 1.0
C      1  0.5443710000000  0.5707830000000  0.4661690000000 1.0
C      1  0.5034110000000  0.5639150000000  0.5810390000000 1.0
C      1  0.5822910000000  0.5364250000000  0.4453550000000 1.0
C      1  0.4444030000000  0.5040110000000  0.4941070000000 1.0
C      1  0.5329870000000  0.5162090000000  0.5796730000000 1.0
C      1  0.4557020000000  0.4728060000000  0.5833080000000 1.0
C      1  0.4369290000000  0.4532590000000  0.4473960000000 1.0
C      1  0.4605260000000  0.4713770000000  0.5225670000000 1.0
C      1  0.5184590000000  0.4296990000000  0.4503710000000 1.0
C      1  0.6055040000000  0.4787090000000  0.4841230000000 1.0
C      1  0.5065650000000  0.4511490000000  0.5752880000000 1.0
C      1  0.4852270000000  0.4976630000000  0.4262490000000 1.0
C      1  0.4948550000000  0.5526580000000  0.5258730000000 1.0
C      1  0.4432830000000  0.4808100000000  0.4527360000000 1.0
C      1  0.5549090000000  0.4639420000000  0.4721920000000 1.0
C      1  0.4602830000000  0.5224700000000  0.5091880000000 1.0
C      1  0.5363200000000  0.4941480000000  0.4392000000000 1.0
C      1  0.4209610000000  0.5124720000000  0.4789850000000 1.0
C      1  0.4353840000000  0.5771230000000  0.5020250000000 1.0
C      1  0.5204910000000  0.4747820000000  0.5673750000000 1.0
C      1  0.5726000000000  0.4636820000000  0.4482100000000 1.0
C      1  0.4735920000000  0.4228240000000  0.4611040000000 1.0
C      1  0.4510180000000  0.5006650000000  0.5863130000000 1.0
C      1  0.4838880000000  0.5369420000000  0.4043730000000 1.0
C      1  0.5448500000000  0.4909120000000  0.5711370000000 1.0
C      1  0.4921400000000  0.5410950000000  0.4547980000000 1.0
C      1  0.4293470000000  0.5066450000000  0.4511640000000 1.0
C      1  0.5191390000000  0.5767110000000  0.4529520000000 1.0
C      1  0.5115480000000  0.5344450000000  0.4153660000000 1.0
C      1  0.4432760000000  0.5199480000000  0.5664100000000 1.0
C      1  0.4917350000000  0.5186030000000  0.4704580000000 1.0
C      1  0.5117730000000  0.4409830000000  0.4245500000000 1.0
C      1  0.4134690000000  0.5360600000000  0.4920970000000 1.0
C      1  0.4486160000000  0.4349540000000  0.4972160000000 1.0
C      1  0.4295070000000  0.4689510000000  0.5205600000000 1.0
C      1  0.4228630000000  0.4488800000000  0.4982860000000 1.0
C      1  0.5300510000000  0.4884070000000  0.5149430000000 1.0
C      1  0.5093800000000  0.4157180000000  0.5140330000000 1.0
C      1  0.4234040000000  0.5114200000000  0.5463500000000 1.0
C      1  0.5236810000000  0.5587110000000  0.6003880000000 1.0
C      1  0.5941150000000  0.4834350000000  0.4568140000000 1.0
C      1  0.4285810000000  0.5587230000000  0.4799380000000 1.0
C      1  0.5503280000000  0.4496760000000  0.4981990000000 1.0
C      1  0.5395910000000  0.5367950000000  0.5976680000000 1.0
C      1  0.5407530000000  0.5601090000000  0.4923050000000 1.0
C      1  0.4161620000000  0.4478760000000  0.4690840000000 1.0
C      1  0.5764410000000  0.4814000000000  0.5287380000000 1.0
C      1  0.4829080000000  0.4429630000000  0.4201180000000 1.0
C      1  0.4564120000000  0.5957870000000  0.4986430000000 1.0
C      1  0.4914120000000  0.5848570000000  0.4645280000000 1.0
C      1  0.5047850000000  0.5288000000000  0.5149440000000 1.0
C      1  0.5140870000000  0.5058430000000  0.4250520000000 1.0
C      1  0.5827910000000  0.5404520000000  0.5175620000000 1.0
C      1  0.5410420000000  0.5700430000000  0.5195790000000 1.0
C      1  0.4461960000000  0.5528800000000  0.4566800000000 1.0
C      1  0.5110080000000  0.5812140000000  0.5596940000000 1.0
C      1  0.4883090000000  0.5401660000000  0.5731710000000 1.0
END
