TITL C-599895-9959-1086 -0.00287190952386926 125000 -651.854382322551 0 0 107 (C1) n - 1
REM
REM in /home/nfs/bkarasulu/CARBON/AIRSS/Generating-Clusters/TERSOFF/Only-C1/FIRE-HFTN
REM
REM
REM
REM
REM
REM ./C.cell (11c1c37f851c82e70ff6c80c92926a4b)
REM AIRSS Version 0.9.1 bugfix July 2018 build 013d7b7c2542+ Fri, 06 Jul 2018 19:26:36 +0100
REM compiler GCC version 9.2.1 20190827 (Red Hat 9.2.1-1)
REM options -cpp -mtune=generic -march=x86-64 -g -O0 -fpre-include=/usr/include/finclude/math-vector-fortran.h
REM seed 752750675 2050269799 232870608 -903764830 1574172951 1082433191 1088560422 -715594404 255705100 860464024 -236469704 1305212462 -93502082 1126325780 -1686990577 1672317487 -1166814292 -1907064543 -171688503 1494652477 2104775802 1215849102 -22628242 948337888 909233497 -329742594 232164061 1127180844 -968994591 -1644184517 -490229177 342560439 -1413276314
REM
CELL 1.54180   50.00000   50.00000   50.00000   90.00000   90.00000   90.00000
LATT -1
SFAC C  
C      1  0.5078220000000  0.4141140000000  0.5226910000000 1.0
C      1  0.5448920000000  0.5887380000000  0.4522690000000 1.0
C      1  0.4909230000000  0.5876830000000  0.4787700000000 1.0
C      1  0.4623940000000  0.4216320000000  0.5577220000000 1.0
C      1  0.5030270000000  0.4720600000000  0.4213180000000 1.0
C      1  0.4601410000000  0.5413300000000  0.5805140000000 1.0
C      1  0.5425110000000  0.5088280000000  0.4602760000000 1.0
C      1  0.5589890000000  0.4309500000000  0.5275150000000 1.0
C      1  0.5344700000000  0.5021010000000  0.5328420000000 1.0
C      1  0.5165790000000  0.4862570000000  0.4954660000000 1.0
C      1  0.4759300000000  0.5097770000000  0.5280170000000 1.0
C      1  0.5903830000000  0.5279110000000  0.4364330000000 1.0
C      1  0.5293660000000  0.4560120000000  0.4638710000000 1.0
C      1  0.5176970000000  0.5924430000000  0.4421420000000 1.0
C      1  0.4167260000000  0.4901530000000  0.4928360000000 1.0
C      1  0.5937890000000  0.5507180000000  0.5075340000000 1.0
C      1  0.4804390000000  0.4869750000000  0.5419300000000 1.0
C      1  0.5305020000000  0.5229430000000  0.4393670000000 1.0
C      1  0.5740840000000  0.5683170000000  0.5204620000000 1.0
C      1  0.5312870000000  0.5109580000000  0.4873680000000 1.0
C      1  0.5354630000000  0.4173590000000  0.5315760000000 1.0
C      1  0.5458140000000  0.4687750000000  0.5609540000000 1.0
C      1  0.4919930000000  0.4070860000000  0.4721140000000 1.0
C      1  0.4569080000000  0.4008520000000  0.5751040000000 1.0
C      1  0.5074630000000  0.5511820000000  0.5069970000000 1.0
C      1  0.4247720000000  0.5181520000000  0.5382090000000 1.0
C      1  0.4929970000000  0.4242950000000  0.4256520000000 1.0
C      1  0.4961100000000  0.4973780000000  0.4098560000000 1.0
C      1  0.5746620000000  0.5121820000000  0.5667140000000 1.0
C      1  0.4347340000000  0.5404380000000  0.5227550000000 1.0
C      1  0.5634690000000  0.4902040000000  0.4552810000000 1.0
C      1  0.4776960000000  0.5598740000000  0.4418230000000 1.0
C      1  0.5711200000000  0.4838770000000  0.5573060000000 1.0
C      1  0.5493650000000  0.5561770000000  0.5698760000000 1.0
C      1  0.4805830000000  0.4082960000000  0.4458430000000 1.0
C      1  0.4397810000000  0.5236800000000  0.4422970000000 1.0
C      1  0.4849760000000  0.4174170000000  0.5399950000000 1.0
C      1  0.4437860000000  0.4885980000000  0.5006920000000 1.0
C      1  0.4881830000000  0.4874270000000  0.4640320000000 1.0
C      1  0.5115480000000  0.5247270000000  0.5995570000000 1.0
C      1  0.6109350000000  0.5578720000000  0.4877060000000 1.0
C      1  0.4192970000000  0.4306960000000  0.4942680000000 1.0
C      1  0.4287990000000  0.5320310000000  0.4676280000000 1.0
C      1  0.4337720000000  0.4413020000000  0.4116650000000 1.0
C      1  0.4658000000000  0.5740610000000  0.5132310000000 1.0
C      1  0.3963320000000  0.4727030000000  0.4900390000000 1.0
C      1  0.4580060000000  0.4476360000000  0.4696270000000 1.0
C      1  0.4578420000000  0.4568670000000  0.4147160000000 1.0
C      1  0.4686460000000  0.5745960000000  0.4647830000000 1.0
C      1  0.5782320000000  0.5032310000000  0.5131990000000 1.0
C      1  0.4585710000000  0.5185190000000  0.5944400000000 1.0
C      1  0.5804360000000  0.4783710000000  0.5289920000000 1.0
C      1  0.4845170000000  0.5113840000000  0.4805830000000 1.0
C      1  0.5860710000000  0.5021910000000  0.4435250000000 1.0
C      1  0.5200840000000  0.4432930000000  0.4886410000000 1.0
C      1  0.4555480000000  0.5586990000000  0.5351170000000 1.0
C      1  0.5739060000000  0.4528500000000  0.5154460000000 1.0
C      1  0.4652710000000  0.5077070000000  0.5016650000000 1.0
C      1  0.4702250000000  0.5584940000000  0.5602300000000 1.0
C      1  0.5071290000000  0.5298120000000  0.4876290000000 1.0
C      1  0.4454000000000  0.4412880000000  0.4938530000000 1.0
C      1  0.5506950000000  0.5106210000000  0.5100100000000 1.0
C      1  0.5534320000000  0.5937120000000  0.4785790000000 1.0
C      1  0.5689050000000  0.5579740000000  0.5476800000000 1.0
C      1  0.4534510000000  0.4024370000000  0.4389920000000 1.0
C      1  0.5212610000000  0.4628080000000  0.5104440000000 1.0
C      1  0.5576820000000  0.4639870000000  0.4650770000000 1.0
C      1  0.4335300000000  0.5458710000000  0.4922710000000 1.0
C      1  0.4107910000000  0.4586850000000  0.4103470000000 1.0
C      1  0.5858590000000  0.5322160000000  0.5484010000000 1.0
C      1  0.4510820000000  0.5686090000000  0.4877210000000 1.0
C      1  0.5315170000000  0.4612310000000  0.5837640000000 1.0
C      1  0.5309300000000  0.4731450000000  0.5360350000000 1.0
C      1  0.5581800000000  0.5298680000000  0.5831450000000 1.0
C      1  0.5051100000000  0.5668480000000  0.4342110000000 1.0
C      1  0.4247300000000  0.4938770000000  0.5507920000000 1.0
C      1  0.5608500000000  0.5863280000000  0.5033600000000 1.0
C      1  0.5731890000000  0.4538270000000  0.4867560000000 1.0
C      1  0.5938070000000  0.5254790000000  0.5213900000000 1.0
C      1  0.5143510000000  0.5434220000000  0.5329950000000 1.0
C      1  0.4853790000000  0.4748130000000  0.6038480000000 1.0
C      1  0.5533790000000  0.5646790000000  0.4380910000000 1.0
C      1  0.5121440000000  0.5145910000000  0.5743660000000 1.0
C      1  0.4447700000000  0.4446350000000  0.5598480000000 1.0
C      1  0.4649260000000  0.5356830000000  0.4319970000000 1.0
C      1  0.3968590000000  0.4456740000000  0.4914930000000 1.0
C      1  0.4935970000000  0.5757250000000  0.5045650000000 1.0
C      1  0.5099240000000  0.4730200000000  0.4495740000000 1.0
C      1  0.5287650000000  0.5496660000000  0.4321600000000 1.0
C      1  0.4519850000000  0.4626030000000  0.5112700000000 1.0
C      1  0.5087250000000  0.4632340000000  0.5976980000000 1.0
C      1  0.4645090000000  0.4724960000000  0.4582750000000 1.0
C      1  0.4859110000000  0.4495490000000  0.4147080000000 1.0
C      1  0.5224440000000  0.5654020000000  0.5790360000000 1.0
C      1  0.4673110000000  0.4945490000000  0.6026120000000 1.0
C      1  0.4100410000000  0.4851750000000  0.4183230000000 1.0
C      1  0.4528010000000  0.4780580000000  0.4335940000000 1.0
C      1  0.4324980000000  0.4978860000000  0.4308710000000 1.0
C      1  0.5163910000000  0.5512570000000  0.6035620000000 1.0
C      1  0.4968550000000  0.5704670000000  0.5651040000000 1.0
C      1  0.4314130000000  0.4684880000000  0.5584110000000 1.0
C      1  0.5056030000000  0.4193360000000  0.4939450000000 1.0
C      1  0.4807370000000  0.5191450000000  0.4145950000000 1.0
C      1  0.4354590000000  0.4153830000000  0.4231530000000 1.0
C      1  0.4720530000000  0.4638240000000  0.5308820000000 1.0
C      1  0.5781230000000  0.5518390000000  0.4352530000000 1.0
C      1  0.5198470000000  0.5203960000000  0.5478400000000 1.0
END
