TITL C-599896-8500-932 1.02840752894403 125000 -198.881418285388 0 0 36 (C1) n - 1
REM
REM in /home/nfs/bkarasulu/CARBON/AIRSS/Generating-Clusters/TERSOFF/Only-C1/FIRE-HFTN
REM
REM
REM
REM
REM
REM ./C.cell (11c1c37f851c82e70ff6c80c92926a4b)
REM AIRSS Version 0.9.1 bugfix July 2018 build 013d7b7c2542+ Fri, 06 Jul 2018 19:26:36 +0100
REM compiler GCC version 9.2.1 20190827 (Red Hat 9.2.1-1)
REM options -cpp -mtune=generic -march=x86-64 -g -O0 -fpre-include=/usr/include/finclude/math-vector-fortran.h
REM seed -225366865 -807799700 -1490747957 -2014517992 1641846612 969275255 -1847428434 -1281688802 -1151066050 1153802887 1585344343 1557514651 -363748954 -77873399 -2023831790 -492900296 1956051051 1747050372 -318801349 1913488191 512785944 180535265 -1849782441 -620330164 1870677691 1398038225 833995546 13532913 281980112 1834096466 935763326 2084677575 -1855803411
REM
CELL 1.54180   50.00000   50.00000   50.00000   90.00000   90.00000   90.00000
LATT -1
SFAC C  
C      1  0.5682480000000  0.5463080000000  0.5148670000000 1.0
C      1  0.4998370000000  0.5264740000000  0.5529030000000 1.0
C      1  0.4337630000000  0.5065840000000  0.4130680000000 1.0
C      1  0.3868500000000  0.4033210000000  0.4694600000000 1.0
C      1  0.5560030000000  0.5650160000000  0.5324000000000 1.0
C      1  0.5152890000000  0.5219560000000  0.4689890000000 1.0
C      1  0.6198630000000  0.5144090000000  0.5526390000000 1.0
C      1  0.4494160000000  0.4685350000000  0.5333850000000 1.0
C      1  0.5453160000000  0.5555790000000  0.5569920000000 1.0
C      1  0.3685880000000  0.3853360000000  0.4742180000000 1.0
C      1  0.4894230000000  0.4590980000000  0.4751520000000 1.0
C      1  0.4810360000000  0.5089810000000  0.5463590000000 1.0
C      1  0.4943860000000  0.5233400000000  0.4527420000000 1.0
C      1  0.4240620000000  0.4399660000000  0.4605150000000 1.0
C      1  0.5449940000000  0.4775640000000  0.5200320000000 1.0
C      1  0.4438610000000  0.4594830000000  0.4577760000000 1.0
C      1  0.6094590000000  0.5286170000000  0.5334280000000 1.0
C      1  0.4711130000000  0.4517180000000  0.4553410000000 1.0
C      1  0.4204260000000  0.4974900000000  0.4766580000000 1.0
C      1  0.5209600000000  0.5419060000000  0.5570780000000 1.0
C      1  0.4054270000000  0.4216140000000  0.4646850000000 1.0
C      1  0.4470830000000  0.5037660000000  0.4367730000000 1.0
C      1  0.4352230000000  0.4473020000000  0.5281600000000 1.0
C      1  0.6108700000000  0.5571020000000  0.4947130000000 1.0
C      1  0.4367340000000  0.4870090000000  0.4573170000000 1.0
C      1  0.5088730000000  0.4701910000000  0.4893240000000 1.0
C      1  0.5594200000000  0.5595900000000  0.5807480000000 1.0
C      1  0.5738410000000  0.5629150000000  0.6021980000000 1.0
C      1  0.4644270000000  0.4895260000000  0.5394360000000 1.0
C      1  0.5965530000000  0.5441350000000  0.5140810000000 1.0
C      1  0.5324370000000  0.5128510000000  0.4891090000000 1.0
C      1  0.5289980000000  0.4866370000000  0.4997560000000 1.0
C      1  0.5542710000000  0.5914650000000  0.5256330000000 1.0
C      1  0.4793850000000  0.4374420000000  0.4334980000000 1.0
C      1  0.4712090000000  0.5171110000000  0.4414850000000 1.0
C      1  0.5523560000000  0.5296640000000  0.4990840000000 1.0
END
