TITL C-599894-471-321 0.00696336130836839 125000 -536.235590236443 0 0 88 (C1) n - 1
REM
REM in /home/nfs/bkarasulu/CARBON/AIRSS/Generating-Clusters/TERSOFF/Only-C1/FIRE-HFTN
REM
REM
REM
REM
REM
REM ./C.cell (11c1c37f851c82e70ff6c80c92926a4b)
REM AIRSS Version 0.9.1 bugfix July 2018 build 013d7b7c2542+ Fri, 06 Jul 2018 19:26:36 +0100
REM compiler GCC version 9.2.1 20190827 (Red Hat 9.2.1-1)
REM options -cpp -mtune=generic -march=x86-64 -g -O0 -fpre-include=/usr/include/finclude/math-vector-fortran.h
REM seed 1970381093 -1168785605 -872095825 -720293450 1650397856 796760146 -1491411127 1041527164 -138625615 1454896338 -1029848884 -536431937 2137349206 -959840986 1800164374 -361897470 -155788300 191178870 -1903766636 -1665499370 -1331694875 222908885 -181577655 -387996199 355408744 847689195 1952497933 -1087733269 569392332 1976714647 708620917 -783286011 -481920633
REM
CELL 1.54180   50.00000   50.00000   50.00000   90.00000   90.00000   90.00000
LATT -1
SFAC C  
C      1  0.6043810000000  0.4999420000000  0.4547950000000 1.0
C      1  0.4648230000000  0.5752340000000  0.4905350000000 1.0
C      1  0.5957900000000  0.4995660000000  0.5020750000000 1.0
C      1  0.4528280000000  0.5618960000000  0.4369260000000 1.0
C      1  0.5330140000000  0.5163940000000  0.5018200000000 1.0
C      1  0.4385010000000  0.5243400000000  0.4929680000000 1.0
C      1  0.4510560000000  0.4154660000000  0.4887850000000 1.0
C      1  0.5651400000000  0.5185790000000  0.5340290000000 1.0
C      1  0.5276170000000  0.5240230000000  0.5712660000000 1.0
C      1  0.5492070000000  0.4624740000000  0.4316900000000 1.0
C      1  0.5842040000000  0.4406750000000  0.4616270000000 1.0
C      1  0.4868510000000  0.4495900000000  0.5781140000000 1.0
C      1  0.5549910000000  0.4732970000000  0.5286130000000 1.0
C      1  0.5114990000000  0.5656180000000  0.5516360000000 1.0
C      1  0.5917740000000  0.5418890000000  0.4746450000000 1.0
C      1  0.5246500000000  0.4359700000000  0.5170020000000 1.0
C      1  0.5688560000000  0.5586900000000  0.4766150000000 1.0
C      1  0.5231180000000  0.5802600000000  0.5325420000000 1.0
C      1  0.4665810000000  0.5349820000000  0.5299330000000 1.0
C      1  0.4888290000000  0.4345600000000  0.4653010000000 1.0
C      1  0.4170780000000  0.5207100000000  0.6280550000000 1.0
C      1  0.4509240000000  0.4854010000000  0.4207350000000 1.0
C      1  0.5374360000000  0.4602370000000  0.5079320000000 1.0
C      1  0.4225830000000  0.4778310000000  0.5409260000000 1.0
C      1  0.4574610000000  0.5146020000000  0.5118570000000 1.0
C      1  0.4905820000000  0.4661410000000  0.5348780000000 1.0
C      1  0.5298150000000  0.4772020000000  0.5819480000000 1.0
C      1  0.5761790000000  0.4937440000000  0.5218410000000 1.0
C      1  0.5330610000000  0.5772520000000  0.5064760000000 1.0
C      1  0.5649450000000  0.4447600000000  0.4436440000000 1.0
C      1  0.4822290000000  0.5291950000000  0.4665430000000 1.0
C      1  0.5141500000000  0.5073310000000  0.5200770000000 1.0
C      1  0.4225340000000  0.4713060000000  0.4904450000000 1.0
C      1  0.5008900000000  0.4712390000000  0.4363380000000 1.0
C      1  0.4920750000000  0.4986740000000  0.5934740000000 1.0
C      1  0.4601130000000  0.5390790000000  0.4197210000000 1.0
C      1  0.6020430000000  0.4842560000000  0.4787290000000 1.0
C      1  0.5553780000000  0.5592410000000  0.5023210000000 1.0
C      1  0.4127910000000  0.5029880000000  0.5501020000000 1.0
C      1  0.4112380000000  0.5095640000000  0.5770410000000 1.0
C      1  0.4607120000000  0.4275830000000  0.4648370000000 1.0
C      1  0.4443290000000  0.4610770000000  0.5494910000000 1.0
C      1  0.4130580000000  0.5278180000000  0.5044020000000 1.0
C      1  0.5236580000000  0.4730590000000  0.3918720000000 1.0
C      1  0.4985780000000  0.4639860000000  0.4667270000000 1.0
C      1  0.4804950000000  0.5256800000000  0.5540480000000 1.0
C      1  0.5087130000000  0.5371660000000  0.4602700000000 1.0
C      1  0.4953900000000  0.4285690000000  0.5597200000000 1.0
C      1  0.4362880000000  0.4621280000000  0.4293580000000 1.0
C      1  0.4641020000000  0.5612250000000  0.5167680000000 1.0
C      1  0.5060150000000  0.5395030000000  0.5602760000000 1.0
C      1  0.5995470000000  0.4565530000000  0.4767250000000 1.0
C      1  0.4442470000000  0.4350250000000  0.5370880000000 1.0
C      1  0.5457010000000  0.4813300000000  0.5573040000000 1.0
C      1  0.5492700000000  0.5117020000000  0.5566120000000 1.0
C      1  0.5253370000000  0.4726060000000  0.4828900000000 1.0
C      1  0.4781980000000  0.4786910000000  0.4215920000000 1.0
C      1  0.4736700000000  0.4938940000000  0.5027170000000 1.0
C      1  0.4716800000000  0.4704900000000  0.5589770000000 1.0
C      1  0.4128490000000  0.4709440000000  0.5152120000000 1.0
C      1  0.4715480000000  0.4778660000000  0.4800720000000 1.0
C      1  0.5151210000000  0.5798130000000  0.4840780000000 1.0
C      1  0.5079220000000  0.4617800000000  0.5910110000000 1.0
C      1  0.5331330000000  0.5006320000000  0.4778900000000 1.0
C      1  0.5267430000000  0.5081130000000  0.4269300000000 1.0
C      1  0.4889120000000  0.5895950000000  0.4861720000000 1.0
C      1  0.4867440000000  0.5374670000000  0.4091950000000 1.0
C      1  0.5195330000000  0.5044050000000  0.5902890000000 1.0
C      1  0.5985280000000  0.5264230000000  0.4517090000000 1.0
C      1  0.4761830000000  0.4997410000000  0.5694690000000 1.0
C      1  0.4524540000000  0.5630600000000  0.4661450000000 1.0
C      1  0.5500520000000  0.5636060000000  0.4556890000000 1.0
C      1  0.4463290000000  0.4198490000000  0.5149480000000 1.0
C      1  0.4946500000000  0.4882000000000  0.5195060000000 1.0
C      1  0.5331960000000  0.4113190000000  0.5090860000000 1.0
C      1  0.4458990000000  0.5136580000000  0.4193100000000 1.0
C      1  0.5219890000000  0.5625250000000  0.4622300000000 1.0
C      1  0.4438720000000  0.4489640000000  0.4535410000000 1.0
C      1  0.5523420000000  0.5336470000000  0.5136410000000 1.0
C      1  0.5262460000000  0.5150920000000  0.4545300000000 1.0
C      1  0.4451410000000  0.4686050000000  0.4744790000000 1.0
C      1  0.5264800000000  0.4781770000000  0.4217130000000 1.0
C      1  0.6008560000000  0.5279240000000  0.4982070000000 1.0
C      1  0.5030520000000  0.4400070000000  0.5345780000000 1.0
C      1  0.4050990000000  0.5211020000000  0.5294550000000 1.0
C      1  0.4545670000000  0.5347340000000  0.4722830000000 1.0
C      1  0.4135010000000  0.5153050000000  0.6028050000000 1.0
C      1  0.5108590000000  0.5251670000000  0.4101500000000 1.0
END
