TITL C-599893-4344-1253 59484.1323743534 125000 -1201.49072706735 0 0 198 (C1) n - 1
REM
REM in /home/nfs/bkarasulu/CARBON/AIRSS/Generating-Clusters/TERSOFF/Only-C1/FIRE-HFTN
REM
REM
REM
REM
REM
REM ./C.cell (11c1c37f851c82e70ff6c80c92926a4b)
REM AIRSS Version 0.9.1 bugfix July 2018 build 013d7b7c2542+ Fri, 06 Jul 2018 19:26:36 +0100
REM compiler GCC version 9.2.1 20190827 (Red Hat 9.2.1-1)
REM options -cpp -mtune=generic -march=x86-64 -g -O0 -fpre-include=/usr/include/finclude/math-vector-fortran.h
REM seed 252358147 -1878435078 677053690 -1694619544 468110839 1365361510 464788523 1700558656 -1850102463 2045462570 -1180205962 -620621543 97805626 432349995 -2123076644 -1202289137 526179199 -290837904 1366427528 -1533046859 1672227122 1120502244 -1647947144 644943983 -2124083638 712487340 -1226569204 1219929059 -1033866977 -2067692646 437409269 2042320725 -681886228
REM
CELL 1.54180   50.00000   50.00000   50.00000   90.00000   90.00000   90.00000
LATT -1
SFAC C  
C      1  0.4744960000000  0.5312580000000  0.4525360000000 1.0
C      1  0.5528030000000  0.4464800000000  0.4647050000000 1.0
C      1  0.5609820000000  0.4510820000000  0.5792550000000 1.0
C      1  0.5189290000000  0.3830460000000  0.4829170000000 1.0
C      1  0.4842520000000  0.4727220000000  0.4914220000000 1.0
C      1  0.5913500000000  0.4911010000000  0.5690870000000 1.0
C      1  0.4929640000000  0.3556870000000  0.5106490000000 1.0
C      1  0.4797670000000  0.4124170000000  0.5506150000000 1.0
C      1  0.5979800000000  0.4680250000000  0.5185610000000 1.0
C      1  0.5082080000000  0.5586200000000  0.4916900000000 1.0
C      1  0.4566890000000  0.5414150000000  0.5035150000000 1.0
C      1  0.5368770000000  0.5401150000000  0.5181670000000 1.0
C      1  0.4333290000000  0.5293920000000  0.4301280000000 1.0
C      1  0.6125850000000  0.5304920000000  0.4455150000000 1.0
C      1  0.5517840000000  0.4983210000000  0.6119350000000 1.0
C      1  0.4744150000000  0.4953750000000  0.6347520000000 1.0
C      1  0.5096250000000  0.5802160000000  0.4734130000000 1.0
C      1  0.4808260000000  0.6040890000000  0.5535430000000 1.0
C      1  0.4768810000000  0.4704220000000  0.5958820000000 1.0
C      1  0.5351520000000  0.5344340000000  0.3761690000000 1.0
C      1  0.5504500000000  0.4136950000000  0.4978740000000 1.0
C      1  0.3943920000000  0.4313200000000  0.4965360000000 1.0
C      1  0.4683910000000  0.4817340000000  0.3835930000000 1.0
C      1  0.6426790000000  0.4771870000000  0.5168750000000 1.0
C      1  0.5017080000000  0.4585860000000  0.5434630000000 1.0
C      1  0.3830050000000  0.4727280000000  0.5472050000000 1.0
C      1  0.4822630000000  0.4968340000000  0.4279910000000 1.0
C      1  0.4330760000000  0.4013800000000  0.5580860000000 1.0
C      1  0.5733460000000  0.5731480000000  0.4228450000000 1.0
C      1  0.5598670000000  0.5385330000000  0.3900640000000 1.0
C      1  0.5243880000000  0.4464480000000  0.4619950000000 1.0
C      1  0.6287980000000  0.5391650000000  0.4955810000000 1.0
C      1  0.6044320000000  0.5176480000000  0.5662240000000 1.0
C      1  0.5324880000000  0.5505580000000  0.4433970000000 1.0
C      1  0.4998870000000  0.3928930000000  0.4615520000000 1.0
C      1  0.5454960000000  0.4029050000000  0.4485420000000 1.0
C      1  0.3737850000000  0.4491600000000  0.5053350000000 1.0
C      1  0.5871920000000  0.4858490000000  0.4294790000000 1.0
C      1  0.5197110000000  0.5985080000000  0.6194740000000 1.0
C      1  0.5624690000000  0.5976130000000  0.4324900000000 1.0
C      1  0.5667200000000  0.5594780000000  0.4859110000000 1.0
C      1  0.4383890000000  0.4086310000000  0.5856530000000 1.0
C      1  0.4282130000000  0.4931720000000  0.5161360000000 1.0
C      1  0.4427040000000  0.4735990000000  0.3966350000000 1.0
C      1  0.4041100000000  0.4854370000000  0.5032750000000 1.0
C      1  0.4912740000000  0.5095210000000  0.5216490000000 1.0
C      1  0.5498530000000  0.5638180000000  0.4633520000000 1.0
C      1  0.5263020000000  0.6313110000000  0.4642340000000 1.0
C      1  0.5015320000000  0.6330760000000  0.4499170000000 1.0
C      1  0.4833190000000  0.5587450000000  0.4312460000000 1.0
C      1  0.5122240000000  0.5501180000000  0.3836910000000 1.0
C      1  0.4102750000000  0.4920100000000  0.5838810000000 1.0
C      1  0.4435590000000  0.4433180000000  0.4023640000000 1.0
C      1  0.4515550000000  0.4009850000000  0.5131710000000 1.0
C      1  0.6113260000000  0.5385060000000  0.4731900000000 1.0
C      1  0.4494050000000  0.4962040000000  0.4972610000000 1.0
C      1  0.5333730000000  0.3802740000000  0.5307100000000 1.0
C      1  0.4312390000000  0.5554630000000  0.5888740000000 1.0
C      1  0.5551410000000  0.4647430000000  0.4870280000000 1.0
C      1  0.5697310000000  0.4792340000000  0.5880740000000 1.0
C      1  0.5870390000000  0.4926020000000  0.4776380000000 1.0
C      1  0.5447570000000  0.6105830000000  0.4532200000000 1.0
C      1  0.6044790000000  0.4771100000000  0.5455390000000 1.0
C      1  0.5521660000000  0.6261380000000  0.5071970000000 1.0
C      1  0.4620800000000  0.5199580000000  0.5752420000000 1.0
C      1  0.5124450000000  0.3863510000000  0.4137250000000 1.0
C      1  0.5096130000000  0.5092900000000  0.5830890000000 1.0
C      1  0.4498810000000  0.5185370000000  0.4501580000000 1.0
C      1  0.4391860000000  0.5524970000000  0.4853800000000 1.0
C      1  0.4132160000000  0.5087070000000  0.5599390000000 1.0
C      1  0.4566470000000  0.3972620000000  0.5416510000000 1.0
C      1  0.4596880000000  0.5003190000000  0.5542460000000 1.0
C      1  0.5238180000000  0.4850500000000  0.3821330000000 1.0
C      1  0.5567320000000  0.4402900000000  0.4159370000000 1.0
C      1  0.5975720000000  0.4758320000000  0.4565320000000 1.0
C      1  0.4481420000000  0.4965910000000  0.6255330000000 1.0
C      1  0.5463730000000  0.4000120000000  0.5478530000000 1.0
C      1  0.3875630000000  0.5385910000000  0.4662080000000 1.0
C      1  0.5288950000000  0.4131690000000  0.5681830000000 1.0
C      1  0.5358890000000  0.4861380000000  0.4865490000000 1.0
C      1  0.5163400000000  0.3714970000000  0.5090340000000 1.0
C      1  0.5085650000000  0.6306000000000  0.5165880000000 1.0
C      1  0.5339010000000  0.5246820000000  0.5800840000000 1.0
C      1  0.5762640000000  0.6370210000000  0.5007840000000 1.0
C      1  0.4191780000000  0.4857280000000  0.4139340000000 1.0
C      1  0.4598010000000  0.6004580000000  0.4414250000000 1.0
C      1  0.5446440000000  0.5566060000000  0.6106010000000 1.0
C      1  0.4110880000000  0.5122590000000  0.4248930000000 1.0
C      1  0.4347560000000  0.5755340000000  0.4730110000000 1.0
C      1  0.4873520000000  0.5262040000000  0.5841970000000 1.0
C      1  0.5368310000000  0.5886060000000  0.4695730000000 1.0
C      1  0.4010410000000  0.4619090000000  0.4573810000000 1.0
C      1  0.5539410000000  0.4859300000000  0.5387860000000 1.0
C      1  0.4660790000000  0.4347470000000  0.4682340000000 1.0
C      1  0.4153220000000  0.4199820000000  0.4454600000000 1.0
C      1  0.4132970000000  0.4431750000000  0.5701050000000 1.0
C      1  0.5420690000000  0.4822170000000  0.4051460000000 1.0
C      1  0.4566370000000  0.4460550000000  0.5247390000000 1.0
C      1  0.4501870000000  0.6177950000000  0.4883340000000 1.0
C      1  0.5029790000000  0.5717170000000  0.4481980000000 1.0
C      1  0.5138610000000  0.4602710000000  0.5712350000000 1.0
C      1  0.5670210000000  0.4689420000000  0.4131710000000 1.0
C      1  0.4125130000000  0.4261880000000  0.5186430000000 1.0
C      1  0.4398840000000  0.5286010000000  0.5910930000000 1.0
C      1  0.6294710000000  0.5354660000000  0.5224950000000 1.0
C      1  0.4854070000000  0.4455520000000  0.4871740000000 1.0
C      1  0.4127990000000  0.4222830000000  0.5480970000000 1.0
C      1  0.5551220000000  0.5611860000000  0.5119210000000 1.0
C      1  0.4525060000000  0.6201430000000  0.5149640000000 1.0
C      1  0.5015520000000  0.4050090000000  0.5666300000000 1.0
C      1  0.5478040000000  0.6076300000000  0.5275990000000 1.0
C      1  0.4630700000000  0.5607220000000  0.5487660000000 1.0
C      1  0.4934780000000  0.4525540000000  0.4271750000000 1.0
C      1  0.6229010000000  0.4625740000000  0.5020130000000 1.0
C      1  0.5410440000000  0.5138770000000  0.4805630000000 1.0
C      1  0.5166950000000  0.5322780000000  0.4805520000000 1.0
C      1  0.3832920000000  0.4725940000000  0.5185040000000 1.0
C      1  0.3873050000000  0.5665230000000  0.5485010000000 1.0
C      1  0.4291320000000  0.5908000000000  0.5479500000000 1.0
C      1  0.4336590000000  0.5006830000000  0.5422750000000 1.0
C      1  0.4108010000000  0.4820010000000  0.4746820000000 1.0
C      1  0.5703470000000  0.5153380000000  0.4771450000000 1.0
C      1  0.4969370000000  0.4715160000000  0.3833900000000 1.0
C      1  0.4400870000000  0.4270300000000  0.5118790000000 1.0
C      1  0.4833820000000  0.4899350000000  0.5410130000000 1.0
C      1  0.5842710000000  0.5391340000000  0.4811180000000 1.0
C      1  0.4536270000000  0.6080200000000  0.5407880000000 1.0
C      1  0.4964240000000  0.5629640000000  0.5163380000000 1.0
C      1  0.5111440000000  0.4365510000000  0.4843900000000 1.0
C      1  0.5320430000000  0.5907080000000  0.5726260000000 1.0
C      1  0.4685030000000  0.5581710000000  0.5212040000000 1.0
C      1  0.5166080000000  0.4605250000000  0.4401260000000 1.0
C      1  0.5181400000000  0.5195300000000  0.5254730000000 1.0
C      1  0.5339620000000  0.5025460000000  0.5406580000000 1.0
C      1  0.4059730000000  0.5794800000000  0.5319920000000 1.0
C      1  0.5918020000000  0.5209980000000  0.4267940000000 1.0
C      1  0.4802320000000  0.6202650000000  0.4391410000000 1.0
C      1  0.5271310000000  0.6333710000000  0.4942340000000 1.0
C      1  0.5592340000000  0.4279980000000  0.4424510000000 1.0
C      1  0.4370710000000  0.5566940000000  0.4221300000000 1.0
C      1  0.4090710000000  0.4627630000000  0.4295280000000 1.0
C      1  0.5759560000000  0.5441260000000  0.4135040000000 1.0
C      1  0.5443600000000  0.3955740000000  0.4770390000000 1.0
C      1  0.3904180000000  0.5559430000000  0.4874290000000 1.0
C      1  0.4408380000000  0.4894590000000  0.4690530000000 1.0
C      1  0.6111040000000  0.4499530000000  0.4779550000000 1.0
C      1  0.4019830000000  0.4340040000000  0.4681170000000 1.0
C      1  0.5481540000000  0.5272430000000  0.6052280000000 1.0
C      1  0.4731940000000  0.4041720000000  0.4690110000000 1.0
C      1  0.6252640000000  0.5186170000000  0.5449310000000 1.0
C      1  0.3969930000000  0.5792800000000  0.5040650000000 1.0
C      1  0.3989940000000  0.4676560000000  0.5710270000000 1.0
C      1  0.5020140000000  0.4921890000000  0.6354910000000 1.0
C      1  0.5012540000000  0.5475050000000  0.4094530000000 1.0
C      1  0.5788190000000  0.4743800000000  0.4986710000000 1.0
C      1  0.4561120000000  0.4612490000000  0.4554310000000 1.0
C      1  0.5197320000000  0.5319440000000  0.4263580000000 1.0
C      1  0.5310150000000  0.4347260000000  0.4006570000000 1.0
C      1  0.6313840000000  0.4903760000000  0.5399250000000 1.0
C      1  0.4916840000000  0.4930080000000  0.4762040000000 1.0
C      1  0.5436120000000  0.5447340000000  0.5627960000000 1.0
C      1  0.4345910000000  0.4369350000000  0.5894750000000 1.0
C      1  0.5020170000000  0.4808630000000  0.5863860000000 1.0
C      1  0.5287560000000  0.4894240000000  0.6282650000000 1.0
C      1  0.5690880000000  0.4421070000000  0.5519020000000 1.0
C      1  0.5517820000000  0.4587540000000  0.5359630000000 1.0
C      1  0.5150570000000  0.6123920000000  0.5468030000000 1.0
C      1  0.4588580000000  0.5745870000000  0.4273310000000 1.0
C      1  0.5553730000000  0.5814890000000  0.5316910000000 1.0
C      1  0.4612730000000  0.3878630000000  0.4905240000000 1.0
C      1  0.5291010000000  0.5082790000000  0.3667950000000 1.0
C      1  0.4229010000000  0.4369540000000  0.4223110000000 1.0
C      1  0.5763550000000  0.4167610000000  0.5097790000000 1.0
C      1  0.4942280000000  0.5195150000000  0.4686940000000 1.0
C      1  0.5272690000000  0.4844500000000  0.4294340000000 1.0
C      1  0.4296820000000  0.5784360000000  0.5745240000000 1.0
C      1  0.3908520000000  0.5222310000000  0.4441170000000 1.0
C      1  0.5965070000000  0.4263640000000  0.4903050000000 1.0
C      1  0.4842210000000  0.5765660000000  0.5600110000000 1.0
C      1  0.4462150000000  0.6001900000000  0.4666790000000 1.0
C      1  0.5277900000000  0.4302180000000  0.5059570000000 1.0
C      1  0.4976720000000  0.4435960000000  0.3987520000000 1.0
C      1  0.3902420000000  0.6039440000000  0.4934190000000 1.0
C      1  0.4555570000000  0.4540540000000  0.5967940000000 1.0
C      1  0.4678630000000  0.5158720000000  0.5049440000000 1.0
C      1  0.4706220000000  0.3615970000000  0.4962780000000 1.0
C      1  0.5096610000000  0.5058600000000  0.4292250000000 1.0
C      1  0.5182290000000  0.3956910000000  0.4386830000000 1.0
C      1  0.5321390000000  0.5824190000000  0.6008860000000 1.0
C      1  0.5475510000000  0.5721960000000  0.5573600000000 1.0
C      1  0.4289630000000  0.5045410000000  0.6046220000000 1.0
C      1  0.4725830000000  0.4702560000000  0.4341610000000 1.0
C      1  0.5334070000000  0.4405930000000  0.5793570000000 1.0
C      1  0.4691830000000  0.4312110000000  0.3939870000000 1.0
C      1  0.5059960000000  0.5677590000000  0.5426730000000 1.0
C      1  0.5264010000000  0.4488360000000  0.5272700000000 1.0
C      1  0.4791490000000  0.4395750000000  0.5407710000000 1.0
C      1  0.5702650000000  0.4160760000000  0.5393400000000 1.0
END
