TITL C-599890-3321-642 0.0061595062857301 125000 -747.969318350794 0 0 121 (C1) n - 1
REM
REM in /home/nfs/bkarasulu/CARBON/AIRSS/Generating-Clusters/TERSOFF/Only-C1/FIRE-HFTN
REM
REM
REM
REM
REM
REM ./C.cell (11c1c37f851c82e70ff6c80c92926a4b)
REM AIRSS Version 0.9.1 bugfix July 2018 build 013d7b7c2542+ Fri, 06 Jul 2018 19:26:36 +0100
REM compiler GCC version 9.2.1 20190827 (Red Hat 9.2.1-1)
REM options -cpp -mtune=generic -march=x86-64 -g -O0 -fpre-include=/usr/include/finclude/math-vector-fortran.h
REM seed -836628008 1560429842 942552496 -1826701564 -475731591 898536406 -2123538786 -510254716 -1820399397 -675660534 717223760 -827800779 -1721020069 851023178 724727899 606870836 1432278693 286977757 -1382572373 495016244 407389754 -2146461928 -2057847153 886523822 -1755665650 736294311 832583696 -1254552402 2024595481 -89043379 -1602327840 1769140352 -1636397457
REM
CELL 1.54180   50.00000   50.00000   50.00000   90.00000   90.00000   90.00000
LATT -1
SFAC C  
C      1  0.5453610000000  0.4451270000000  0.4307330000000 1.0
C      1  0.5646310000000  0.4391330000000  0.4844600000000 1.0
C      1  0.5626890000000  0.5067730000000  0.4431480000000 1.0
C      1  0.6059530000000  0.5030810000000  0.4642590000000 1.0
C      1  0.4104690000000  0.4652120000000  0.4486400000000 1.0
C      1  0.4939360000000  0.5286170000000  0.4414250000000 1.0
C      1  0.4157860000000  0.5461930000000  0.5674680000000 1.0
C      1  0.5035880000000  0.5115340000000  0.6479150000000 1.0
C      1  0.4332640000000  0.4628820000000  0.4085010000000 1.0
C      1  0.5557960000000  0.5496740000000  0.4986940000000 1.0
C      1  0.4294250000000  0.5427340000000  0.5012200000000 1.0
C      1  0.4526870000000  0.6042710000000  0.5074330000000 1.0
C      1  0.5014630000000  0.5054020000000  0.6731640000000 1.0
C      1  0.4483030000000  0.4590050000000  0.5055090000000 1.0
C      1  0.5450070000000  0.4921340000000  0.3960640000000 1.0
C      1  0.4597630000000  0.4199040000000  0.5372450000000 1.0
C      1  0.5483140000000  0.4146430000000  0.5238780000000 1.0
C      1  0.5501140000000  0.5232450000000  0.5095160000000 1.0
C      1  0.4156040000000  0.4247290000000  0.4876750000000 1.0
C      1  0.4900630000000  0.5713220000000  0.4211180000000 1.0
C      1  0.4414850000000  0.5607190000000  0.5679750000000 1.0
C      1  0.5296810000000  0.5811820000000  0.5345630000000 1.0
C      1  0.5133780000000  0.5365420000000  0.5353050000000 1.0
C      1  0.6179920000000  0.5235280000000  0.5539390000000 1.0
C      1  0.5053080000000  0.5450470000000  0.4875860000000 1.0
C      1  0.4763150000000  0.4888930000000  0.5299400000000 1.0
C      1  0.4811270000000  0.5445460000000  0.4223460000000 1.0
C      1  0.4600310000000  0.4948150000000  0.5801030000000 1.0
C      1  0.5055870000000  0.5176640000000  0.6222210000000 1.0
C      1  0.4701380000000  0.6224770000000  0.5477930000000 1.0
C      1  0.5392590000000  0.5705290000000  0.5097200000000 1.0
C      1  0.4774270000000  0.4625040000000  0.5149580000000 1.0
C      1  0.4949940000000  0.5865160000000  0.4447200000000 1.0
C      1  0.4255460000000  0.4458270000000  0.5010700000000 1.0
C      1  0.5369010000000  0.5209720000000  0.5349660000000 1.0
C      1  0.4324540000000  0.4913550000000  0.4163090000000 1.0
C      1  0.5170250000000  0.5605590000000  0.5498390000000 1.0
C      1  0.5143230000000  0.5338070000000  0.4622770000000 1.0
C      1  0.4973180000000  0.4650930000000  0.4913280000000 1.0
C      1  0.5219300000000  0.4811550000000  0.4951050000000 1.0
C      1  0.4613750000000  0.5437750000000  0.5820930000000 1.0
C      1  0.5741130000000  0.4664660000000  0.4766160000000 1.0
C      1  0.5087220000000  0.3989650000000  0.5006870000000 1.0
C      1  0.4741770000000  0.5140500000000  0.5158690000000 1.0
C      1  0.5231120000000  0.5885980000000  0.4505100000000 1.0
C      1  0.5612770000000  0.4371810000000  0.5137890000000 1.0
C      1  0.6193390000000  0.5206630000000  0.4794310000000 1.0
C      1  0.5354680000000  0.4356470000000  0.5854530000000 1.0
C      1  0.4530270000000  0.5408580000000  0.4183000000000 1.0
C      1  0.6236600000000  0.5333140000000  0.5296890000000 1.0
C      1  0.4719900000000  0.4869700000000  0.5576260000000 1.0
C      1  0.4474030000000  0.5721310000000  0.4582730000000 1.0
C      1  0.5029970000000  0.5673220000000  0.5732240000000 1.0
C      1  0.5034820000000  0.4010500000000  0.4727730000000 1.0
C      1  0.4663530000000  0.4209670000000  0.4460510000000 1.0
C      1  0.4742520000000  0.4867270000000  0.4558960000000 1.0
C      1  0.4992280000000  0.5947360000000  0.5026530000000 1.0
C      1  0.4431310000000  0.5836520000000  0.5519210000000 1.0
C      1  0.4249300000000  0.4459020000000  0.4315970000000 1.0
C      1  0.5239480000000  0.4757220000000  0.3911870000000 1.0
C      1  0.5716210000000  0.4807650000000  0.5042860000000 1.0
C      1  0.4988170000000  0.5952760000000  0.5754770000000 1.0
C      1  0.4256010000000  0.4894580000000  0.4448640000000 1.0
C      1  0.5066140000000  0.4569010000000  0.4003690000000 1.0
C      1  0.5254480000000  0.4246560000000  0.4317730000000 1.0
C      1  0.5929030000000  0.4856330000000  0.5798380000000 1.0
C      1  0.4742920000000  0.5987460000000  0.4898530000000 1.0
C      1  0.5702090000000  0.4699980000000  0.5746710000000 1.0
C      1  0.5613130000000  0.5591690000000  0.4718390000000 1.0
C      1  0.4847340000000  0.4619460000000  0.4649100000000 1.0
C      1  0.4479390000000  0.4947640000000  0.4609650000000 1.0
C      1  0.4403000000000  0.4534530000000  0.3839510000000 1.0
C      1  0.4288760000000  0.4092450000000  0.4681750000000 1.0
C      1  0.5504970000000  0.4186550000000  0.4707080000000 1.0
C      1  0.6082810000000  0.5059440000000  0.5715970000000 1.0
C      1  0.4964020000000  0.5314560000000  0.5122030000000 1.0
C      1  0.4958880000000  0.6120330000000  0.5523240000000 1.0
C      1  0.5580950000000  0.4495440000000  0.5895750000000 1.0
C      1  0.5615830000000  0.5035050000000  0.4144380000000 1.0
C      1  0.5142250000000  0.5716460000000  0.4939500000000 1.0
C      1  0.4498760000000  0.3834150000000  0.5045240000000 1.0
C      1  0.6229600000000  0.4772640000000  0.5196740000000 1.0
C      1  0.5552600000000  0.4773420000000  0.5512710000000 1.0
C      1  0.5387330000000  0.5009770000000  0.5549080000000 1.0
C      1  0.4007720000000  0.5466540000000  0.5439390000000 1.0
C      1  0.4509980000000  0.6053190000000  0.5357210000000 1.0
C      1  0.4342790000000  0.5610280000000  0.4806460000000 1.0
C      1  0.4716380000000  0.5881700000000  0.4629970000000 1.0
C      1  0.5812730000000  0.4898670000000  0.4586070000000 1.0
C      1  0.4509690000000  0.3923590000000  0.4780030000000 1.0
C      1  0.4814220000000  0.4377790000000  0.5330280000000 1.0
C      1  0.5231850000000  0.5073570000000  0.5781850000000 1.0
C      1  0.5160730000000  0.4303450000000  0.5678500000000 1.0
C      1  0.4836650000000  0.4425020000000  0.4435000000000 1.0
C      1  0.4896480000000  0.5455160000000  0.5853660000000 1.0
C      1  0.4935550000000  0.5002400000000  0.4410800000000 1.0
C      1  0.5061440000000  0.4271190000000  0.5417970000000 1.0
C      1  0.4197020000000  0.5232530000000  0.5841800000000 1.0
C      1  0.4393830000000  0.5608410000000  0.4332980000000 1.0
C      1  0.5061210000000  0.5233680000000  0.5947790000000 1.0
C      1  0.6246620000000  0.5323130000000  0.5029530000000 1.0
C      1  0.4491050000000  0.5238060000000  0.5078320000000 1.0
C      1  0.4476780000000  0.5184040000000  0.5883340000000 1.0
C      1  0.5205820000000  0.4912720000000  0.4445160000000 1.0
C      1  0.4376620000000  0.4238240000000  0.4442690000000 1.0
C      1  0.5365040000000  0.5144190000000  0.4540730000000 1.0
C      1  0.5992370000000  0.4863490000000  0.5133480000000 1.0
C      1  0.5262130000000  0.4110290000000  0.4569980000000 1.0
C      1  0.4418850000000  0.5167430000000  0.4084400000000 1.0
C      1  0.5100800000000  0.6028160000000  0.5291390000000 1.0
C      1  0.3610900000000  0.4617950000000  0.4693290000000 1.0
C      1  0.5205000000000  0.4106910000000  0.5234360000000 1.0
C      1  0.4070130000000  0.5451150000000  0.5179440000000 1.0
C      1  0.5021600000000  0.4391670000000  0.4223440000000 1.0
C      1  0.5468680000000  0.5764580000000  0.4561350000000 1.0
C      1  0.4509740000000  0.3963410000000  0.5280050000000 1.0
C      1  0.4756730000000  0.4003000000000  0.4644460000000 1.0
C      1  0.5367330000000  0.4689590000000  0.4399070000000 1.0
C      1  0.3853410000000  0.4628320000000  0.4598410000000 1.0
C      1  0.5468790000000  0.4969460000000  0.4988950000000 1.0
C      1  0.5614470000000  0.4628740000000  0.5269310000000 1.0
END
