TITL C-599895-9959-1103 0.00122703053128648 125000 -604.329601390689 0 0 101 (C1) n - 1
REM
REM in /home/nfs/bkarasulu/CARBON/AIRSS/Generating-Clusters/TERSOFF/Only-C1/FIRE-HFTN
REM
REM
REM
REM
REM
REM ./C.cell (11c1c37f851c82e70ff6c80c92926a4b)
REM AIRSS Version 0.9.1 bugfix July 2018 build 013d7b7c2542+ Fri, 06 Jul 2018 19:26:36 +0100
REM compiler GCC version 9.2.1 20190827 (Red Hat 9.2.1-1)
REM options -cpp -mtune=generic -march=x86-64 -g -O0 -fpre-include=/usr/include/finclude/math-vector-fortran.h
REM seed 1190846802 373577715 511166370 1318148474 1935145515 -243317788 76856478 -911751157 -436029121 2120000242 -368915813 1695428943 828225293 307616784 1820864026 434853215 -1447298690 1859780797 -1516805612 1503063329 1097862088 1303866930 1652971299 817657248 -1447936741 746592844 -889149836 1659298807 -1968784101 -264756376 1463994025 228698575 -2081053401
REM
CELL 1.54180   50.00000   50.00000   50.00000   90.00000   90.00000   90.00000
LATT -1
SFAC C  
C      1  0.5073650000000  0.5506220000000  0.6001300000000 1.0
C      1  0.5103070000000  0.4905200000000  0.4877510000000 1.0
C      1  0.5615810000000  0.4726040000000  0.5594600000000 1.0
C      1  0.5528210000000  0.5760540000000  0.4982650000000 1.0
C      1  0.5125170000000  0.5239980000000  0.5875460000000 1.0
C      1  0.5151350000000  0.4611610000000  0.5345040000000 1.0
C      1  0.4878140000000  0.4541290000000  0.4306540000000 1.0
C      1  0.5941140000000  0.4493440000000  0.4989570000000 1.0
C      1  0.4189370000000  0.4941160000000  0.5013620000000 1.0
C      1  0.5704770000000  0.5906730000000  0.5404460000000 1.0
C      1  0.4845160000000  0.5050810000000  0.4270540000000 1.0
C      1  0.4515490000000  0.5364080000000  0.4436010000000 1.0
C      1  0.4774830000000  0.4795110000000  0.4380260000000 1.0
C      1  0.5014190000000  0.4518630000000  0.4059840000000 1.0
C      1  0.4047950000000  0.4499580000000  0.4896250000000 1.0
C      1  0.5401500000000  0.4907850000000  0.5637080000000 1.0
C      1  0.5013510000000  0.5738430000000  0.5845620000000 1.0
C      1  0.4999440000000  0.5094130000000  0.5410590000000 1.0
C      1  0.5011970000000  0.3877880000000  0.4391510000000 1.0
C      1  0.4004010000000  0.5397520000000  0.5367350000000 1.0
C      1  0.6122850000000  0.5234570000000  0.4487860000000 1.0
C      1  0.4745760000000  0.5121500000000  0.5297750000000 1.0
C      1  0.4017640000000  0.4223080000000  0.4918530000000 1.0
C      1  0.4776470000000  0.3810950000000  0.4532970000000 1.0
C      1  0.4747390000000  0.5835300000000  0.5469620000000 1.0
C      1  0.5456900000000  0.4747740000000  0.4007410000000 1.0
C      1  0.5323120000000  0.5132940000000  0.4258280000000 1.0
C      1  0.5905520000000  0.6083910000000  0.5331100000000 1.0
C      1  0.5271190000000  0.5323090000000  0.4466430000000 1.0
C      1  0.5774160000000  0.5483600000000  0.5651180000000 1.0
C      1  0.5247410000000  0.4590260000000  0.3948170000000 1.0
C      1  0.4536910000000  0.5838230000000  0.5911210000000 1.0
C      1  0.5719500000000  0.5552620000000  0.4976840000000 1.0
C      1  0.4265660000000  0.5272030000000  0.4414200000000 1.0
C      1  0.4535730000000  0.5188160000000  0.5474250000000 1.0
C      1  0.5467930000000  0.5856950000000  0.5244120000000 1.0
C      1  0.4355010000000  0.4593180000000  0.5300740000000 1.0
C      1  0.5902550000000  0.5389350000000  0.5417830000000 1.0
C      1  0.4312550000000  0.5689080000000  0.5069130000000 1.0
C      1  0.4980680000000  0.5565450000000  0.4802870000000 1.0
C      1  0.4657560000000  0.4235440000000  0.5418910000000 1.0
C      1  0.5941470000000  0.5049960000000  0.4431300000000 1.0
C      1  0.5750950000000  0.4603970000000  0.4506620000000 1.0
C      1  0.4566140000000  0.5720600000000  0.4991620000000 1.0
C      1  0.4063070000000  0.5170430000000  0.5499410000000 1.0
C      1  0.4785330000000  0.5289750000000  0.4426940000000 1.0
C      1  0.4563040000000  0.4408790000000  0.5228170000000 1.0
C      1  0.4918000000000  0.4332540000000  0.4503340000000 1.0
C      1  0.5607460000000  0.4990560000000  0.4977050000000 1.0
C      1  0.5215690000000  0.5835020000000  0.5383500000000 1.0
C      1  0.5169800000000  0.4870610000000  0.5457560000000 1.0
C      1  0.4396560000000  0.5105350000000  0.4971080000000 1.0
C      1  0.5703300000000  0.5761680000000  0.5650990000000 1.0
C      1  0.5482480000000  0.5842650000000  0.5804860000000 1.0
C      1  0.5873580000000  0.5420310000000  0.5152690000000 1.0
C      1  0.5630670000000  0.5302930000000  0.5815190000000 1.0
C      1  0.4752790000000  0.4831410000000  0.5904930000000 1.0
C      1  0.3972400000000  0.4627680000000  0.4655550000000 1.0
C      1  0.3955890000000  0.3955930000000  0.4858310000000 1.0
C      1  0.4692020000000  0.4809440000000  0.4645800000000 1.0
C      1  0.5405890000000  0.5130900000000  0.5821610000000 1.0
C      1  0.6096190000000  0.6242260000000  0.5250640000000 1.0
C      1  0.5012810000000  0.5407610000000  0.4568390000000 1.0
C      1  0.4719330000000  0.3836460000000  0.5015310000000 1.0
C      1  0.5120080000000  0.4138340000000  0.4422400000000 1.0
C      1  0.4279610000000  0.3716880000000  0.4498600000000 1.0
C      1  0.5588060000000  0.4391370000000  0.4421260000000 1.0
C      1  0.5364100000000  0.4938720000000  0.4901740000000 1.0
C      1  0.5370840000000  0.6023260000000  0.4534640000000 1.0
C      1  0.4668880000000  0.4395430000000  0.4964200000000 1.0
C      1  0.5622730000000  0.4516820000000  0.5401720000000 1.0
C      1  0.4540010000000  0.3693310000000  0.4441320000000 1.0
C      1  0.5442530000000  0.5890960000000  0.4752720000000 1.0
C      1  0.4173610000000  0.4669110000000  0.5089490000000 1.0
C      1  0.4305390000000  0.5032180000000  0.5527340000000 1.0
C      1  0.3987640000000  0.4838840000000  0.4493030000000 1.0
C      1  0.5289140000000  0.6141650000000  0.4317240000000 1.0
C      1  0.4951340000000  0.5796070000000  0.5270340000000 1.0
C      1  0.4085550000000  0.5075390000000  0.4418440000000 1.0
C      1  0.5522340000000  0.4932480000000  0.4213740000000 1.0
C      1  0.5079310000000  0.5079360000000  0.4117040000000 1.0
C      1  0.4826490000000  0.4925090000000  0.4861030000000 1.0
C      1  0.5360640000000  0.4440260000000  0.5320510000000 1.0
C      1  0.5386930000000  0.4217690000000  0.4406790000000 1.0
C      1  0.4849540000000  0.5700760000000  0.5015850000000 1.0
C      1  0.3767660000000  0.3823070000000  0.5006120000000 1.0
C      1  0.4750050000000  0.3962510000000  0.4774900000000 1.0
C      1  0.5227650000000  0.5834670000000  0.5681620000000 1.0
C      1  0.6297060000000  0.5418620000000  0.4549010000000 1.0
C      1  0.4563140000000  0.4708240000000  0.5755990000000 1.0
C      1  0.5910990000000  0.4557230000000  0.4732820000000 1.0
C      1  0.4108910000000  0.5584440000000  0.5206820000000 1.0
C      1  0.4754100000000  0.5806060000000  0.5750760000000 1.0
C      1  0.4086510000000  0.3824180000000  0.4647440000000 1.0
C      1  0.5737930000000  0.4864030000000  0.4385890000000 1.0
C      1  0.5052130000000  0.5304240000000  0.5587860000000 1.0
C      1  0.4669320000000  0.5075960000000  0.5034360000000 1.0
C      1  0.4935410000000  0.5020890000000  0.5966290000000 1.0
C      1  0.4375150000000  0.4753350000000  0.5544880000000 1.0
C      1  0.5840980000000  0.4468180000000  0.5235240000000 1.0
C      1  0.4772190000000  0.4249850000000  0.4744490000000 1.0
END
