TITL C-599897-7526-1396 0.000559204603260322 125000 -796.669538242628 0 0 130 (C1) n - 1
REM
REM in /home/nfs/bkarasulu/CARBON/AIRSS/Generating-Clusters/TERSOFF/Only-C1/FIRE-HFTN
REM
REM
REM
REM
REM
REM ./C.cell (11c1c37f851c82e70ff6c80c92926a4b)
REM AIRSS Version 0.9.1 bugfix July 2018 build 013d7b7c2542+ Fri, 06 Jul 2018 19:26:36 +0100
REM compiler GCC version 9.2.1 20190827 (Red Hat 9.2.1-1)
REM options -cpp -mtune=generic -march=x86-64 -g -O0 -fpre-include=/usr/include/finclude/math-vector-fortran.h
REM seed -1397387981 -1212852019 -1818693408 1525282963 -1219661793 675152162 1044325014 542939138 711412388 567190902 1968664951 -997622302 -1483279939 2110862969 -1125140327 990589239 1964244385 1388463912 1343937721 -42652935 137870802 671708220 1115176734 -1022868973 948195554 1544353178 -1662952985 -1149623558 -771346427 -655194490 1693726223 1316670437 -891125654
REM
CELL 1.54180   50.00000   50.00000   50.00000   90.00000   90.00000   90.00000
LATT -1
SFAC C  
C      1  0.4848590000000  0.4724930000000  0.4571350000000 1.0
C      1  0.5407270000000  0.4655160000000  0.4677850000000 1.0
C      1  0.4948180000000  0.5893210000000  0.5120580000000 1.0
C      1  0.4582370000000  0.6016980000000  0.4849490000000 1.0
C      1  0.5413730000000  0.4399950000000  0.5690990000000 1.0
C      1  0.4618580000000  0.4687930000000  0.4085280000000 1.0
C      1  0.3984990000000  0.5239640000000  0.4543930000000 1.0
C      1  0.5663600000000  0.5865060000000  0.4810410000000 1.0
C      1  0.4300100000000  0.5577320000000  0.4851450000000 1.0
C      1  0.5721340000000  0.5007030000000  0.4260390000000 1.0
C      1  0.5139970000000  0.4451910000000  0.4133090000000 1.0
C      1  0.4386160000000  0.5835320000000  0.4953450000000 1.0
C      1  0.4188170000000  0.5425180000000  0.5479760000000 1.0
C      1  0.5368620000000  0.4188880000000  0.5236950000000 1.0
C      1  0.6065110000000  0.4682070000000  0.5183790000000 1.0
C      1  0.4579880000000  0.4394050000000  0.5739310000000 1.0
C      1  0.5457950000000  0.5364650000000  0.4828380000000 1.0
C      1  0.6055410000000  0.5067100000000  0.4816320000000 1.0
C      1  0.4588540000000  0.4728780000000  0.5014660000000 1.0
C      1  0.4583230000000  0.4940510000000  0.5206100000000 1.0
C      1  0.4092110000000  0.4455040000000  0.5113870000000 1.0
C      1  0.5958810000000  0.4687060000000  0.5461740000000 1.0
C      1  0.5009410000000  0.4240750000000  0.4264030000000 1.0
C      1  0.4804130000000  0.4240570000000  0.5712520000000 1.0
C      1  0.4283150000000  0.5873330000000  0.5217280000000 1.0
C      1  0.4510200000000  0.4334950000000  0.5273420000000 1.0
C      1  0.4875270000000  0.5172820000000  0.4688500000000 1.0
C      1  0.5292590000000  0.4926680000000  0.4649160000000 1.0
C      1  0.5561400000000  0.4896820000000  0.5759920000000 1.0
C      1  0.4630820000000  0.5470050000000  0.6092270000000 1.0
C      1  0.3870930000000  0.5495400000000  0.4639240000000 1.0
C      1  0.5421960000000  0.5146420000000  0.5734680000000 1.0
C      1  0.5623350000000  0.4554870000000  0.4519910000000 1.0
C      1  0.5428340000000  0.5429610000000  0.5658900000000 1.0
C      1  0.4947010000000  0.5579150000000  0.4798230000000 1.0
C      1  0.4772910000000  0.5334880000000  0.5439920000000 1.0
C      1  0.5297530000000  0.4864950000000  0.5330520000000 1.0
C      1  0.4730870000000  0.4262870000000  0.4335150000000 1.0
C      1  0.5599030000000  0.5269730000000  0.4360920000000 1.0
C      1  0.4769270000000  0.4891020000000  0.3963470000000 1.0
C      1  0.4621140000000  0.5001850000000  0.5969170000000 1.0
C      1  0.4336530000000  0.4427060000000  0.4490920000000 1.0
C      1  0.5131350000000  0.5009690000000  0.5520150000000 1.0
C      1  0.5430100000000  0.4106630000000  0.4485280000000 1.0
C      1  0.4682140000000  0.5496330000000  0.4327900000000 1.0
C      1  0.5831210000000  0.4164750000000  0.4761600000000 1.0
C      1  0.4952830000000  0.4542640000000  0.4774080000000 1.0
C      1  0.4432170000000  0.4263170000000  0.4734590000000 1.0
C      1  0.4394370000000  0.5072270000000  0.5780000000000 1.0
C      1  0.4525940000000  0.5216550000000  0.5101940000000 1.0
C      1  0.4678870000000  0.4136970000000  0.4610650000000 1.0
C      1  0.5537690000000  0.3992110000000  0.5139450000000 1.0
C      1  0.5426080000000  0.5829710000000  0.5309390000000 1.0
C      1  0.4189850000000  0.5290130000000  0.4352730000000 1.0
C      1  0.5913310000000  0.4439050000000  0.5591720000000 1.0
C      1  0.4967510000000  0.5145610000000  0.4420480000000 1.0
C      1  0.5177300000000  0.4710340000000  0.4200410000000 1.0
C      1  0.5097680000000  0.5209070000000  0.5119710000000 1.0
C      1  0.4669830000000  0.5441320000000  0.5207290000000 1.0
C      1  0.5791800000000  0.5337650000000  0.5229040000000 1.0
C      1  0.4401190000000  0.4766930000000  0.4800490000000 1.0
C      1  0.5718350000000  0.5377610000000  0.4957330000000 1.0
C      1  0.4957610000000  0.4252780000000  0.5469870000000 1.0
C      1  0.4757860000000  0.5725700000000  0.5696700000000 1.0
C      1  0.5051500000000  0.5264760000000  0.5416050000000 1.0
C      1  0.4831660000000  0.5282670000000  0.4218460000000 1.0
C      1  0.4013920000000  0.5533020000000  0.4887990000000 1.0
C      1  0.5921480000000  0.5310420000000  0.4752280000000 1.0
C      1  0.4536700000000  0.4470440000000  0.4268810000000 1.0
C      1  0.5533770000000  0.4955140000000  0.5214120000000 1.0
C      1  0.5713680000000  0.3976470000000  0.4937900000000 1.0
C      1  0.6156290000000  0.4441670000000  0.5063720000000 1.0
C      1  0.5798020000000  0.4906320000000  0.5572700000000 1.0
C      1  0.4881760000000  0.4865500000000  0.5601930000000 1.0
C      1  0.5294080000000  0.4411400000000  0.5075530000000 1.0
C      1  0.5130170000000  0.5875610000000  0.5342800000000 1.0
C      1  0.4186570000000  0.5698210000000  0.5398690000000 1.0
C      1  0.5813040000000  0.5454050000000  0.4511280000000 1.0
C      1  0.4334060000000  0.4309150000000  0.5033980000000 1.0
C      1  0.4057390000000  0.5222250000000  0.5303000000000 1.0
C      1  0.5559950000000  0.5891960000000  0.5061420000000 1.0
C      1  0.5037390000000  0.6038800000000  0.4628650000000 1.0
C      1  0.5372490000000  0.5408450000000  0.4179090000000 1.0
C      1  0.5724400000000  0.5104880000000  0.5370470000000 1.0
C      1  0.5689600000000  0.4324780000000  0.5688700000000 1.0
C      1  0.5216740000000  0.4621630000000  0.5242930000000 1.0
C      1  0.5737050000000  0.4746640000000  0.4341480000000 1.0
C      1  0.5059690000000  0.5819080000000  0.4428300000000 1.0
C      1  0.5657810000000  0.4268970000000  0.4555600000000 1.0
C      1  0.4004610000000  0.5084470000000  0.4802510000000 1.0
C      1  0.4505430000000  0.4532860000000  0.5499860000000 1.0
C      1  0.5258290000000  0.5670810000000  0.4271910000000 1.0
C      1  0.5116950000000  0.4729760000000  0.5964190000000 1.0
C      1  0.5246250000000  0.4247110000000  0.5496170000000 1.0
C      1  0.4797910000000  0.4329760000000  0.5221360000000 1.0
C      1  0.4574950000000  0.4864840000000  0.4596570000000 1.0
C      1  0.4139100000000  0.4848150000000  0.4880030000000 1.0
C      1  0.4801840000000  0.4531700000000  0.5009020000000 1.0
C      1  0.4925860000000  0.5144690000000  0.3983330000000 1.0
C      1  0.5158310000000  0.5479960000000  0.5588070000000 1.0
C      1  0.5555560000000  0.5653430000000  0.5515040000000 1.0
C      1  0.5056920000000  0.5083430000000  0.4878380000000 1.0
C      1  0.4872720000000  0.6048610000000  0.4875860000000 1.0
C      1  0.4445870000000  0.5315940000000  0.4840540000000 1.0
C      1  0.5370950000000  0.4664150000000  0.5823850000000 1.0
C      1  0.5149470000000  0.4080120000000  0.4465280000000 1.0
C      1  0.5082430000000  0.4873290000000  0.4425780000000 1.0
C      1  0.5231810000000  0.5532930000000  0.4824320000000 1.0
C      1  0.4645950000000  0.4797010000000  0.5452330000000 1.0
C      1  0.4085400000000  0.4936300000000  0.5371930000000 1.0
C      1  0.4660330000000  0.5208840000000  0.6162420000000 1.0
C      1  0.5669430000000  0.4847260000000  0.4994190000000 1.0
C      1  0.4858390000000  0.4848930000000  0.5886830000000 1.0
C      1  0.5018330000000  0.5729060000000  0.5572520000000 1.0
C      1  0.6063570000000  0.4289130000000  0.4861620000000 1.0
C      1  0.4565760000000  0.5549830000000  0.5824920000000 1.0
C      1  0.4208310000000  0.4905830000000  0.5632450000000 1.0
C      1  0.4937950000000  0.4007470000000  0.4658320000000 1.0
C      1  0.4401250000000  0.5455350000000  0.4307620000000 1.0
C      1  0.3976810000000  0.5279300000000  0.5032740000000 1.0
C      1  0.5953410000000  0.4859370000000  0.4984570000000 1.0
C      1  0.5210220000000  0.5244770000000  0.3979950000000 1.0
C      1  0.4595230000000  0.5148700000000  0.4666680000000 1.0
C      1  0.4066810000000  0.4741300000000  0.5145490000000 1.0
C      1  0.5748750000000  0.5728490000000  0.4587940000000 1.0
C      1  0.4373510000000  0.5360210000000  0.5698480000000 1.0
C      1  0.5453600000000  0.5167900000000  0.4613130000000 1.0
C      1  0.4845530000000  0.5638520000000  0.4524400000000 1.0
C      1  0.5229920000000  0.4480000000000  0.4811040000000 1.0
C      1  0.4823570000000  0.5629580000000  0.5054370000000 1.0
END
