TITL C-599892-9790-414 0.79653603000864 125000 -234.530728325304 0 0 40 (C1) n - 1
REM
REM in /home/nfs/bkarasulu/CARBON/AIRSS/Generating-Clusters/TERSOFF/Only-C1/FIRE-HFTN
REM
REM
REM
REM
REM
REM ./C.cell (11c1c37f851c82e70ff6c80c92926a4b)
REM AIRSS Version 0.9.1 bugfix July 2018 build 013d7b7c2542+ Fri, 06 Jul 2018 19:26:36 +0100
REM compiler GCC version 9.2.1 20190827 (Red Hat 9.2.1-1)
REM options -cpp -mtune=generic -march=x86-64 -g -O0 -fpre-include=/usr/include/finclude/math-vector-fortran.h
REM seed -846973870 506846356 -438499441 -631768368 -1890656534 -1682702836 -691964043 950559392 1375549484 586698509 -654591314 -717575798 190890205 -936348077 -391299620 -879446086 358089684 -1143830264 -1333022075 -681539680 1343975006 1523702676 -758695816 1024939087 -1523304499 1151942859 448476 1746865273 -1053671301 964082418 1747555867 1163528039 -1440613226
REM
CELL 1.54180   50.00000   50.00000   50.00000   90.00000   90.00000   90.00000
LATT -1
SFAC C  
C      1  0.5488710000000  0.4378130000000  0.4742980000000 1.0
C      1  0.5172270000000  0.3992470000000  0.4647180000000 1.0
C      1  0.4024110000000  0.5863210000000  0.4686980000000 1.0
C      1  0.3852080000000  0.5647100000000  0.4648270000000 1.0
C      1  0.5066420000000  0.5230040000000  0.4883260000000 1.0
C      1  0.5535300000000  0.4777750000000  0.5508700000000 1.0
C      1  0.5386430000000  0.4151180000000  0.4615870000000 1.0
C      1  0.5846670000000  0.4676190000000  0.4892340000000 1.0
C      1  0.4959730000000  0.3994640000000  0.4832370000000 1.0
C      1  0.4427320000000  0.6568590000000  0.4781610000000 1.0
C      1  0.3972450000000  0.6388850000000  0.4686980000000 1.0
C      1  0.4160810000000  0.3285890000000  0.4805060000000 1.0
C      1  0.4296230000000  0.5821020000000  0.4740640000000 1.0
C      1  0.4355780000000  0.3458830000000  0.4811710000000 1.0
C      1  0.5142580000000  0.4409420000000  0.5106550000000 1.0
C      1  0.6102650000000  0.5240070000000  0.5469890000000 1.0
C      1  0.4752090000000  0.3810390000000  0.4825230000000 1.0
C      1  0.4903390000000  0.5436970000000  0.4854660000000 1.0
C      1  0.4975600000000  0.4199360000000  0.5025280000000 1.0
C      1  0.6296190000000  0.5407220000000  0.5539610000000 1.0
C      1  0.4554000000000  0.3634670000000  0.4818470000000 1.0
C      1  0.6486550000000  0.5571610000000  0.5608180000000 1.0
C      1  0.4619800000000  0.6386420000000  0.4816570000000 1.0
C      1  0.5666860000000  0.4829390000000  0.5050010000000 1.0
C      1  0.4740400000000  0.5643810000000  0.4826090000000 1.0
C      1  0.5909470000000  0.5072940000000  0.5399830000000 1.0
C      1  0.5159890000000  0.4573580000000  0.6093340000000 1.0
C      1  0.3928120000000  0.6126390000000  0.4672940000000 1.0
C      1  0.4164870000000  0.6569570000000  0.4729070000000 1.0
C      1  0.5173990000000  0.4485690000000  0.5374590000000 1.0
C      1  0.4664230000000  0.6123630000000  0.4820290000000 1.0
C      1  0.5758720000000  0.4465200000000  0.4744310000000 1.0
C      1  0.4568320000000  0.5861180000000  0.4795920000000 1.0
C      1  0.5234220000000  0.4595730000000  0.5844530000000 1.0
C      1  0.5228890000000  0.5023080000000  0.4913490000000 1.0
C      1  0.5313800000000  0.4619480000000  0.5578360000000 1.0
C      1  0.5315540000000  0.4533240000000  0.4915880000000 1.0
C      1  0.3691750000000  0.5444830000000  0.4612180000000 1.0
C      1  0.5395000000000  0.4805530000000  0.4958810000000 1.0
C      1  0.5708760000000  0.4896680000000  0.5322000000000 1.0
END
