TITL C-599895-9959-1320 0.56459268441882 125000 -544.095986980524 0 0 90 (C1) n - 1
REM
REM in /home/nfs/bkarasulu/CARBON/AIRSS/Generating-Clusters/TERSOFF/Only-C1/FIRE-HFTN
REM
REM
REM
REM
REM
REM ./C.cell (11c1c37f851c82e70ff6c80c92926a4b)
REM AIRSS Version 0.9.1 bugfix July 2018 build 013d7b7c2542+ Fri, 06 Jul 2018 19:26:36 +0100
REM compiler GCC version 9.2.1 20190827 (Red Hat 9.2.1-1)
REM options -cpp -mtune=generic -march=x86-64 -g -O0 -fpre-include=/usr/include/finclude/math-vector-fortran.h
REM seed 1369036178 1811662644 415284315 880779633 1147214726 -530811058 -1214272237 1316402293 143428641 -713719352 -1597902241 -350795907 -1161754616 -744647120 1657812810 1867344555 820070652 -2116445145 -1798755038 -15747406 1106126792 543916938 1619221451 1412431690 -421856983 683194432 -136085917 -1124912179 -825562733 342501252 -781407655 -77344083 428123976
REM
CELL 1.54180   50.00000   50.00000   50.00000   90.00000   90.00000   90.00000
LATT -1
SFAC C  
C      1  0.5231270000000  0.5822880000000  0.5498210000000 1.0
C      1  0.4300240000000  0.4965490000000  0.5711340000000 1.0
C      1  0.5334890000000  0.5605860000000  0.4873250000000 1.0
C      1  0.5275300000000  0.4786190000000  0.4226850000000 1.0
C      1  0.5132090000000  0.4247030000000  0.5475910000000 1.0
C      1  0.5043020000000  0.5106770000000  0.5216130000000 1.0
C      1  0.5444290000000  0.5867580000000  0.4906910000000 1.0
C      1  0.4670190000000  0.5764140000000  0.5293270000000 1.0
C      1  0.4291310000000  0.5167480000000  0.5536130000000 1.0
C      1  0.5730300000000  0.4674760000000  0.4399710000000 1.0
C      1  0.4663350000000  0.4621690000000  0.5885450000000 1.0
C      1  0.5262300000000  0.4696700000000  0.3953550000000 1.0
C      1  0.5746380000000  0.4735910000000  0.3887690000000 1.0
C      1  0.4348580000000  0.4707000000000  0.4734280000000 1.0
C      1  0.5232940000000  0.4183120000000  0.4252000000000 1.0
C      1  0.4437520000000  0.4779560000000  0.5844520000000 1.0
C      1  0.3855510000000  0.4395310000000  0.5546090000000 1.0
C      1  0.5891390000000  0.4738630000000  0.4620990000000 1.0
C      1  0.4770150000000  0.5648390000000  0.5541150000000 1.0
C      1  0.5256710000000  0.5317940000000  0.4367920000000 1.0
C      1  0.5405210000000  0.4447820000000  0.5122810000000 1.0
C      1  0.5915250000000  0.5491040000000  0.4672170000000 1.0
C      1  0.4665470000000  0.5110350000000  0.4896620000000 1.0
C      1  0.4439380000000  0.5584580000000  0.5232100000000 1.0
C      1  0.5767320000000  0.4937530000000  0.5063840000000 1.0
C      1  0.3937400000000  0.5564470000000  0.4651950000000 1.0
C      1  0.4537620000000  0.5197140000000  0.4197910000000 1.0
C      1  0.5495050000000  0.4878880000000  0.5651080000000 1.0
C      1  0.4487440000000  0.5042920000000  0.4421790000000 1.0
C      1  0.5121360000000  0.4581880000000  0.5794210000000 1.0
C      1  0.4692820000000  0.4984510000000  0.4618750000000 1.0
C      1  0.4247420000000  0.4962440000000  0.4573310000000 1.0
C      1  0.5921800000000  0.4847150000000  0.4863200000000 1.0
C      1  0.5097100000000  0.4476800000000  0.3894990000000 1.0
C      1  0.4649700000000  0.4693790000000  0.4706600000000 1.0
C      1  0.4198560000000  0.5174820000000  0.4781960000000 1.0
C      1  0.5488390000000  0.4214330000000  0.4978260000000 1.0
C      1  0.5442330000000  0.4200210000000  0.4700060000000 1.0
C      1  0.4462170000000  0.5350150000000  0.5413060000000 1.0
C      1  0.4887530000000  0.5790420000000  0.4851150000000 1.0
C      1  0.5379410000000  0.4317380000000  0.4449770000000 1.0
C      1  0.4823500000000  0.4689150000000  0.4945470000000 1.0
C      1  0.5435590000000  0.5400250000000  0.5039690000000 1.0
C      1  0.4881380000000  0.5858550000000  0.5129270000000 1.0
C      1  0.4927080000000  0.4727050000000  0.5950530000000 1.0
C      1  0.5058540000000  0.5495240000000  0.4473620000000 1.0
C      1  0.4722100000000  0.5911120000000  0.4656970000000 1.0
C      1  0.4953310000000  0.5199430000000  0.5474870000000 1.0
C      1  0.5540930000000  0.5400570000000  0.5608780000000 1.0
C      1  0.5333820000000  0.4440030000000  0.5396180000000 1.0
C      1  0.4186910000000  0.3750870000000  0.5684090000000 1.0
C      1  0.5523790000000  0.5405730000000  0.4352130000000 1.0
C      1  0.4837100000000  0.5586460000000  0.4312750000000 1.0
C      1  0.4714230000000  0.5825870000000  0.4400580000000 1.0
C      1  0.5097910000000  0.4242400000000  0.4027820000000 1.0
C      1  0.5617540000000  0.4009880000000  0.5106500000000 1.0
C      1  0.4979220000000  0.4903500000000  0.6150520000000 1.0
C      1  0.4301250000000  0.4795620000000  0.5015470000000 1.0
C      1  0.5415170000000  0.5151010000000  0.5678050000000 1.0
C      1  0.5203660000000  0.5051280000000  0.4295090000000 1.0
C      1  0.5134400000000  0.5173410000000  0.5686390000000 1.0
C      1  0.4181560000000  0.4649890000000  0.5216190000000 1.0
C      1  0.3693340000000  0.4288090000000  0.5719770000000 1.0
C      1  0.4693770000000  0.5409190000000  0.4150680000000 1.0
C      1  0.5331590000000  0.6039400000000  0.5083970000000 1.0
C      1  0.4731810000000  0.5364200000000  0.5524910000000 1.0
C      1  0.5130250000000  0.5941520000000  0.5259590000000 1.0
C      1  0.5486050000000  0.4927740000000  0.5088440000000 1.0
C      1  0.5332320000000  0.4703000000000  0.4705200000000 1.0
C      1  0.5379320000000  0.4690730000000  0.4979780000000 1.0
C      1  0.5707580000000  0.5438950000000  0.5134850000000 1.0
C      1  0.5384130000000  0.5640100000000  0.5624260000000 1.0
C      1  0.5346800000000  0.4639110000000  0.5616690000000 1.0
C      1  0.4124200000000  0.5445800000000  0.4811050000000 1.0
C      1  0.4346920000000  0.3954440000000  0.5714380000000 1.0
C      1  0.5743340000000  0.5408850000000  0.5412120000000 1.0
C      1  0.4259280000000  0.5587860000000  0.5017030000000 1.0
C      1  0.5084430000000  0.5605110000000  0.4740270000000 1.0
C      1  0.5834150000000  0.4692730000000  0.4137760000000 1.0
C      1  0.5492220000000  0.4749310000000  0.3798580000000 1.0
C      1  0.4510120000000  0.4161310000000  0.5742040000000 1.0
C      1  0.5430400000000  0.4620530000000  0.4433580000000 1.0
C      1  0.5902830000000  0.5487100000000  0.4939660000000 1.0
C      1  0.4863490000000  0.4960770000000  0.5054450000000 1.0
C      1  0.4386520000000  0.5078420000000  0.4989210000000 1.0
C      1  0.5763900000000  0.5459350000000  0.4454430000000 1.0
C      1  0.4702110000000  0.4358100000000  0.5769710000000 1.0
C      1  0.5312540000000  0.5153590000000  0.5117540000000 1.0
C      1  0.4977280000000  0.4337050000000  0.5696100000000 1.0
C      1  0.4023860000000  0.4509330000000  0.5376060000000 1.0
END
