TITL C-599897-7526-618 0.165096042754914 125000 -852.702534359416 0 0 139 (C1) n - 1
REM
REM in /home/nfs/bkarasulu/CARBON/AIRSS/Generating-Clusters/TERSOFF/Only-C1/FIRE-HFTN
REM
REM
REM
REM
REM
REM ./C.cell (11c1c37f851c82e70ff6c80c92926a4b)
REM AIRSS Version 0.9.1 bugfix July 2018 build 013d7b7c2542+ Fri, 06 Jul 2018 19:26:36 +0100
REM compiler GCC version 9.2.1 20190827 (Red Hat 9.2.1-1)
REM options -cpp -mtune=generic -march=x86-64 -g -O0 -fpre-include=/usr/include/finclude/math-vector-fortran.h
REM seed -193494918 -338678383 -316907410 923437840 881512629 919117957 2043079670 -1544669835 76427055 1834752315 -2028138823 649999743 -1418715181 -1633639695 -121637788 877615248 -2067671103 827293165 -809824342 -580758160 1486733428 -920601135 906957042 2044502087 -830511884 -515651732 -1739442644 696940966 982663573 2007621362 1817393101 -1070637263 1672425571
REM
CELL 1.54180   50.00000   50.00000   50.00000   90.00000   90.00000   90.00000
LATT -1
SFAC C  
C      1  0.5449750000000  0.5578830000000  0.4000880000000 1.0
C      1  0.5908710000000  0.6260760000000  0.4801970000000 1.0
C      1  0.4330700000000  0.5388600000000  0.4614890000000 1.0
C      1  0.5298760000000  0.3959660000000  0.5174260000000 1.0
C      1  0.4120500000000  0.4318280000000  0.4646390000000 1.0
C      1  0.5449390000000  0.4751690000000  0.6290430000000 1.0
C      1  0.5156710000000  0.3883420000000  0.4958670000000 1.0
C      1  0.4176720000000  0.5094260000000  0.5023870000000 1.0
C      1  0.4919620000000  0.5209820000000  0.5717220000000 1.0
C      1  0.5196080000000  0.4738360000000  0.4632740000000 1.0
C      1  0.6068530000000  0.5290820000000  0.4720980000000 1.0
C      1  0.5164380000000  0.4718660000000  0.3518360000000 1.0
C      1  0.4389050000000  0.4662600000000  0.6201780000000 1.0
C      1  0.5310070000000  0.5929260000000  0.5518350000000 1.0
C      1  0.4181160000000  0.5782910000000  0.5137890000000 1.0
C      1  0.4916100000000  0.6098280000000  0.4884960000000 1.0
C      1  0.5246950000000  0.5170580000000  0.4873970000000 1.0
C      1  0.4017100000000  0.4486910000000  0.5336950000000 1.0
C      1  0.5811810000000  0.5460780000000  0.5655930000000 1.0
C      1  0.5060470000000  0.4309150000000  0.4157010000000 1.0
C      1  0.3989540000000  0.4676420000000  0.5127430000000 1.0
C      1  0.5484490000000  0.4817170000000  0.5041810000000 1.0
C      1  0.4469760000000  0.4467710000000  0.5171230000000 1.0
C      1  0.5321740000000  0.4950470000000  0.3538750000000 1.0
C      1  0.6078580000000  0.4485740000000  0.4792390000000 1.0
C      1  0.5848240000000  0.4263680000000  0.4032970000000 1.0
C      1  0.5351890000000  0.4312310000000  0.5592470000000 1.0
C      1  0.5765830000000  0.4746760000000  0.5760330000000 1.0
C      1  0.5215510000000  0.4467250000000  0.4720850000000 1.0
C      1  0.5592510000000  0.5056910000000  0.5168460000000 1.0
C      1  0.6014840000000  0.4148250000000  0.3869170000000 1.0
C      1  0.3851810000000  0.4684790000000  0.4877280000000 1.0
C      1  0.5566610000000  0.5594820000000  0.4512790000000 1.0
C      1  0.4684970000000  0.5651860000000  0.5705510000000 1.0
C      1  0.4959500000000  0.4928380000000  0.5263800000000 1.0
C      1  0.4059970000000  0.5432080000000  0.4730400000000 1.0
C      1  0.4426310000000  0.4524480000000  0.4351290000000 1.0
C      1  0.6147760000000  0.5207130000000  0.4978220000000 1.0
C      1  0.5223270000000  0.5741840000000  0.4042870000000 1.0
C      1  0.4473150000000  0.4753580000000  0.5240740000000 1.0
C      1  0.5450920000000  0.5744810000000  0.5377770000000 1.0
C      1  0.4929250000000  0.5438180000000  0.5060590000000 1.0
C      1  0.4370330000000  0.4764000000000  0.4250370000000 1.0
C      1  0.4380860000000  0.5270730000000  0.5077780000000 1.0
C      1  0.4726750000000  0.5508630000000  0.4881850000000 1.0
C      1  0.4496400000000  0.5013350000000  0.5812690000000 1.0
C      1  0.5669430000000  0.4389450000000  0.4205700000000 1.0
C      1  0.5009760000000  0.4880440000000  0.4472020000000 1.0
C      1  0.5540500000000  0.4851460000000  0.4107170000000 1.0
C      1  0.3879630000000  0.4877300000000  0.5599510000000 1.0
C      1  0.5182790000000  0.5756060000000  0.4745240000000 1.0
C      1  0.3972030000000  0.5171970000000  0.4837520000000 1.0
C      1  0.5121370000000  0.6405210000000  0.4390220000000 1.0
C      1  0.4515600000000  0.4176750000000  0.5735690000000 1.0
C      1  0.5668650000000  0.4334590000000  0.4484340000000 1.0
C      1  0.4320430000000  0.5746250000000  0.5392790000000 1.0
C      1  0.5356530000000  0.4904150000000  0.4798210000000 1.0
C      1  0.5030110000000  0.4655680000000  0.3289430000000 1.0
C      1  0.4854720000000  0.4583530000000  0.5993360000000 1.0
C      1  0.5119390000000  0.5674510000000  0.5037750000000 1.0
C      1  0.5152750000000  0.4555150000000  0.3746460000000 1.0
C      1  0.5590160000000  0.5352590000000  0.4103960000000 1.0
C      1  0.4241510000000  0.4317310000000  0.5270980000000 1.0
C      1  0.5376840000000  0.5570760000000  0.5165920000000 1.0
C      1  0.6232100000000  0.4938850000000  0.4995650000000 1.0
C      1  0.4221680000000  0.4045210000000  0.5261060000000 1.0
C      1  0.5510220000000  0.4243960000000  0.5808640000000 1.0
C      1  0.4979610000000  0.3930810000000  0.4761650000000 1.0
C      1  0.4288690000000  0.4294440000000  0.5814520000000 1.0
C      1  0.4461470000000  0.5253410000000  0.4400010000000 1.0
C      1  0.4160560000000  0.4708880000000  0.6044160000000 1.0
C      1  0.5463630000000  0.5140580000000  0.5761990000000 1.0
C      1  0.6197250000000  0.4685280000000  0.4922220000000 1.0
C      1  0.5168640000000  0.5306350000000  0.4616630000000 1.0
C      1  0.5053110000000  0.6014960000000  0.5543040000000 1.0
C      1  0.4647440000000  0.4608770000000  0.6158700000000 1.0
C      1  0.6087690000000  0.5348260000000  0.5218260000000 1.0
C      1  0.4698890000000  0.5042230000000  0.5634000000000 1.0
C      1  0.5908680000000  0.5307480000000  0.5432850000000 1.0
C      1  0.5309900000000  0.4624420000000  0.5161810000000 1.0
C      1  0.5387710000000  0.5581200000000  0.5930410000000 1.0
C      1  0.5358280000000  0.4128040000000  0.5375540000000 1.0
C      1  0.5188430000000  0.4558220000000  0.5616410000000 1.0
C      1  0.5748860000000  0.5069870000000  0.5399420000000 1.0
C      1  0.5900420000000  0.4362480000000  0.4638320000000 1.0
C      1  0.3803810000000  0.4951130000000  0.4777040000000 1.0
C      1  0.4741930000000  0.5293730000000  0.4338070000000 1.0
C      1  0.4966650000000  0.5163980000000  0.4465480000000 1.0
C      1  0.5117750000000  0.5596020000000  0.5931170000000 1.0
C      1  0.5151300000000  0.4725060000000  0.5376450000000 1.0
C      1  0.5296870000000  0.5556410000000  0.4587110000000 1.0
C      1  0.3972770000000  0.5088790000000  0.5768200000000 1.0
C      1  0.5184360000000  0.5112250000000  0.5741080000000 1.0
C      1  0.5477780000000  0.4576200000000  0.4107660000000 1.0
C      1  0.3903020000000  0.4461520000000  0.4713560000000 1.0
C      1  0.5224290000000  0.5975850000000  0.4199290000000 1.0
C      1  0.4064390000000  0.5342270000000  0.5672110000000 1.0
C      1  0.4882200000000  0.4203490000000  0.5365940000000 1.0
C      1  0.4598580000000  0.5815620000000  0.5483470000000 1.0
C      1  0.4799940000000  0.5462430000000  0.4121520000000 1.0
C      1  0.4830900000000  0.5951650000000  0.5372010000000 1.0
C      1  0.5928270000000  0.5290290000000  0.4492620000000 1.0
C      1  0.4415620000000  0.5314870000000  0.5348450000000 1.0
C      1  0.5077040000000  0.6011090000000  0.4665090000000 1.0
C      1  0.5457850000000  0.5303090000000  0.5067410000000 1.0
C      1  0.5470790000000  0.5094690000000  0.3706700000000 1.0
C      1  0.3973400000000  0.4604030000000  0.5595290000000 1.0
C      1  0.5307730000000  0.4689810000000  0.6075080000000 1.0
C      1  0.4890910000000  0.5485310000000  0.5799290000000 1.0
C      1  0.5418370000000  0.4310130000000  0.4608390000000 1.0
C      1  0.5705380000000  0.5824890000000  0.4590790000000 1.0
C      1  0.4248920000000  0.5481890000000  0.5507440000000 1.0
C      1  0.4389680000000  0.4350220000000  0.4568670000000 1.0
C      1  0.4214980000000  0.4850590000000  0.5142320000000 1.0
C      1  0.5550520000000  0.5101330000000  0.3977160000000 1.0
C      1  0.4060000000000  0.5661040000000  0.4920030000000 1.0
C      1  0.5155220000000  0.4439970000000  0.4999140000000 1.0
C      1  0.4050090000000  0.4971620000000  0.6017880000000 1.0
C      1  0.4615680000000  0.4266120000000  0.4721860000000 1.0
C      1  0.4660780000000  0.4364330000000  0.4987000000000 1.0
C      1  0.4914910000000  0.4325090000000  0.5110980000000 1.0
C      1  0.4346720000000  0.5027100000000  0.4281060000000 1.0
C      1  0.4920850000000  0.4178690000000  0.4343880000000 1.0
C      1  0.4693460000000  0.4904400000000  0.5376930000000 1.0
C      1  0.4925350000000  0.5919930000000  0.5108980000000 1.0
C      1  0.4826590000000  0.4108630000000  0.4601030000000 1.0
C      1  0.5139750000000  0.6133530000000  0.4418110000000 1.0
C      1  0.5815180000000  0.6043280000000  0.4692870000000 1.0
C      1  0.4730630000000  0.4148300000000  0.5579470000000 1.0
C      1  0.5703500000000  0.5395290000000  0.4361930000000 1.0
C      1  0.5014190000000  0.5158690000000  0.5077930000000 1.0
C      1  0.5571920000000  0.5406370000000  0.5807520000000 1.0
C      1  0.4972910000000  0.5622840000000  0.3999330000000 1.0
C      1  0.4117670000000  0.4518610000000  0.5828570000000 1.0
C      1  0.5649490000000  0.4961850000000  0.5641830000000 1.0
C      1  0.4487090000000  0.5393590000000  0.4852690000000 1.0
C      1  0.5594660000000  0.4823540000000  0.6494600000000 1.0
C      1  0.5110930000000  0.4618590000000  0.5886940000000 1.0
C      1  0.5227660000000  0.4478160000000  0.4005720000000 1.0
END
