TITL C-599892-9790-1457 1.11335678879005 125000 -976.471973253581 0 0 158 (C1) n - 1
REM
REM in /home/nfs/bkarasulu/CARBON/AIRSS/Generating-Clusters/TERSOFF/Only-C1/FIRE-HFTN
REM
REM
REM
REM
REM
REM ./C.cell (11c1c37f851c82e70ff6c80c92926a4b)
REM AIRSS Version 0.9.1 bugfix July 2018 build 013d7b7c2542+ Fri, 06 Jul 2018 19:26:36 +0100
REM compiler GCC version 9.2.1 20190827 (Red Hat 9.2.1-1)
REM options -cpp -mtune=generic -march=x86-64 -g -O0 -fpre-include=/usr/include/finclude/math-vector-fortran.h
REM seed -1152149814 -1238008031 -644332964 -1615714785 -1624772055 -208359454 734524290 -1917510960 1779520052 -407761465 503640482 2115173516 328833418 1865181871 -1310050016 481337436 -1696853750 -200137172 232787168 -447982991 -2123669999 -264309978 -1548833093 -1835007782 1846923963 -818202116 1356703852 -1794595283 -2954239 -200265320 -1900582519 -1935830618 -1265665203
REM
CELL 1.54180   50.00000   50.00000   50.00000   90.00000   90.00000   90.00000
LATT -1
SFAC C  
C      1  0.5531190000000  0.4901570000000  0.3849520000000 1.0
C      1  0.5373190000000  0.5836450000000  0.4894140000000 1.0
C      1  0.5356540000000  0.5559490000000  0.4909990000000 1.0
C      1  0.4461920000000  0.5634560000000  0.5757320000000 1.0
C      1  0.5028350000000  0.3899260000000  0.5069530000000 1.0
C      1  0.4346060000000  0.4182960000000  0.4846200000000 1.0
C      1  0.4836870000000  0.4483190000000  0.4538850000000 1.0
C      1  0.4242860000000  0.4718800000000  0.4693780000000 1.0
C      1  0.5308440000000  0.3854740000000  0.5084330000000 1.0
C      1  0.5389860000000  0.5131900000000  0.3861100000000 1.0
C      1  0.5721760000000  0.4486300000000  0.5171050000000 1.0
C      1  0.4659530000000  0.6071510000000  0.4742110000000 1.0
C      1  0.4432850000000  0.4712080000000  0.4227360000000 1.0
C      1  0.5625140000000  0.4554550000000  0.4236850000000 1.0
C      1  0.5377410000000  0.4124790000000  0.4537080000000 1.0
C      1  0.4840720000000  0.5159260000000  0.4751190000000 1.0
C      1  0.4580980000000  0.5854500000000  0.4301130000000 1.0
C      1  0.5183560000000  0.6226060000000  0.5298790000000 1.0
C      1  0.4342610000000  0.5255280000000  0.4785330000000 1.0
C      1  0.4961180000000  0.5189320000000  0.4101360000000 1.0
C      1  0.5481530000000  0.5595830000000  0.5510190000000 1.0
C      1  0.5062380000000  0.6182300000000  0.5040490000000 1.0
C      1  0.4412350000000  0.5120750000000  0.3971980000000 1.0
C      1  0.4406080000000  0.5630650000000  0.5201060000000 1.0
C      1  0.5213410000000  0.4657900000000  0.4809770000000 1.0
C      1  0.5867760000000  0.5005790000000  0.4384940000000 1.0
C      1  0.4324330000000  0.4616350000000  0.4450230000000 1.0
C      1  0.3850810000000  0.4989840000000  0.5200980000000 1.0
C      1  0.5665880000000  0.5211700000000  0.4941750000000 1.0
C      1  0.5922750000000  0.5714910000000  0.4961970000000 1.0
C      1  0.4863450000000  0.4962700000000  0.4549420000000 1.0
C      1  0.5421540000000  0.5382280000000  0.5981810000000 1.0
C      1  0.5787350000000  0.5638020000000  0.4719790000000 1.0
C      1  0.3942850000000  0.5366560000000  0.4608060000000 1.0
C      1  0.4217730000000  0.4317200000000  0.5086020000000 1.0
C      1  0.5055660000000  0.5723330000000  0.4193340000000 1.0
C      1  0.4009550000000  0.5436360000000  0.5911770000000 1.0
C      1  0.5352870000000  0.5389640000000  0.5355740000000 1.0
C      1  0.6182080000000  0.5591290000000  0.4966510000000 1.0
C      1  0.5107920000000  0.6431860000000  0.5461800000000 1.0
C      1  0.5333050000000  0.4185370000000  0.5717370000000 1.0
C      1  0.3817910000000  0.5383200000000  0.4869260000000 1.0
C      1  0.4611890000000  0.4067240000000  0.5205370000000 1.0
C      1  0.4927010000000  0.4901110000000  0.5839540000000 1.0
C      1  0.5467870000000  0.5370270000000  0.5091060000000 1.0
C      1  0.4004180000000  0.4518580000000  0.5128660000000 1.0
C      1  0.5576300000000  0.5828270000000  0.5363770000000 1.0
C      1  0.4225990000000  0.5593610000000  0.5905560000000 1.0
C      1  0.4902430000000  0.4396960000000  0.5833430000000 1.0
C      1  0.5395830000000  0.5126230000000  0.6057240000000 1.0
C      1  0.4903960000000  0.4002830000000  0.4819240000000 1.0
C      1  0.4780880000000  0.5984400000000  0.4494830000000 1.0
C      1  0.5502990000000  0.4315740000000  0.5077840000000 1.0
C      1  0.4110060000000  0.5588370000000  0.4487230000000 1.0
C      1  0.4435660000000  0.5694920000000  0.4929370000000 1.0
C      1  0.5559500000000  0.5506810000000  0.4295040000000 1.0
C      1  0.5810710000000  0.4426940000000  0.5435540000000 1.0
C      1  0.4828860000000  0.4839120000000  0.5088460000000 1.0
C      1  0.4399260000000  0.4797450000000  0.4915110000000 1.0
C      1  0.6008530000000  0.6038110000000  0.5310930000000 1.0
C      1  0.5436050000000  0.4330470000000  0.4322380000000 1.0
C      1  0.5243680000000  0.6067000000000  0.4861340000000 1.0
C      1  0.6062060000000  0.4936930000000  0.5491840000000 1.0
C      1  0.5771860000000  0.4879380000000  0.5915960000000 1.0
C      1  0.4867730000000  0.5306480000000  0.5240830000000 1.0
C      1  0.5224650000000  0.5443680000000  0.4694760000000 1.0
C      1  0.3980760000000  0.4838810000000  0.4718190000000 1.0
C      1  0.4509610000000  0.5474020000000  0.4769560000000 1.0
C      1  0.3930860000000  0.4576030000000  0.5407240000000 1.0
C      1  0.5046540000000  0.4642610000000  0.5911660000000 1.0
C      1  0.6303680000000  0.5399000000000  0.4820540000000 1.0
C      1  0.5875610000000  0.2783520000000  0.4529120000000 1.0
C      1  0.4770800000000  0.5750410000000  0.4084920000000 1.0
C      1  0.4988590000000  0.5577050000000  0.4631300000000 1.0
C      1  0.5764910000000  0.2991120000000  0.4641430000000 1.0
C      1  0.5059580000000  0.5023490000000  0.5602880000000 1.0
C      1  0.3971770000000  0.4949270000000  0.5733700000000 1.0
C      1  0.4651100000000  0.4963540000000  0.5890780000000 1.0
C      1  0.5800990000000  0.4715210000000  0.4406220000000 1.0
C      1  0.4635020000000  0.4406420000000  0.5734110000000 1.0
C      1  0.6173940000000  0.6214300000000  0.5408430000000 1.0
C      1  0.5156470000000  0.4812430000000  0.5433740000000 1.0
C      1  0.4144310000000  0.5637760000000  0.5312140000000 1.0
C      1  0.4207120000000  0.4113730000000  0.4621500000000 1.0
C      1  0.4488770000000  0.4705210000000  0.5381880000000 1.0
C      1  0.4873060000000  0.5108520000000  0.5025910000000 1.0
C      1  0.4853380000000  0.3947330000000  0.5299440000000 1.0
C      1  0.5081180000000  0.4080990000000  0.4596850000000 1.0
C      1  0.4347240000000  0.5070940000000  0.4989300000000 1.0
C      1  0.4572180000000  0.6072720000000  0.5476860000000 1.0
C      1  0.5373000000000  0.4851320000000  0.4946130000000 1.0
C      1  0.5825740000000  0.5848680000000  0.5206020000000 1.0
C      1  0.5087420000000  0.5274700000000  0.5436220000000 1.0
C      1  0.4779140000000  0.6159250000000  0.4992300000000 1.0
C      1  0.5216180000000  0.4834280000000  0.4212930000000 1.0
C      1  0.4252000000000  0.5255310000000  0.3816730000000 1.0
C      1  0.5045920000000  0.4557720000000  0.5403070000000 1.0
C      1  0.4583640000000  0.5412550000000  0.5316050000000 1.0
C      1  0.3899570000000  0.4775780000000  0.4991630000000 1.0
C      1  0.6142620000000  0.5065870000000  0.4453430000000 1.0
C      1  0.5291980000000  0.5536370000000  0.4148270000000 1.0
C      1  0.5728570000000  0.4436240000000  0.5691070000000 1.0
C      1  0.4329610000000  0.5799290000000  0.4472790000000 1.0
C      1  0.5954090000000  0.4568320000000  0.4584830000000 1.0
C      1  0.4622910000000  0.6160990000000  0.5229300000000 1.0
C      1  0.6021180000000  0.4863370000000  0.5237470000000 1.0
C      1  0.5965990000000  0.4934810000000  0.5741120000000 1.0
C      1  0.4409790000000  0.4245940000000  0.5308320000000 1.0
C      1  0.5454390000000  0.4051640000000  0.5497410000000 1.0
C      1  0.5539840000000  0.3413230000000  0.4869730000000 1.0
C      1  0.4542460000000  0.5126160000000  0.5687040000000 1.0
C      1  0.5339510000000  0.4636540000000  0.5934330000000 1.0
C      1  0.4411890000000  0.5911890000000  0.4747080000000 1.0
C      1  0.5427390000000  0.3625140000000  0.4981940000000 1.0
C      1  0.6287490000000  0.5212720000000  0.4627130000000 1.0
C      1  0.4422690000000  0.4825500000000  0.6000760000000 1.0
C      1  0.3902530000000  0.5206900000000  0.5825280000000 1.0
C      1  0.5209230000000  0.5294690000000  0.4008470000000 1.0
C      1  0.5161030000000  0.4363200000000  0.4214040000000 1.0
C      1  0.5652360000000  0.3202200000000  0.4755610000000 1.0
C      1  0.4564570000000  0.5405860000000  0.5622350000000 1.0
C      1  0.4482720000000  0.4447970000000  0.5499550000000 1.0
C      1  0.4927860000000  0.3978010000000  0.5568530000000 1.0
C      1  0.5051500000000  0.4165700000000  0.5742870000000 1.0
C      1  0.4439900000000  0.4971580000000  0.5465910000000 1.0
C      1  0.5644980000000  0.4928360000000  0.4940310000000 1.0
C      1  0.4409670000000  0.5155290000000  0.5248310000000 1.0
C      1  0.5119010000000  0.4613210000000  0.4096280000000 1.0
C      1  0.3938210000000  0.5076480000000  0.4558240000000 1.0
C      1  0.4975080000000  0.4708780000000  0.4639420000000 1.0
C      1  0.3934820000000  0.5468700000000  0.5316930000000 1.0
C      1  0.5052110000000  0.4404560000000  0.5182480000000 1.0
C      1  0.5306700000000  0.4998370000000  0.4402070000000 1.0
C      1  0.5816450000000  0.4747230000000  0.5079560000000 1.0
C      1  0.5005330000000  0.5803510000000  0.4469020000000 1.0
C      1  0.4699370000000  0.5706870000000  0.3826520000000 1.0
C      1  0.5299840000000  0.4895650000000  0.5214280000000 1.0
C      1  0.4584750000000  0.4705800000000  0.5108740000000 1.0
C      1  0.4546570000000  0.4955130000000  0.4152330000000 1.0
C      1  0.4767060000000  0.5422560000000  0.4688710000000 1.0
C      1  0.4790730000000  0.5037970000000  0.4273360000000 1.0
C      1  0.5287640000000  0.5201650000000  0.4572530000000 1.0
C      1  0.5603240000000  0.4671140000000  0.3973220000000 1.0
C      1  0.4965540000000  0.4271390000000  0.4408010000000 1.0
C      1  0.4538620000000  0.5891510000000  0.5670860000000 1.0
C      1  0.5249880000000  0.4422730000000  0.4980190000000 1.0
C      1  0.4617490000000  0.4080080000000  0.4904980000000 1.0
C      1  0.5674680000000  0.5725820000000  0.4465220000000 1.0
C      1  0.5708200000000  0.5253640000000  0.4420460000000 1.0
C      1  0.3894140000000  0.4858560000000  0.5471130000000 1.0
C      1  0.5498550000000  0.4872110000000  0.5990550000000 1.0
C      1  0.5481220000000  0.5557280000000  0.5788120000000 1.0
C      1  0.5753070000000  0.5345980000000  0.4704820000000 1.0
C      1  0.3839610000000  0.5274220000000  0.5134640000000 1.0
C      1  0.4167320000000  0.4816250000000  0.5900230000000 1.0
C      1  0.5475990000000  0.4411220000000  0.5815630000000 1.0
C      1  0.5399920000000  0.6054030000000  0.5368930000000 1.0
C      1  0.5461820000000  0.4058510000000  0.5213890000000 1.0
END
