TITL C-599893-4344-722 8.79687184184465e-05 125000 -726.339187701702 0 0 119 (C1) n - 1
REM
REM in /home/nfs/bkarasulu/CARBON/AIRSS/Generating-Clusters/TERSOFF/Only-C1/FIRE-HFTN
REM
REM
REM
REM
REM
REM ./C.cell (11c1c37f851c82e70ff6c80c92926a4b)
REM AIRSS Version 0.9.1 bugfix July 2018 build 013d7b7c2542+ Fri, 06 Jul 2018 19:26:36 +0100
REM compiler GCC version 9.2.1 20190827 (Red Hat 9.2.1-1)
REM options -cpp -mtune=generic -march=x86-64 -g -O0 -fpre-include=/usr/include/finclude/math-vector-fortran.h
REM seed -992682133 -1090710473 183314937 1023514179 1763549052 -1679223814 -1915993473 -766889869 -1754310091 -1976322707 111725580 -202396273 1897461650 -376823221 876412964 -2083044278 -1360760729 -965482421 -613367588 -1443381672 -906192215 1260391568 -1993120845 1801892263 396139827 298061402 1284254161 249619027 214849376 403133643 -1400221339 37404161 1954281966
REM
CELL 1.54180   50.00000   50.00000   50.00000   90.00000   90.00000   90.00000
LATT -1
SFAC C  
C      1  0.4021020000000  0.4894180000000  0.4949370000000 1.0
C      1  0.4935790000000  0.4371650000000  0.4141730000000 1.0
C      1  0.5848970000000  0.5648910000000  0.5011360000000 1.0
C      1  0.5960030000000  0.5447000000000  0.4841110000000 1.0
C      1  0.5083830000000  0.4772750000000  0.4872230000000 1.0
C      1  0.5119510000000  0.5665820000000  0.4253520000000 1.0
C      1  0.5571950000000  0.5643040000000  0.5076010000000 1.0
C      1  0.4243940000000  0.5101130000000  0.4490280000000 1.0
C      1  0.5056400000000  0.4072080000000  0.4948200000000 1.0
C      1  0.5716550000000  0.4238670000000  0.4865740000000 1.0
C      1  0.4655820000000  0.4846450000000  0.4204720000000 1.0
C      1  0.4613520000000  0.5329370000000  0.4669030000000 1.0
C      1  0.4816650000000  0.3968480000000  0.5344750000000 1.0
C      1  0.5059530000000  0.3942560000000  0.5208410000000 1.0
C      1  0.4638000000000  0.5063630000000  0.5976660000000 1.0
C      1  0.3949630000000  0.4619970000000  0.4882940000000 1.0
C      1  0.4929110000000  0.5312600000000  0.4015880000000 1.0
C      1  0.5656970000000  0.4974280000000  0.5069630000000 1.0
C      1  0.4442700000000  0.5489910000000  0.5318450000000 1.0
C      1  0.4815070000000  0.5486750000000  0.5832890000000 1.0
C      1  0.5572060000000  0.5081750000000  0.4145280000000 1.0
C      1  0.5771010000000  0.5192660000000  0.5491120000000 1.0
C      1  0.4394950000000  0.5819100000000  0.4572060000000 1.0
C      1  0.4577010000000  0.5334040000000  0.5915050000000 1.0
C      1  0.3930830000000  0.4463480000000  0.5109510000000 1.0
C      1  0.4818920000000  0.4169690000000  0.4542970000000 1.0
C      1  0.4391300000000  0.5353140000000  0.4495250000000 1.0
C      1  0.5830570000000  0.4503360000000  0.4860400000000 1.0
C      1  0.4001260000000  0.5112550000000  0.5455290000000 1.0
C      1  0.4830820000000  0.4956710000000  0.5788440000000 1.0
C      1  0.4788660000000  0.5040030000000  0.5510630000000 1.0
C      1  0.5792990000000  0.4802410000000  0.4840060000000 1.0
C      1  0.5362150000000  0.4665200000000  0.4043540000000 1.0
C      1  0.4503440000000  0.5840690000000  0.4834660000000 1.0
C      1  0.4008090000000  0.4897340000000  0.5260620000000 1.0
C      1  0.5294830000000  0.4327440000000  0.5241770000000 1.0
C      1  0.5191230000000  0.4760590000000  0.5407150000000 1.0
C      1  0.5038510000000  0.4210030000000  0.4358660000000 1.0
C      1  0.4438740000000  0.4527670000000  0.5597510000000 1.0
C      1  0.5310400000000  0.5218330000000  0.4819770000000 1.0
C      1  0.4514660000000  0.5625040000000  0.4121530000000 1.0
C      1  0.6055520000000  0.4961190000000  0.4825490000000 1.0
C      1  0.4944600000000  0.6048100000000  0.5291700000000 1.0
C      1  0.4841940000000  0.4666970000000  0.5832980000000 1.0
C      1  0.5809930000000  0.4333580000000  0.5337340000000 1.0
C      1  0.4552980000000  0.4606980000000  0.5845580000000 1.0
C      1  0.5533380000000  0.4146470000000  0.4645280000000 1.0
C      1  0.5345240000000  0.4576380000000  0.4296990000000 1.0
C      1  0.5761090000000  0.4719960000000  0.5651410000000 1.0
C      1  0.5634760000000  0.4813290000000  0.4586890000000 1.0
C      1  0.5713760000000  0.4956670000000  0.4358260000000 1.0
C      1  0.5316260000000  0.5440880000000  0.5681680000000 1.0
C      1  0.5312390000000  0.4141650000000  0.4468620000000 1.0
C      1  0.5446640000000  0.5173520000000  0.5058520000000 1.0
C      1  0.4197310000000  0.5427770000000  0.5171790000000 1.0
C      1  0.5470140000000  0.5496770000000  0.6198250000000 1.0
C      1  0.5403280000000  0.5698060000000  0.4854350000000 1.0
C      1  0.5049340000000  0.4498490000000  0.5900840000000 1.0
C      1  0.5190700000000  0.5417820000000  0.4122700000000 1.0
C      1  0.5198150000000  0.5891120000000  0.4853220000000 1.0
C      1  0.4461020000000  0.4831520000000  0.6012610000000 1.0
C      1  0.4386460000000  0.5611330000000  0.4374590000000 1.0
C      1  0.4607790000000  0.4460090000000  0.5370540000000 1.0
C      1  0.3997670000000  0.4614670000000  0.5344840000000 1.0
C      1  0.5844260000000  0.5440400000000  0.4571420000000 1.0
C      1  0.4767920000000  0.5740800000000  0.4889050000000 1.0
C      1  0.5226930000000  0.4315430000000  0.5972610000000 1.0
C      1  0.5742190000000  0.4132720000000  0.5138550000000 1.0
C      1  0.4875350000000  0.3997940000000  0.4752760000000 1.0
C      1  0.5130980000000  0.5021540000000  0.4746800000000 1.0
C      1  0.4130170000000  0.5159100000000  0.5706820000000 1.0
C      1  0.5308480000000  0.4040380000000  0.5317070000000 1.0
C      1  0.5184400000000  0.5911640000000  0.4156640000000 1.0
C      1  0.4909530000000  0.5466520000000  0.5360820000000 1.0
C      1  0.5415020000000  0.4628140000000  0.4565580000000 1.0
C      1  0.5253470000000  0.4558120000000  0.4797740000000 1.0
C      1  0.4814910000000  0.5052370000000  0.4041070000000 1.0
C      1  0.3974550000000  0.5364760000000  0.5330640000000 1.0
C      1  0.4881950000000  0.5597810000000  0.5112710000000 1.0
C      1  0.4953570000000  0.5077050000000  0.4539640000000 1.0
C      1  0.4752360000000  0.4570900000000  0.4100640000000 1.0
C      1  0.4607850000000  0.5202340000000  0.4910140000000 1.0
C      1  0.5386710000000  0.5461230000000  0.4685950000000 1.0
C      1  0.5526290000000  0.5361630000000  0.5495570000000 1.0
C      1  0.4722200000000  0.5513900000000  0.3987440000000 1.0
C      1  0.5655040000000  0.4534320000000  0.5471070000000 1.0
C      1  0.5380240000000  0.4550980000000  0.5387790000000 1.0
C      1  0.4810070000000  0.4686960000000  0.4932540000000 1.0
C      1  0.6041540000000  0.5207250000000  0.4983840000000 1.0
C      1  0.4369050000000  0.5901070000000  0.5076160000000 1.0
C      1  0.4358110000000  0.4921700000000  0.4284880000000 1.0
C      1  0.4716660000000  0.5942070000000  0.5399700000000 1.0
C      1  0.5460740000000  0.4902140000000  0.3959680000000 1.0
C      1  0.4303390000000  0.5334550000000  0.5826850000000 1.0
C      1  0.5206570000000  0.4326790000000  0.4961430000000 1.0
C      1  0.4162560000000  0.4528690000000  0.5551260000000 1.0
C      1  0.4488970000000  0.5787250000000  0.5314730000000 1.0
C      1  0.5127960000000  0.6041910000000  0.5089420000000 1.0
C      1  0.4118900000000  0.5093310000000  0.4766470000000 1.0
C      1  0.5030790000000  0.5489350000000  0.5624240000000 1.0
C      1  0.4670820000000  0.5293720000000  0.5398020000000 1.0
C      1  0.4864140000000  0.5350700000000  0.4538330000000 1.0
C      1  0.4920250000000  0.4836100000000  0.5359380000000 1.0
C      1  0.4753440000000  0.4656130000000  0.5209500000000 1.0
C      1  0.4159090000000  0.5343870000000  0.4906220000000 1.0
C      1  0.4656480000000  0.4183450000000  0.5348870000000 1.0
C      1  0.4970670000000  0.5798990000000  0.4702860000000 1.0
C      1  0.4693410000000  0.4653160000000  0.4673840000000 1.0
C      1  0.5570900000000  0.5436180000000  0.4468700000000 1.0
C      1  0.5803950000000  0.4983660000000  0.5677400000000 1.0
C      1  0.5479200000000  0.5412560000000  0.5220710000000 1.0
C      1  0.4777260000000  0.4856280000000  0.4482400000000 1.0
C      1  0.4976850000000  0.5613910000000  0.4490290000000 1.0
C      1  0.4644370000000  0.4388170000000  0.4589200000000 1.0
C      1  0.5395800000000  0.5476040000000  0.5949350000000 1.0
C      1  0.5871140000000  0.5128260000000  0.5219960000000 1.0
C      1  0.5454510000000  0.5328600000000  0.4217850000000 1.0
C      1  0.5407670000000  0.4134860000000  0.6024410000000 1.0
C      1  0.5562550000000  0.3938550000000  0.5244330000000 1.0
END
