TITL C-599890-3321-115 416.347657181619 125000 -654.81249295816 0 0 108 (C1) n - 1
REM
REM in /home/nfs/bkarasulu/CARBON/AIRSS/Generating-Clusters/TERSOFF/Only-C1/FIRE-HFTN
REM
REM
REM
REM
REM
REM ./C.cell (11c1c37f851c82e70ff6c80c92926a4b)
REM AIRSS Version 0.9.1 bugfix July 2018 build 013d7b7c2542+ Fri, 06 Jul 2018 19:26:36 +0100
REM compiler GCC version 9.2.1 20190827 (Red Hat 9.2.1-1)
REM options -cpp -mtune=generic -march=x86-64 -g -O0 -fpre-include=/usr/include/finclude/math-vector-fortran.h
REM seed 155009376 -61895779 1636259421 1454959874 968103481 -1711102537 1118452482 794990529 1421701318 2073504101 -2032437813 -1364651169 -1965728105 -1728675706 1934545142 1262575820 -1425583061 -5550316 -1931541626 -1072458228 -807179933 1161961212 -976857183 -952293244 248892286 1768149296 315337779 -1317137843 938127392 2043587689 801688109 -1044533307 -290666310
REM
CELL 1.54180   50.00000   50.00000   50.00000   90.00000   90.00000   90.00000
LATT -1
SFAC C  
C      1  0.4077800000000  0.4839100000000  0.4346470000000 1.0
C      1  0.4743320000000  0.4846300000000  0.5407190000000 1.0
C      1  0.4324270000000  0.4295120000000  0.4914400000000 1.0
C      1  0.4326840000000  0.5071630000000  0.4892210000000 1.0
C      1  0.4762960000000  0.5518640000000  0.5894750000000 1.0
C      1  0.4929630000000  0.4186320000000  0.5617930000000 1.0
C      1  0.4479610000000  0.4158960000000  0.5124090000000 1.0
C      1  0.6084570000000  0.4713680000000  0.4949080000000 1.0
C      1  0.5362250000000  0.5502660000000  0.5515870000000 1.0
C      1  0.4497630000000  0.4317410000000  0.5380970000000 1.0
C      1  0.4306370000000  0.5536250000000  0.4917780000000 1.0
C      1  0.4685600000000  0.5039770000000  0.5904620000000 1.0
C      1  0.4968670000000  0.5697010000000  0.5173260000000 1.0
C      1  0.5371390000000  0.6410430000000  0.4536210000000 1.0
C      1  0.4465600000000  0.5705690000000  0.4738240000000 1.0
C      1  0.4846390000000  0.5075210000000  0.5280200000000 1.0
C      1  0.4327250000000  0.5074270000000  0.5413700000000 1.0
C      1  0.5532790000000  0.5321440000000  0.4673410000000 1.0
C      1  0.5593650000000  0.4119670000000  0.5133570000000 1.0
C      1  0.4910290000000  0.5291800000000  0.5459910000000 1.0
C      1  0.4479440000000  0.4449000000000  0.4735460000000 1.0
C      1  0.4335260000000  0.4564950000000  0.5387350000000 1.0
C      1  0.4997880000000  0.4073700000000  0.4551050000000 1.0
C      1  0.4721580000000  0.5197020000000  0.4031390000000 1.0
C      1  0.4752520000000  0.4467620000000  0.4366030000000 1.0
C      1  0.5118170000000  0.4782460000000  0.4665020000000 1.0
C      1  0.5677570000000  0.4717950000000  0.5734550000000 1.0
C      1  0.5813190000000  0.4653990000000  0.5010590000000 1.0
C      1  0.4632060000000  0.5015970000000  0.3839890000000 1.0
C      1  0.3947650000000  0.5051080000000  0.4455230000000 1.0
C      1  0.4045220000000  0.4318080000000  0.4940170000000 1.0
C      1  0.5202100000000  0.5905220000000  0.4453730000000 1.0
C      1  0.4458550000000  0.4821630000000  0.5401170000000 1.0
C      1  0.5445720000000  0.4341750000000  0.4403630000000 1.0
C      1  0.4625410000000  0.5577940000000  0.4545820000000 1.0
C      1  0.5181070000000  0.6400980000000  0.5495370000000 1.0
C      1  0.6120980000000  0.4795110000000  0.5532450000000 1.0
C      1  0.5274250000000  0.4152610000000  0.4502230000000 1.0
C      1  0.5633750000000  0.5099790000000  0.4481720000000 1.0
C      1  0.4171100000000  0.5300960000000  0.4836710000000 1.0
C      1  0.6315550000000  0.4839930000000  0.5352190000000 1.0
C      1  0.5201850000000  0.5720600000000  0.4670170000000 1.0
C      1  0.5653730000000  0.4812560000000  0.4531050000000 1.0
C      1  0.4518060000000  0.4985670000000  0.4726980000000 1.0
C      1  0.4830090000000  0.4192960000000  0.4348420000000 1.0
C      1  0.4622270000000  0.5441120000000  0.6133070000000 1.0
C      1  0.5024160000000  0.5011790000000  0.5070960000000 1.0
C      1  0.4055190000000  0.4543030000000  0.5355960000000 1.0
C      1  0.3976810000000  0.5250910000000  0.4636590000000 1.0
C      1  0.4757830000000  0.4508820000000  0.4815250000000 1.0
C      1  0.4600930000000  0.5881610000000  0.4922890000000 1.0
C      1  0.5007380000000  0.5644090000000  0.4027970000000 1.0
C      1  0.5561910000000  0.5685190000000  0.5427970000000 1.0
C      1  0.4784800000000  0.5353080000000  0.4486000000000 1.0
C      1  0.4347970000000  0.4755530000000  0.4360730000000 1.0
C      1  0.4607160000000  0.4487900000000  0.5838540000000 1.0
C      1  0.5273170000000  0.5349570000000  0.5099080000000 1.0
C      1  0.5761690000000  0.5284990000000  0.3988440000000 1.0
C      1  0.4902840000000  0.4615100000000  0.4581130000000 1.0
C      1  0.5254770000000  0.5442640000000  0.4605770000000 1.0
C      1  0.4365350000000  0.5337290000000  0.5363960000000 1.0
C      1  0.4871880000000  0.4052800000000  0.4824350000000 1.0
C      1  0.3920010000000  0.4434540000000  0.5149170000000 1.0
C      1  0.5199640000000  0.4187440000000  0.5622650000000 1.0
C      1  0.5644300000000  0.4294920000000  0.5348440000000 1.0
C      1  0.4681570000000  0.5727130000000  0.5160160000000 1.0
C      1  0.5574660000000  0.4581930000000  0.4369430000000 1.0
C      1  0.5342520000000  0.4675320000000  0.4821880000000 1.0
C      1  0.5389940000000  0.4998540000000  0.5402050000000 1.0
C      1  0.5233200000000  0.4854070000000  0.5211240000000 1.0
C      1  0.5023020000000  0.5271210000000  0.4621560000000 1.0
C      1  0.5110740000000  0.5781890000000  0.4934060000000 1.0
C      1  0.4447770000000  0.5537670000000  0.5182480000000 1.0
C      1  0.5339130000000  0.4124190000000  0.5045500000000 1.0
C      1  0.5770480000000  0.4547480000000  0.5286700000000 1.0
C      1  0.5061700000000  0.6212660000000  0.5630440000000 1.0
C      1  0.4657340000000  0.3958360000000  0.4998650000000 1.0
C      1  0.5859670000000  0.4692820000000  0.5521600000000 1.0
C      1  0.4915430000000  0.4314790000000  0.4945430000000 1.0
C      1  0.5158120000000  0.4341330000000  0.5078160000000 1.0
C      1  0.5710330000000  0.5738460000000  0.5208970000000 1.0
C      1  0.5777610000000  0.5689350000000  0.4952880000000 1.0
C      1  0.5471470000000  0.5241670000000  0.4957440000000 1.0
C      1  0.4465390000000  0.4509190000000  0.4444780000000 1.0
C      1  0.4669700000000  0.5161310000000  0.4307610000000 1.0
C      1  0.4520180000000  0.4967410000000  0.4443940000000 1.0
C      1  0.4946200000000  0.6005570000000  0.5748900000000 1.0
C      1  0.5733640000000  0.5544390000000  0.4727990000000 1.0
C      1  0.5417790000000  0.4715160000000  0.5798690000000 1.0
C      1  0.5710490000000  0.5189560000000  0.4225450000000 1.0
C      1  0.5438780000000  0.5223110000000  0.5550830000000 1.0
C      1  0.4804140000000  0.5273720000000  0.5732600000000 1.0
C      1  0.4576420000000  0.5169650000000  0.6139090000000 1.0
C      1  0.5165290000000  0.4713660000000  0.5711380000000 1.0
C      1  0.5116290000000  0.5814760000000  0.4201410000000 1.0
C      1  0.5622180000000  0.4722410000000  0.4803750000000 1.0
C      1  0.4711230000000  0.4757760000000  0.5850870000000 1.0
C      1  0.5456260000000  0.4249280000000  0.5561010000000 1.0
C      1  0.4845670000000  0.5774990000000  0.5831960000000 1.0
C      1  0.5033370000000  0.5033270000000  0.4782990000000 1.0
C      1  0.4545230000000  0.4835530000000  0.3673100000000 1.0
C      1  0.4871270000000  0.5424950000000  0.3959740000000 1.0
C      1  0.5262600000000  0.4601360000000  0.5085970000000 1.0
C      1  0.4901990000000  0.4754260000000  0.5629110000000 1.0
C      1  0.5288410000000  0.6167710000000  0.4490200000000 1.0
C      1  0.5117070000000  0.5482870000000  0.5332870000000 1.0
C      1  0.4666470000000  0.4296550000000  0.5619900000000 1.0
C      1  0.6299570000000  0.4799420000000  0.5086100000000 1.0
END
