TITL C-599890-3321-760 21.2845455387972 125000 -224.626192255901 0 0 39 (C1) n - 1
REM
REM in /home/nfs/bkarasulu/CARBON/AIRSS/Generating-Clusters/TERSOFF/Only-C1/FIRE-HFTN
REM
REM
REM
REM
REM
REM ./C.cell (11c1c37f851c82e70ff6c80c92926a4b)
REM AIRSS Version 0.9.1 bugfix July 2018 build 013d7b7c2542+ Fri, 06 Jul 2018 19:26:36 +0100
REM compiler GCC version 9.2.1 20190827 (Red Hat 9.2.1-1)
REM options -cpp -mtune=generic -march=x86-64 -g -O0 -fpre-include=/usr/include/finclude/math-vector-fortran.h
REM seed 183671794 2068575765 2092508418 456716496 506205138 -869664464 441020403 -1945234578 -271464648 1356482142 894057675 -146957437 246856064 298456592 2109090989 -1613628183 -1961516796 1693412265 -1549475220 -1939989201 794972057 245685914 -1164554607 1186855479 -1832015430 1868361153 -206965779 -905546181 1562683535 2069723953 1353896847 -1794484941 -710658828
REM
CELL 1.54180   50.00000   50.00000   50.00000   90.00000   90.00000   90.00000
LATT -1
SFAC C  
C      1  0.5433160000000  0.5473860000000  0.4906060000000 1.0
C      1  0.4624910000000  0.4598070000000  0.5712590000000 1.0
C      1  0.5165820000000  0.4423070000000  0.5332610000000 1.0
C      1  0.4814300000000  0.5088160000000  0.4223030000000 1.0
C      1  0.4445540000000  0.5326830000000  0.4920160000000 1.0
C      1  0.4356400000000  0.4222630000000  0.5337590000000 1.0
C      1  0.4871770000000  0.4951270000000  0.4452370000000 1.0
C      1  0.4499380000000  0.4543890000000  0.5004380000000 1.0
C      1  0.4677760000000  0.4795460000000  0.4580720000000 1.0
C      1  0.5781340000000  0.4062960000000  0.5184490000000 1.0
C      1  0.5463340000000  0.5742270000000  0.4925940000000 1.0
C      1  0.6155270000000  0.4727870000000  0.5018280000000 1.0
C      1  0.4208400000000  0.4021960000000  0.5413430000000 1.0
C      1  0.5597760000000  0.4247940000000  0.5185080000000 1.0
C      1  0.4516510000000  0.4438890000000  0.5262920000000 1.0
C      1  0.4692160000000  0.5407080000000  0.4894430000000 1.0
C      1  0.5356670000000  0.4848370000000  0.4455060000000 1.0
C      1  0.4114630000000  0.6426530000000  0.4819170000000 1.0
C      1  0.5245080000000  0.5902510000000  0.4919390000000 1.0
C      1  0.4329560000000  0.6280060000000  0.4836920000000 1.0
C      1  0.5403570000000  0.4447080000000  0.5183490000000 1.0
C      1  0.4980310000000  0.5804550000000  0.4892940000000 1.0
C      1  0.4701440000000  0.4550500000000  0.5448310000000 1.0
C      1  0.5909540000000  0.4726510000000  0.4931530000000 1.0
C      1  0.4950510000000  0.5100870000000  0.5398770000000 1.0
C      1  0.4962480000000  0.4614980000000  0.5362200000000 1.0
C      1  0.5575600000000  0.4750150000000  0.4575560000000 1.0
C      1  0.4763020000000  0.5977410000000  0.4873220000000 1.0
C      1  0.4554830000000  0.4659630000000  0.4772420000000 1.0
C      1  0.4948680000000  0.5517550000000  0.4885980000000 1.0
C      1  0.5215720000000  0.4884120000000  0.5047550000000 1.0
C      1  0.5181160000000  0.5346650000000  0.4876840000000 1.0
C      1  0.5428660000000  0.4688480000000  0.5030930000000 1.0
C      1  0.4547730000000  0.6130630000000  0.4855000000000 1.0
C      1  0.5128490000000  0.4965680000000  0.4570280000000 1.0
C      1  0.5035270000000  0.4875260000000  0.5270200000000 1.0
C      1  0.4553300000000  0.4644230000000  0.5958860000000 1.0
C      1  0.5644570000000  0.4718190000000  0.4846510000000 1.0
C      1  0.5165350000000  0.5067850000000  0.4834800000000 1.0
END
