TITL C-599892-9790-366 0.535002707068685 125000 -597.940089384359 0 0 98 (C1) n - 1
REM
REM in /home/nfs/bkarasulu/CARBON/AIRSS/Generating-Clusters/TERSOFF/Only-C1/FIRE-HFTN
REM
REM
REM
REM
REM
REM ./C.cell (11c1c37f851c82e70ff6c80c92926a4b)
REM AIRSS Version 0.9.1 bugfix July 2018 build 013d7b7c2542+ Fri, 06 Jul 2018 19:26:36 +0100
REM compiler GCC version 9.2.1 20190827 (Red Hat 9.2.1-1)
REM options -cpp -mtune=generic -march=x86-64 -g -O0 -fpre-include=/usr/include/finclude/math-vector-fortran.h
REM seed -393382 -2064172398 806238255 -2094907457 269368854 -341637312 1102819977 -1355949062 1218864259 -148532552 -339827211 512665214 841905943 -381193215 -1348482420 -936848515 1293209226 1709833170 1178589650 447095951 -90298395 1871061498 182824527 -1542846383 2143808209 -922091665 368874607 115521867 -400465595 1849814877 -1383945653 2076832250 998478943
REM
CELL 1.54180   50.00000   50.00000   50.00000   90.00000   90.00000   90.00000
LATT -1
SFAC C  
C      1  0.4195470000000  0.5295380000000  0.5341200000000 1.0
C      1  0.4175220000000  0.5282910000000  0.5042510000000 1.0
C      1  0.4818930000000  0.5263580000000  0.4977490000000 1.0
C      1  0.4853670000000  0.4500040000000  0.4914440000000 1.0
C      1  0.4376710000000  0.5752260000000  0.4824840000000 1.0
C      1  0.5632870000000  0.4978290000000  0.5476060000000 1.0
C      1  0.5296700000000  0.4665130000000  0.5006840000000 1.0
C      1  0.5429390000000  0.5241720000000  0.5853770000000 1.0
C      1  0.5689090000000  0.5912220000000  0.4382950000000 1.0
C      1  0.5442240000000  0.5304270000000  0.4492130000000 1.0
C      1  0.4894130000000  0.4888870000000  0.5490600000000 1.0
C      1  0.3879930000000  0.4888800000000  0.4546670000000 1.0
C      1  0.4812070000000  0.4328510000000  0.4674890000000 1.0
C      1  0.4943940000000  0.5398340000000  0.5985100000000 1.0
C      1  0.5298370000000  0.4548120000000  0.4297010000000 1.0
C      1  0.4655210000000  0.5034790000000  0.4912560000000 1.0
C      1  0.5049220000000  0.5347620000000  0.4838610000000 1.0
C      1  0.5060160000000  0.5050150000000  0.4494560000000 1.0
C      1  0.4826540000000  0.5327880000000  0.5250670000000 1.0
C      1  0.5064440000000  0.4754300000000  0.5671350000000 1.0
C      1  0.5189440000000  0.5263510000000  0.6008310000000 1.0
C      1  0.5109670000000  0.4448460000000  0.5079990000000 1.0
C      1  0.4346770000000  0.4548860000000  0.5034000000000 1.0
C      1  0.4548230000000  0.4618040000000  0.4371300000000 1.0
C      1  0.5204060000000  0.5246950000000  0.4634190000000 1.0
C      1  0.5053510000000  0.5044490000000  0.4208260000000 1.0
C      1  0.4547960000000  0.4322140000000  0.5990480000000 1.0
C      1  0.4603240000000  0.5862970000000  0.4739030000000 1.0
C      1  0.4196450000000  0.4185370000000  0.4759420000000 1.0
C      1  0.5258970000000  0.5196220000000  0.5323340000000 1.0
C      1  0.5584250000000  0.4713080000000  0.5038680000000 1.0
C      1  0.4961750000000  0.5719400000000  0.4447110000000 1.0
C      1  0.4653930000000  0.4766170000000  0.5404690000000 1.0
C      1  0.4550180000000  0.5422920000000  0.5715960000000 1.0
C      1  0.5900900000000  0.5765690000000  0.4455480000000 1.0
C      1  0.4524300000000  0.5107090000000  0.4212090000000 1.0
C      1  0.5510980000000  0.5490070000000  0.5739780000000 1.0
C      1  0.4468670000000  0.4641330000000  0.5255260000000 1.0
C      1  0.4904350000000  0.4816930000000  0.4126060000000 1.0
C      1  0.4783100000000  0.4051820000000  0.4706100000000 1.0
C      1  0.5916650000000  0.5507880000000  0.5100740000000 1.0
C      1  0.3805900000000  0.5051980000000  0.4744420000000 1.0
C      1  0.4547510000000  0.4840910000000  0.6073130000000 1.0
C      1  0.4792730000000  0.4455950000000  0.4414420000000 1.0
C      1  0.4325990000000  0.5346290000000  0.5568330000000 1.0
C      1  0.5535240000000  0.4721400000000  0.4260840000000 1.0
C      1  0.5329350000000  0.4472800000000  0.4566990000000 1.0
C      1  0.5333310000000  0.5446140000000  0.4259310000000 1.0
C      1  0.5693060000000  0.4653940000000  0.4761870000000 1.0
C      1  0.4988200000000  0.3807240000000  0.5084790000000 1.0
C      1  0.4883020000000  0.5829530000000  0.4705970000000 1.0
C      1  0.4079250000000  0.4734860000000  0.4459210000000 1.0
C      1  0.4990490000000  0.5137680000000  0.5384270000000 1.0
C      1  0.4793310000000  0.4791060000000  0.4846190000000 1.0
C      1  0.5988050000000  0.5541030000000  0.4600370000000 1.0
C      1  0.4742340000000  0.5623950000000  0.5613280000000 1.0
C      1  0.5645790000000  0.4766430000000  0.4014630000000 1.0
C      1  0.4291600000000  0.4442870000000  0.4776330000000 1.0
C      1  0.5276260000000  0.5793160000000  0.5385280000000 1.0
C      1  0.5658590000000  0.4841420000000  0.4514350000000 1.0
C      1  0.4411320000000  0.5213010000000  0.6343060000000 1.0
C      1  0.5435980000000  0.5691240000000  0.5576520000000 1.0
C      1  0.4542510000000  0.4578180000000  0.6039180000000 1.0
C      1  0.5713090000000  0.5386520000000  0.5219570000000 1.0
C      1  0.5173400000000  0.3966510000000  0.5223690000000 1.0
C      1  0.4934140000000  0.5644550000000  0.5829530000000 1.0
C      1  0.4620110000000  0.4841470000000  0.4199070000000 1.0
C      1  0.5504130000000  0.4981430000000  0.5737680000000 1.0
C      1  0.5041170000000  0.5765290000000  0.5228440000000 1.0
C      1  0.5260820000000  0.4199670000000  0.5089340000000 1.0
C      1  0.4542510000000  0.5115760000000  0.6123410000000 1.0
C      1  0.4593880000000  0.5363660000000  0.4254330000000 1.0
C      1  0.5006320000000  0.4839200000000  0.4661170000000 1.0
C      1  0.5311180000000  0.4776790000000  0.5776380000000 1.0
C      1  0.5674880000000  0.5135670000000  0.4512780000000 1.0
C      1  0.5917270000000  0.5280030000000  0.4516560000000 1.0
C      1  0.5496790000000  0.4199640000000  0.4919410000000 1.0
C      1  0.5227370000000  0.5707210000000  0.4331450000000 1.0
C      1  0.5262140000000  0.3902650000000  0.5479390000000 1.0
C      1  0.5420560000000  0.3833070000000  0.5975690000000 1.0
C      1  0.4380990000000  0.5087090000000  0.4936780000000 1.0
C      1  0.3907810000000  0.5191120000000  0.4948720000000 1.0
C      1  0.5564780000000  0.4382740000000  0.4708990000000 1.0
C      1  0.5342720000000  0.3865000000000  0.5728940000000 1.0
C      1  0.4756530000000  0.5568480000000  0.4315210000000 1.0
C      1  0.5026950000000  0.5838350000000  0.4952610000000 1.0
C      1  0.4672440000000  0.5292440000000  0.5947460000000 1.0
C      1  0.5423310000000  0.5908420000000  0.4346170000000 1.0
C      1  0.4836710000000  0.5596500000000  0.5347050000000 1.0
C      1  0.4233120000000  0.5554440000000  0.4928860000000 1.0
C      1  0.4312680000000  0.4595110000000  0.4531350000000 1.0
C      1  0.6041880000000  0.5570350000000  0.4874090000000 1.0
C      1  0.5536840000000  0.5202290000000  0.5327240000000 1.0
C      1  0.5226670000000  0.4687310000000  0.4729640000000 1.0
C      1  0.4837030000000  0.3846100000000  0.4867340000000 1.0
C      1  0.5191250000000  0.5263130000000  0.4089400000000 1.0
C      1  0.5014630000000  0.4561720000000  0.4229690000000 1.0
C      1  0.5692400000000  0.4766630000000  0.5295370000000 1.0
END
