TITL C-599890-3321-877 -0.00179862803286893 125000 -499.98300565008 0 0 85 (C1) n - 1
REM
REM in /home/nfs/bkarasulu/CARBON/AIRSS/Generating-Clusters/TERSOFF/Only-C1/FIRE-HFTN
REM
REM
REM
REM
REM
REM ./C.cell (11c1c37f851c82e70ff6c80c92926a4b)
REM AIRSS Version 0.9.1 bugfix July 2018 build 013d7b7c2542+ Fri, 06 Jul 2018 19:26:36 +0100
REM compiler GCC version 9.2.1 20190827 (Red Hat 9.2.1-1)
REM options -cpp -mtune=generic -march=x86-64 -g -O0 -fpre-include=/usr/include/finclude/math-vector-fortran.h
REM seed 1235698878 306506572 93374725 -2080612073 168991340 -781557004 1011243171 725125882 -378473455 1853216939 -492226255 1937490220 -1929056318 -863369300 -344270252 -1223823535 -255234551 425494993 -1976027782 1413307841 -758807603 811066054 55796212 1260569236 630333309 403544408 765043646 -1401595754 -116221911 -1300910631 -1248674037 1323291858 1647139035
REM
CELL 1.54180   50.00000   50.00000   50.00000   90.00000   90.00000   90.00000
LATT -1
SFAC C  
C      1  0.4613220000000  0.5475170000000  0.5056290000000 1.0
C      1  0.4748520000000  0.4486970000000  0.5154550000000 1.0
C      1  0.4174490000000  0.5336150000000  0.4404530000000 1.0
C      1  0.4328860000000  0.5081450000000  0.5630930000000 1.0
C      1  0.4771770000000  0.4624900000000  0.5564650000000 1.0
C      1  0.5062870000000  0.4358230000000  0.4756260000000 1.0
C      1  0.5269020000000  0.5372350000000  0.5936910000000 1.0
C      1  0.5015500000000  0.5489230000000  0.5321330000000 1.0
C      1  0.4794610000000  0.5001970000000  0.4948110000000 1.0
C      1  0.4184730000000  0.4501820000000  0.4851590000000 1.0
C      1  0.5382270000000  0.5401480000000  0.4290420000000 1.0
C      1  0.5006680000000  0.4135600000000  0.4950600000000 1.0
C      1  0.5642910000000  0.5006430000000  0.5765970000000 1.0
C      1  0.5814440000000  0.4941680000000  0.5312840000000 1.0
C      1  0.3979510000000  0.4868650000000  0.4538630000000 1.0
C      1  0.4495330000000  0.4133600000000  0.4939100000000 1.0
C      1  0.5583310000000  0.5530640000000  0.4147340000000 1.0
C      1  0.5168780000000  0.4954780000000  0.4300150000000 1.0
C      1  0.5667180000000  0.5137720000000  0.4885180000000 1.0
C      1  0.5318150000000  0.5030230000000  0.5422460000000 1.0
C      1  0.4240510000000  0.4617290000000  0.5109290000000 1.0
C      1  0.4831050000000  0.4980010000000  0.4673160000000 1.0
C      1  0.5637760000000  0.4305220000000  0.5373350000000 1.0
C      1  0.4757240000000  0.5568720000000  0.5868990000000 1.0
C      1  0.4306530000000  0.4611320000000  0.5722370000000 1.0
C      1  0.5235780000000  0.4050940000000  0.5100080000000 1.0
C      1  0.5678770000000  0.4814210000000  0.5535000000000 1.0
C      1  0.5904540000000  0.4240640000000  0.5419370000000 1.0
C      1  0.5840090000000  0.5145080000000  0.5114030000000 1.0
C      1  0.4583740000000  0.4395900000000  0.4557480000000 1.0
C      1  0.5236690000000  0.4540120000000  0.5406420000000 1.0
C      1  0.4858450000000  0.5343740000000  0.5501310000000 1.0
C      1  0.5493590000000  0.5215590000000  0.5881370000000 1.0
C      1  0.4463860000000  0.5261370000000  0.5185270000000 1.0
C      1  0.4740390000000  0.4205060000000  0.5061060000000 1.0
C      1  0.5523590000000  0.4558050000000  0.5463990000000 1.0
C      1  0.5018900000000  0.5494420000000  0.5947690000000 1.0
C      1  0.5506360000000  0.5689610000000  0.5414840000000 1.0
C      1  0.5179600000000  0.4565480000000  0.4923410000000 1.0
C      1  0.5203480000000  0.6212500000000  0.4995520000000 1.0
C      1  0.4581060000000  0.5047360000000  0.5776980000000 1.0
C      1  0.4626170000000  0.5485800000000  0.5617270000000 1.0
C      1  0.4883280000000  0.5565620000000  0.5079810000000 1.0
C      1  0.5046910000000  0.4529690000000  0.5189650000000 1.0
C      1  0.5123830000000  0.5969410000000  0.4945740000000 1.0
C      1  0.4090390000000  0.4740870000000  0.5319170000000 1.0
C      1  0.4386140000000  0.4319950000000  0.4751240000000 1.0
C      1  0.4019830000000  0.4644050000000  0.4675840000000 1.0
C      1  0.4038460000000  0.5112420000000  0.4450250000000 1.0
C      1  0.5228440000000  0.4938560000000  0.5663050000000 1.0
C      1  0.4856400000000  0.4400020000000  0.4564290000000 1.0
C      1  0.4960270000000  0.4954130000000  0.5172000000000 1.0
C      1  0.5340600000000  0.5457560000000  0.4570850000000 1.0
C      1  0.5344270000000  0.4742250000000  0.4270400000000 1.0
C      1  0.5577200000000  0.4875660000000  0.4817480000000 1.0
C      1  0.5342960000000  0.4798480000000  0.4949530000000 1.0
C      1  0.5460390000000  0.4125860000000  0.5233500000000 1.0
C      1  0.5173550000000  0.4808280000000  0.5884860000000 1.0
C      1  0.4955600000000  0.5272230000000  0.4034240000000 1.0
C      1  0.4894090000000  0.4968680000000  0.4401610000000 1.0
C      1  0.5039430000000  0.5708670000000  0.4891560000000 1.0
C      1  0.4373800000000  0.5511330000000  0.4388530000000 1.0
C      1  0.4561160000000  0.4521960000000  0.5698280000000 1.0
C      1  0.5095620000000  0.5592890000000  0.4638800000000 1.0
C      1  0.4854450000000  0.4867650000000  0.5434380000000 1.0
C      1  0.4880650000000  0.5614990000000  0.4458260000000 1.0
C      1  0.5571840000000  0.4651570000000  0.4377610000000 1.0
C      1  0.5272440000000  0.5580100000000  0.5379610000000 1.0
C      1  0.4948480000000  0.5695030000000  0.3807760000000 1.0
C      1  0.6028430000000  0.5341680000000  0.5140550000000 1.0
C      1  0.4763160000000  0.5119540000000  0.4190330000000 1.0
C      1  0.5767380000000  0.5653750000000  0.4009960000000 1.0
C      1  0.5528710000000  0.5351600000000  0.4757400000000 1.0
C      1  0.5210730000000  0.5212880000000  0.4167190000000 1.0
C      1  0.4535650000000  0.4991820000000  0.5075560000000 1.0
C      1  0.4398180000000  0.5322650000000  0.5473010000000 1.0
C      1  0.4516640000000  0.4695190000000  0.5128350000000 1.0
C      1  0.5241010000000  0.4970550000000  0.5156970000000 1.0
C      1  0.6156770000000  0.4190960000000  0.5462090000000 1.0
C      1  0.4812130000000  0.5083640000000  0.5607270000000 1.0
C      1  0.4620950000000  0.5608910000000  0.4399730000000 1.0
C      1  0.5683950000000  0.4720380000000  0.4611340000000 1.0
C      1  0.4913010000000  0.5423520000000  0.3802330000000 1.0
C      1  0.4837280000000  0.5297890000000  0.3570970000000 1.0
C      1  0.4195270000000  0.4829620000000  0.5572510000000 1.0
END
