TITL C-599894-471-1238 11.4415502126162 125000 -387.932460665206 0 0 67 (C1) n - 1
REM
REM in /home/nfs/bkarasulu/CARBON/AIRSS/Generating-Clusters/TERSOFF/Only-C1/FIRE-HFTN
REM
REM
REM
REM
REM
REM ./C.cell (11c1c37f851c82e70ff6c80c92926a4b)
REM AIRSS Version 0.9.1 bugfix July 2018 build 013d7b7c2542+ Fri, 06 Jul 2018 19:26:36 +0100
REM compiler GCC version 9.2.1 20190827 (Red Hat 9.2.1-1)
REM options -cpp -mtune=generic -march=x86-64 -g -O0 -fpre-include=/usr/include/finclude/math-vector-fortran.h
REM seed 564146608 275139915 -268942962 1956631444 -786684443 -919454467 1291967156 -1673798033 1778915572 -1220993460 1836602895 -1285901626 -665106937 1741017091 1550580152 -1228798881 1513686594 -224129605 1221546408 1079237836 -1581350672 1885013352 1746810244 307691083 774264610 -1731585131 669379650 -1028537021 -1821410188 846769298 -978698561 -92363873 -1311111099
REM
CELL 1.54180   50.00000   50.00000   50.00000   90.00000   90.00000   90.00000
LATT -1
SFAC C  
C      1  0.5057640000000  0.5466130000000  0.3984480000000 1.0
C      1  0.5232850000000  0.4799840000000  0.4877950000000 1.0
C      1  0.5984860000000  0.5341220000000  0.4791330000000 1.0
C      1  0.4991600000000  0.5055750000000  0.5888710000000 1.0
C      1  0.4683490000000  0.5415480000000  0.5407700000000 1.0
C      1  0.4938200000000  0.4805240000000  0.5435990000000 1.0
C      1  0.4587500000000  0.5689300000000  0.5430550000000 1.0
C      1  0.5154450000000  0.5049200000000  0.6114080000000 1.0
C      1  0.4632880000000  0.4697210000000  0.5062320000000 1.0
C      1  0.4665180000000  0.4220490000000  0.4881890000000 1.0
C      1  0.4044020000000  0.4769200000000  0.5672000000000 1.0
C      1  0.5011750000000  0.4226530000000  0.5236830000000 1.0
C      1  0.5463380000000  0.4207140000000  0.5637060000000 1.0
C      1  0.4818210000000  0.5258420000000  0.3571440000000 1.0
C      1  0.4823320000000  0.4214710000000  0.5443160000000 1.0
C      1  0.6313390000000  0.5620650000000  0.5092020000000 1.0
C      1  0.5376860000000  0.5596470000000  0.4316730000000 1.0
C      1  0.4640610000000  0.5823660000000  0.6403860000000 1.0
C      1  0.4852440000000  0.5695680000000  0.5053790000000 1.0
C      1  0.4315240000000  0.4776470000000  0.5635240000000 1.0
C      1  0.4957750000000  0.5675650000000  0.4791270000000 1.0
C      1  0.4462770000000  0.4536810000000  0.5639320000000 1.0
C      1  0.5264010000000  0.4755230000000  0.4588680000000 1.0
C      1  0.4831200000000  0.5108390000000  0.4373070000000 1.0
C      1  0.5611610000000  0.5061310000000  0.6759000000000 1.0
C      1  0.5394570000000  0.4872900000000  0.4136070000000 1.0
C      1  0.5350530000000  0.4835840000000  0.3881890000000 1.0
C      1  0.5135350000000  0.4344260000000  0.4794400000000 1.0
C      1  0.4955950000000  0.5401790000000  0.3747880000000 1.0
C      1  0.4597070000000  0.6010900000000  0.6579940000000 1.0
C      1  0.5021260000000  0.4873010000000  0.5678940000000 1.0
C      1  0.5246680000000  0.4398990000000  0.5251740000000 1.0
C      1  0.4684890000000  0.5633310000000  0.6224800000000 1.0
C      1  0.4851410000000  0.5411410000000  0.5165730000000 1.0
C      1  0.4571040000000  0.4882980000000  0.3729690000000 1.0
C      1  0.4589970000000  0.4853190000000  0.3993610000000 1.0
C      1  0.4975810000000  0.5242650000000  0.4959370000000 1.0
C      1  0.4687760000000  0.4941720000000  0.4224450000000 1.0
C      1  0.4443370000000  0.5023380000000  0.5593320000000 1.0
C      1  0.6150630000000  0.5482340000000  0.4942540000000 1.0
C      1  0.4854520000000  0.4830840000000  0.5170680000000 1.0
C      1  0.5429200000000  0.4897390000000  0.4412290000000 1.0
C      1  0.5719960000000  0.4870440000000  0.5498660000000 1.0
C      1  0.4939740000000  0.4201530000000  0.4953180000000 1.0
C      1  0.4526920000000  0.4017150000000  0.4765300000000 1.0
C      1  0.4719380000000  0.4818940000000  0.3090910000000 1.0
C      1  0.5590330000000  0.4644600000000  0.5487930000000 1.0
C      1  0.5816520000000  0.5198130000000  0.4645050000000 1.0
C      1  0.5636450000000  0.5055270000000  0.4513450000000 1.0
C      1  0.5461120000000  0.5056560000000  0.6546180000000 1.0
C      1  0.5147770000000  0.5462050000000  0.4249810000000 1.0
C      1  0.5168210000000  0.4484660000000  0.4547190000000 1.0
C      1  0.5000190000000  0.5318790000000  0.4447970000000 1.0
C      1  0.5007180000000  0.5401530000000  0.4716250000000 1.0
C      1  0.5308100000000  0.5051770000000  0.6329810000000 1.0
C      1  0.5033540000000  0.4968970000000  0.4994320000000 1.0
C      1  0.4631250000000  0.5231050000000  0.5613550000000 1.0
C      1  0.4336510000000  0.5095990000000  0.3152060000000 1.0
C      1  0.4730660000000  0.5443420000000  0.6045940000000 1.0
C      1  0.4651000000000  0.5041210000000  0.3512400000000 1.0
C      1  0.4784730000000  0.5248320000000  0.5854760000000 1.0
C      1  0.4689610000000  0.5849140000000  0.5230440000000 1.0
C      1  0.5433000000000  0.4414640000000  0.5461260000000 1.0
C      1  0.5266220000000  0.4530820000000  0.4996990000000 1.0
C      1  0.4567670000000  0.4984500000000  0.3247700000000 1.0
C      1  0.4550800000000  0.4470920000000  0.4944640000000 1.0
C      1  0.4627920000000  0.4336520000000  0.5578450000000 1.0
END
