TITL C-599894-471-1357 0.000189198013068201 125000 -170.908344272075 0 0 30 (C1) n - 1
REM
REM in /home/nfs/bkarasulu/CARBON/AIRSS/Generating-Clusters/TERSOFF/Only-C1/FIRE-HFTN
REM
REM
REM
REM
REM
REM ./C.cell (11c1c37f851c82e70ff6c80c92926a4b)
REM AIRSS Version 0.9.1 bugfix July 2018 build 013d7b7c2542+ Fri, 06 Jul 2018 19:26:36 +0100
REM compiler GCC version 9.2.1 20190827 (Red Hat 9.2.1-1)
REM options -cpp -mtune=generic -march=x86-64 -g -O0 -fpre-include=/usr/include/finclude/math-vector-fortran.h
REM seed -1001079120 1937139983 -1635188857 1188830867 1094343274 721270223 323184561 -1123128845 -799525467 -493430924 119847702 -1471964641 -1859760371 1062089898 130479361 -1261420612 1564539883 625962635 -1539224280 2007657318 -1404695434 -1948526224 1662828228 877841769 -1117134899 -972047369 -567850706 -353400873 -1775745717 -799664973 504505120 2024152370 -960679747
REM
CELL 1.54180   50.00000   50.00000   50.00000   90.00000   90.00000   90.00000
LATT -1
SFAC C  
C      1  0.5431650000000  0.5226850000000  0.4832290000000 1.0
C      1  0.5695740000000  0.5309980000000  0.4866150000000 1.0
C      1  0.4997140000000  0.5346950000000  0.4672290000000 1.0
C      1  0.5158880000000  0.4537860000000  0.4923320000000 1.0
C      1  0.5216240000000  0.5417380000000  0.4848820000000 1.0
C      1  0.5313890000000  0.4971330000000  0.5468140000000 1.0
C      1  0.4890480000000  0.4411850000000  0.5353410000000 1.0
C      1  0.4812860000000  0.5542600000000  0.5133610000000 1.0
C      1  0.5352060000000  0.4750230000000  0.4996490000000 1.0
C      1  0.5215310000000  0.4823720000000  0.4563490000000 1.0
C      1  0.4633180000000  0.4820450000000  0.5293920000000 1.0
C      1  0.5942520000000  0.5383820000000  0.4905610000000 1.0
C      1  0.4642330000000  0.5304360000000  0.5049520000000 1.0
C      1  0.4661150000000  0.5099440000000  0.5347710000000 1.0
C      1  0.4688700000000  0.4775000000000  0.5022760000000 1.0
C      1  0.5372890000000  0.4948190000000  0.4778710000000 1.0
C      1  0.4853770000000  0.5175820000000  0.5534180000000 1.0
C      1  0.4540360000000  0.4736280000000  0.4775780000000 1.0
C      1  0.4904960000000  0.4938620000000  0.4936340000000 1.0
C      1  0.4746430000000  0.4612570000000  0.4606710000000 1.0
C      1  0.5402910000000  0.4826760000000  0.5261530000000 1.0
C      1  0.4715520000000  0.4597610000000  0.5448670000000 1.0
C      1  0.4381780000000  0.5201450000000  0.4923710000000 1.0
C      1  0.5111730000000  0.5112010000000  0.5572730000000 1.0
C      1  0.5034810000000  0.4607260000000  0.4655870000000 1.0
C      1  0.4359380000000  0.4965120000000  0.4773580000000 1.0
C      1  0.4960350000000  0.5419310000000  0.4414520000000 1.0
C      1  0.5084940000000  0.5560830000000  0.5067390000000 1.0
C      1  0.5043960000000  0.4385360000000  0.5132180000000 1.0
C      1  0.4834060000000  0.5191000000000  0.4840590000000 1.0
END
