TITL C-599896-8500-1091 1.22530623253629 125000 -1227.73941140313 0 0 200 (C1) n - 1
REM
REM in /home/nfs/bkarasulu/CARBON/AIRSS/Generating-Clusters/TERSOFF/Only-C1/FIRE-HFTN
REM
REM
REM
REM
REM
REM ./C.cell (11c1c37f851c82e70ff6c80c92926a4b)
REM AIRSS Version 0.9.1 bugfix July 2018 build 013d7b7c2542+ Fri, 06 Jul 2018 19:26:36 +0100
REM compiler GCC version 9.2.1 20190827 (Red Hat 9.2.1-1)
REM options -cpp -mtune=generic -march=x86-64 -g -O0 -fpre-include=/usr/include/finclude/math-vector-fortran.h
REM seed -1193019909 -1948178579 589102590 -138328965 625366408 -445932354 -2033543239 793156090 154306196 -951224942 842309468 1787368779 -1824988870 -1128309954 -730146658 1069915519 -1230099539 -557152303 -1133641952 1183133180 337918435 -77521603 -307706232 -364089964 -1049626455 -856253137 1293215701 1187113518 -749107746 1130045388 -1307857884 -1193904413 -2101268435
REM
CELL 1.54180   50.00000   50.00000   50.00000   90.00000   90.00000   90.00000
LATT -1
SFAC C  
C      1  0.5380880000000  0.4398610000000  0.6035740000000 1.0
C      1  0.4870220000000  0.4719240000000  0.4712830000000 1.0
C      1  0.4267970000000  0.4246220000000  0.4266490000000 1.0
C      1  0.6124240000000  0.3923210000000  0.4442500000000 1.0
C      1  0.5306240000000  0.5434720000000  0.4712420000000 1.0
C      1  0.4303930000000  0.5613270000000  0.5920520000000 1.0
C      1  0.4517950000000  0.4164890000000  0.4209950000000 1.0
C      1  0.4213890000000  0.5163520000000  0.4573400000000 1.0
C      1  0.5292880000000  0.5671300000000  0.5470650000000 1.0
C      1  0.4612240000000  0.4726680000000  0.4585030000000 1.0
C      1  0.5607730000000  0.5664990000000  0.4448160000000 1.0
C      1  0.4126120000000  0.5054430000000  0.5021560000000 1.0
C      1  0.4738170000000  0.4661520000000  0.5733980000000 1.0
C      1  0.5362150000000  0.5261380000000  0.6251770000000 1.0
C      1  0.5636970000000  0.5557320000000  0.3998140000000 1.0
C      1  0.5456030000000  0.5279760000000  0.3624890000000 1.0
C      1  0.4773260000000  0.5294520000000  0.4485800000000 1.0
C      1  0.5406640000000  0.4751730000000  0.4552200000000 1.0
C      1  0.4039280000000  0.5828610000000  0.5231790000000 1.0
C      1  0.4737330000000  0.4060820000000  0.4353130000000 1.0
C      1  0.4657150000000  0.3779620000000  0.5470200000000 1.0
C      1  0.4830930000000  0.5349390000000  0.3833460000000 1.0
C      1  0.4427890000000  0.3902350000000  0.4743930000000 1.0
C      1  0.4443850000000  0.3758900000000  0.4987690000000 1.0
C      1  0.4536110000000  0.4313980000000  0.5039140000000 1.0
C      1  0.6167390000000  0.4717470000000  0.5097030000000 1.0
C      1  0.5291980000000  0.4234500000000  0.5492760000000 1.0
C      1  0.5763840000000  0.4108080000000  0.5222920000000 1.0
C      1  0.5106420000000  0.5039140000000  0.4312910000000 1.0
C      1  0.5267380000000  0.4808010000000  0.4293310000000 1.0
C      1  0.5382470000000  0.6176580000000  0.5164220000000 1.0
C      1  0.5026890000000  0.5317820000000  0.5640050000000 1.0
C      1  0.4615110000000  0.4537200000000  0.5506500000000 1.0
C      1  0.5178940000000  0.4719390000000  0.4025480000000 1.0
C      1  0.5178670000000  0.5166160000000  0.5821070000000 1.0
C      1  0.4538890000000  0.4737440000000  0.5928240000000 1.0
C      1  0.6008110000000  0.4530750000000  0.5536940000000 1.0
C      1  0.5342950000000  0.4224550000000  0.3923640000000 1.0
C      1  0.4819760000000  0.5202440000000  0.4745510000000 1.0
C      1  0.4721040000000  0.6409380000000  0.5396620000000 1.0
C      1  0.5156010000000  0.4485250000000  0.5508710000000 1.0
C      1  0.6041670000000  0.5982440000000  0.5241030000000 1.0
C      1  0.6177680000000  0.5143570000000  0.5419070000000 1.0
C      1  0.5748320000000  0.4303600000000  0.4371560000000 1.0
C      1  0.3699940000000  0.4871610000000  0.4610350000000 1.0
C      1  0.5184580000000  0.5241290000000  0.5111450000000 1.0
C      1  0.5846210000000  0.3841520000000  0.5250210000000 1.0
C      1  0.5546190000000  0.4378940000000  0.3832780000000 1.0
C      1  0.5589840000000  0.4721060000000  0.5077080000000 1.0
C      1  0.5448300000000  0.5788140000000  0.4009570000000 1.0
C      1  0.4803840000000  0.4296020000000  0.4952250000000 1.0
C      1  0.5250830000000  0.5015440000000  0.6341520000000 1.0
C      1  0.5634250000000  0.5320730000000  0.3835780000000 1.0
C      1  0.5431350000000  0.6346710000000  0.5355480000000 1.0
C      1  0.4965580000000  0.4844660000000  0.3858420000000 1.0
C      1  0.5605490000000  0.3426550000000  0.5110150000000 1.0
C      1  0.4548700000000  0.5362920000000  0.3899350000000 1.0
C      1  0.5476180000000  0.4216290000000  0.4376510000000 1.0
C      1  0.4370140000000  0.4561490000000  0.5052060000000 1.0
C      1  0.6093300000000  0.4649210000000  0.4815510000000 1.0
C      1  0.5101660000000  0.4455230000000  0.5993260000000 1.0
C      1  0.5045670000000  0.4640640000000  0.5761670000000 1.0
C      1  0.5796610000000  0.3582810000000  0.5211700000000 1.0
C      1  0.4985140000000  0.4029870000000  0.5818190000000 1.0
C      1  0.5761650000000  0.5089800000000  0.3946600000000 1.0
C      1  0.5541080000000  0.6014610000000  0.4177500000000 1.0
C      1  0.5737860000000  0.4526930000000  0.3953700000000 1.0
C      1  0.4621060000000  0.4868480000000  0.4331190000000 1.0
C      1  0.5187400000000  0.3641360000000  0.4921390000000 1.0
C      1  0.6043560000000  0.5265020000000  0.5618710000000 1.0
C      1  0.4983870000000  0.4975720000000  0.4766190000000 1.0
C      1  0.5590160000000  0.5954190000000  0.4459760000000 1.0
C      1  0.5822760000000  0.4998200000000  0.5944030000000 1.0
C      1  0.3743550000000  0.5387070000000  0.5190360000000 1.0
C      1  0.4201120000000  0.5027700000000  0.5676720000000 1.0
C      1  0.4857070000000  0.5529110000000  0.4373940000000 1.0
C      1  0.4398110000000  0.4735400000000  0.4782280000000 1.0
C      1  0.5715660000000  0.4741830000000  0.5884290000000 1.0
C      1  0.4071960000000  0.5769130000000  0.4332970000000 1.0
C      1  0.4777260000000  0.5596130000000  0.5983690000000 1.0
C      1  0.4692300000000  0.4760100000000  0.3879390000000 1.0
C      1  0.4548050000000  0.5901100000000  0.5454540000000 1.0
C      1  0.5259730000000  0.4069170000000  0.5727080000000 1.0
C      1  0.5428280000000  0.4819330000000  0.4848280000000 1.0
C      1  0.4222040000000  0.5440610000000  0.4644150000000 1.0
C      1  0.4523960000000  0.5192880000000  0.6077380000000 1.0
C      1  0.3866180000000  0.4659840000000  0.5024360000000 1.0
C      1  0.3805070000000  0.5127120000000  0.5330920000000 1.0
C      1  0.5075150000000  0.3879250000000  0.4887170000000 1.0
C      1  0.4805650000000  0.3872070000000  0.5672020000000 1.0
C      1  0.3762680000000  0.5410730000000  0.4908220000000 1.0
C      1  0.4483460000000  0.4530940000000  0.6119860000000 1.0
C      1  0.5586810000000  0.5400120000000  0.5808350000000 1.0
C      1  0.5836250000000  0.5249130000000  0.5811930000000 1.0
C      1  0.6235060000000  0.5054170000000  0.4595110000000 1.0
C      1  0.4763000000000  0.5674190000000  0.5477280000000 1.0
C      1  0.3850720000000  0.4910670000000  0.4365230000000 1.0
C      1  0.4829740000000  0.5069950000000  0.4329920000000 1.0
C      1  0.4523020000000  0.5472140000000  0.6022240000000 1.0
C      1  0.5520120000000  0.5234540000000  0.5373510000000 1.0
C      1  0.5040320000000  0.5749510000000  0.5321160000000 1.0
C      1  0.4635850000000  0.6165800000000  0.5432830000000 1.0
C      1  0.3860130000000  0.5605430000000  0.5338700000000 1.0
C      1  0.4988120000000  0.5114890000000  0.3750520000000 1.0
C      1  0.4105190000000  0.4243690000000  0.4501340000000 1.0
C      1  0.5504840000000  0.4179730000000  0.5314900000000 1.0
C      1  0.6209090000000  0.5539300000000  0.4661280000000 1.0
C      1  0.5213410000000  0.5173230000000  0.3591530000000 1.0
C      1  0.5479470000000  0.6039730000000  0.4708560000000 1.0
C      1  0.5704970000000  0.5299860000000  0.5165080000000 1.0
C      1  0.3950410000000  0.5800190000000  0.4672240000000 1.0
C      1  0.6010120000000  0.5752330000000  0.5098010000000 1.0
C      1  0.4510920000000  0.4882540000000  0.4063760000000 1.0
C      1  0.5762180000000  0.5520820000000  0.4260380000000 1.0
C      1  0.3953480000000  0.5521650000000  0.4734270000000 1.0
C      1  0.5973880000000  0.4386100000000  0.4841870000000 1.0
C      1  0.5827060000000  0.5554770000000  0.5175500000000 1.0
C      1  0.4478260000000  0.4715470000000  0.5300320000000 1.0
C      1  0.5366580000000  0.3460120000000  0.4996520000000 1.0
C      1  0.4998100000000  0.5935350000000  0.4531490000000 1.0
C      1  0.5024430000000  0.5240540000000  0.5356370000000 1.0
C      1  0.4917830000000  0.4549840000000  0.4932390000000 1.0
C      1  0.5341290000000  0.5571630000000  0.4481850000000 1.0
C      1  0.5948770000000  0.4115080000000  0.4423690000000 1.0
C      1  0.5768940000000  0.5149590000000  0.4947740000000 1.0
C      1  0.4127160000000  0.5543270000000  0.4111870000000 1.0
C      1  0.5448390000000  0.4140570000000  0.5934990000000 1.0
C      1  0.4396480000000  0.4996500000000  0.5905690000000 1.0
C      1  0.5926950000000  0.4789550000000  0.4337180000000 1.0
C      1  0.4496380000000  0.5830020000000  0.4132610000000 1.0
C      1  0.6086380000000  0.4493270000000  0.5270120000000 1.0
C      1  0.4713040000000  0.4888730000000  0.5230380000000 1.0
C      1  0.4621560000000  0.5731270000000  0.4791150000000 1.0
C      1  0.4384420000000  0.5136560000000  0.3991980000000 1.0
C      1  0.3785910000000  0.4627780000000  0.4749820000000 1.0
C      1  0.4901730000000  0.5747700000000  0.6180230000000 1.0
C      1  0.4001570000000  0.5918720000000  0.4946470000000 1.0
C      1  0.5931430000000  0.5302370000000  0.4329870000000 1.0
C      1  0.5168640000000  0.5722230000000  0.4055220000000 1.0
C      1  0.5535940000000  0.4630040000000  0.6084710000000 1.0
C      1  0.4657380000000  0.4305690000000  0.6110460000000 1.0
C      1  0.5370500000000  0.4905630000000  0.5448790000000 1.0
C      1  0.4876170000000  0.4059830000000  0.4817850000000 1.0
C      1  0.3910570000000  0.4636900000000  0.4296580000000 1.0
C      1  0.5095440000000  0.5703820000000  0.4352320000000 1.0
C      1  0.5614650000000  0.4746950000000  0.5378440000000 1.0
C      1  0.5945060000000  0.4293760000000  0.5111990000000 1.0
C      1  0.6092740000000  0.4807990000000  0.4579650000000 1.0
C      1  0.4939380000000  0.4722240000000  0.5160740000000 1.0
C      1  0.5266270000000  0.4163570000000  0.4190980000000 1.0
C      1  0.4984920000000  0.6194020000000  0.4445770000000 1.0
C      1  0.4355700000000  0.5847480000000  0.4379620000000 1.0
C      1  0.3972200000000  0.5197610000000  0.5586590000000 1.0
C      1  0.5477640000000  0.5460620000000  0.5548210000000 1.0
C      1  0.4400850000000  0.5606990000000  0.3975270000000 1.0
C      1  0.4725900000000  0.5303510000000  0.4977280000000 1.0
C      1  0.4260350000000  0.5842780000000  0.5455680000000 1.0
C      1  0.4990810000000  0.5583750000000  0.3881820000000 1.0
C      1  0.5182340000000  0.5989070000000  0.6553210000000 1.0
C      1  0.5875840000000  0.5047170000000  0.4202040000000 1.0
C      1  0.4210450000000  0.5288390000000  0.5143130000000 1.0
C      1  0.4189000000000  0.4042580000000  0.4680260000000 1.0
C      1  0.4965800000000  0.5012440000000  0.6350270000000 1.0
C      1  0.5039440000000  0.5873550000000  0.6368300000000 1.0
C      1  0.4886810000000  0.5554430000000  0.5728730000000 1.0
C      1  0.5103120000000  0.5773100000000  0.5011980000000 1.0
C      1  0.4081440000000  0.4490930000000  0.5097790000000 1.0
C      1  0.4418890000000  0.5673120000000  0.4598420000000 1.0
C      1  0.4572030000000  0.5541520000000  0.4985010000000 1.0
C      1  0.6160060000000  0.5700470000000  0.4866940000000 1.0
C      1  0.4909120000000  0.4238130000000  0.6004410000000 1.0
C      1  0.5377110000000  0.5305890000000  0.5976730000000 1.0
C      1  0.4681330000000  0.3979990000000  0.4623080000000 1.0
C      1  0.5817310000000  0.4545510000000  0.4227120000000 1.0
C      1  0.4137750000000  0.5244150000000  0.4115450000000 1.0
C      1  0.4724770000000  0.5095480000000  0.6260290000000 1.0
C      1  0.5165300000000  0.4706300000000  0.5316850000000 1.0
C      1  0.5333220000000  0.5997780000000  0.4954310000000 1.0
C      1  0.4530760000000  0.3732860000000  0.5239460000000 1.0
C      1  0.3895290000000  0.4924670000000  0.5137640000000 1.0
C      1  0.4274680000000  0.4852040000000  0.5463930000000 1.0
C      1  0.5218000000000  0.5008950000000  0.4926980000000 1.0
C      1  0.5213430000000  0.5485810000000  0.4966120000000 1.0
C      1  0.5422970000000  0.4794690000000  0.6291380000000 1.0
C      1  0.5655600000000  0.3985610000000  0.6017240000000 1.0
C      1  0.4051770000000  0.5105410000000  0.4344500000000 1.0
C      1  0.4591820000000  0.5417060000000  0.5400660000000 1.0
C      1  0.4746870000000  0.5185340000000  0.5257440000000 1.0
C      1  0.5226520000000  0.4906100000000  0.5728370000000 1.0
C      1  0.3969430000000  0.5494140000000  0.5590120000000 1.0
C      1  0.4277830000000  0.4547630000000  0.6298340000000 1.0
C      1  0.4395790000000  0.5482370000000  0.5197580000000 1.0
C      1  0.3921830000000  0.4459860000000  0.4533150000000 1.0
C      1  0.4245370000000  0.4975010000000  0.4780990000000 1.0
C      1  0.5004190000000  0.4085900000000  0.4260680000000 1.0
C      1  0.6142440000000  0.5309440000000  0.4519240000000 1.0
C      1  0.6221740000000  0.4963180000000  0.5224350000000 1.0
C      1  0.4888120000000  0.5842780000000  0.4787980000000 1.0
C      1  0.5766540000000  0.4657350000000  0.5608750000000 1.0
C      1  0.4172950000000  0.5670190000000  0.5681660000000 1.0
END
