TITL C-599895-9959-1146 0.00266948222603966 125000 -357.38370437214 0 0 61 (C1) n - 1
REM
REM in /home/nfs/bkarasulu/CARBON/AIRSS/Generating-Clusters/TERSOFF/Only-C1/FIRE-HFTN
REM
REM
REM
REM
REM
REM ./C.cell (11c1c37f851c82e70ff6c80c92926a4b)
REM AIRSS Version 0.9.1 bugfix July 2018 build 013d7b7c2542+ Fri, 06 Jul 2018 19:26:36 +0100
REM compiler GCC version 9.2.1 20190827 (Red Hat 9.2.1-1)
REM options -cpp -mtune=generic -march=x86-64 -g -O0 -fpre-include=/usr/include/finclude/math-vector-fortran.h
REM seed 1485138621 -2120038473 -103723066 -128754378 2010343650 -1611672161 -1417525585 1888983839 1924308579 1112674883 -1123515973 175805481 -698174974 1113240356 -1091512245 1756250969 -441303187 675666374 -1290339694 -1301028447 7073038 -1724482118 1103241202 209679106 -130125672 -1249350470 497047487 -819991489 214120070 1905709534 2088900208 -27906099 962746152
REM
CELL 1.54180   50.00000   50.00000   50.00000   90.00000   90.00000   90.00000
LATT -1
SFAC C  
C      1  0.4981360000000  0.5738690000000  0.4818190000000 1.0
C      1  0.4658350000000  0.5130240000000  0.4105810000000 1.0
C      1  0.5616760000000  0.5059500000000  0.5184750000000 1.0
C      1  0.5026820000000  0.5538730000000  0.5036830000000 1.0
C      1  0.5187640000000  0.5840970000000  0.4671390000000 1.0
C      1  0.5396860000000  0.5082730000000  0.4210560000000 1.0
C      1  0.4734510000000  0.4631530000000  0.5109280000000 1.0
C      1  0.4554280000000  0.4781980000000  0.4892930000000 1.0
C      1  0.5460910000000  0.4963670000000  0.5769610000000 1.0
C      1  0.4813200000000  0.5306920000000  0.5007320000000 1.0
C      1  0.5073500000000  0.5237190000000  0.5825430000000 1.0
C      1  0.4822490000000  0.5230690000000  0.5731440000000 1.0
C      1  0.5358740000000  0.4410150000000  0.5373570000000 1.0
C      1  0.4303330000000  0.4917260000000  0.4919670000000 1.0
C      1  0.5188240000000  0.4891090000000  0.5048270000000 1.0
C      1  0.4937040000000  0.4268910000000  0.4786300000000 1.0
C      1  0.5463800000000  0.5296890000000  0.5227020000000 1.0
C      1  0.4712330000000  0.5810930000000  0.4778840000000 1.0
C      1  0.6361150000000  0.5073240000000  0.5011910000000 1.0
C      1  0.5046650000000  0.5673580000000  0.5301630000000 1.0
C      1  0.5383930000000  0.4470270000000  0.5647220000000 1.0
C      1  0.5452990000000  0.4830050000000  0.5137710000000 1.0
C      1  0.4517820000000  0.4438730000000  0.5233470000000 1.0
C      1  0.4660660000000  0.4773980000000  0.4626370000000 1.0
C      1  0.5387100000000  0.5382710000000  0.5490940000000 1.0
C      1  0.4275540000000  0.5619410000000  0.4973160000000 1.0
C      1  0.6611200000000  0.5073880000000  0.5085400000000 1.0
C      1  0.4711410000000  0.5191670000000  0.5491180000000 1.0
C      1  0.4217440000000  0.4311760000000  0.4897670000000 1.0
C      1  0.4471070000000  0.4172400000000  0.4846440000000 1.0
C      1  0.4954710000000  0.4407400000000  0.5035890000000 1.0
C      1  0.4864350000000  0.5071720000000  0.4284540000000 1.0
C      1  0.5887530000000  0.5064320000000  0.5122380000000 1.0
C      1  0.4264690000000  0.5146720000000  0.5074680000000 1.0
C      1  0.4674060000000  0.4277770000000  0.4668580000000 1.0
C      1  0.5330130000000  0.5204200000000  0.5709040000000 1.0
C      1  0.4241290000000  0.4464370000000  0.5133220000000 1.0
C      1  0.5131740000000  0.5077830000000  0.4202250000000 1.0
C      1  0.5864600000000  0.5084410000000  0.4449380000000 1.0
C      1  0.4790640000000  0.5123060000000  0.5232290000000 1.0
C      1  0.4457930000000  0.5181720000000  0.3947400000000 1.0
C      1  0.5446220000000  0.4696590000000  0.5778040000000 1.0
C      1  0.4458770000000  0.5762290000000  0.4844010000000 1.0
C      1  0.5147750000000  0.4143120000000  0.4667740000000 1.0
C      1  0.4002530000000  0.5456850000000  0.5339840000000 1.0
C      1  0.4923920000000  0.4865840000000  0.5183150000000 1.0
C      1  0.4916920000000  0.5163460000000  0.4764990000000 1.0
C      1  0.4576260000000  0.4158050000000  0.5131260000000 1.0
C      1  0.5236980000000  0.5624270000000  0.5487980000000 1.0
C      1  0.6093780000000  0.5072600000000  0.4933310000000 1.0
C      1  0.4806260000000  0.5008100000000  0.4554430000000 1.0
C      1  0.4179630000000  0.5407930000000  0.5129810000000 1.0
C      1  0.5648130000000  0.5085220000000  0.4295850000000 1.0
C      1  0.3839960000000  0.5500910000000  0.5538700000000 1.0
C      1  0.5522920000000  0.4570100000000  0.5208410000000 1.0
C      1  0.5125980000000  0.4322630000000  0.5244140000000 1.0
C      1  0.4094650000000  0.4840790000000  0.4756900000000 1.0
C      1  0.5186260000000  0.5114580000000  0.4861880000000 1.0
C      1  0.6022550000000  0.5080170000000  0.4662590000000 1.0
C      1  0.5284400000000  0.5358510000000  0.5004330000000 1.0
C      1  0.4637320000000  0.4514690000000  0.4512670000000 1.0
END
