TITL C-599891-72-264 198.846772691313 125000 -999.462656026474 0 0 163 (C1) n - 1
REM
REM in /home/nfs/bkarasulu/CARBON/AIRSS/Generating-Clusters/TERSOFF/Only-C1/FIRE-HFTN
REM
REM
REM
REM
REM
REM ./C.cell (11c1c37f851c82e70ff6c80c92926a4b)
REM AIRSS Version 0.9.1 bugfix July 2018 build 013d7b7c2542+ Fri, 06 Jul 2018 19:26:36 +0100
REM compiler GCC version 9.2.1 20190827 (Red Hat 9.2.1-1)
REM options -cpp -mtune=generic -march=x86-64 -g -O0 -fpre-include=/usr/include/finclude/math-vector-fortran.h
REM seed -978276653 896730180 103343025 -1534684000 747739782 431688776 -20366889 -1830540226 1047900290 -827066007 -1819522508 -2085360569 -416436118 -1528290276 -1533629856 1898616499 2133751999 303922830 625850330 -1342571731 -1031844239 113959937 1044722636 -1875444796 1383794804 369548945 -112023069 1979159583 1019094365 -748172937 -1727642523 -901938290 -398201673
REM
CELL 1.54180   50.00000   50.00000   50.00000   90.00000   90.00000   90.00000
LATT -1
SFAC C  
C      1  0.5666710000000  0.5475460000000  0.5418020000000 1.0
C      1  0.4877170000000  0.4504110000000  0.5935050000000 1.0
C      1  0.4886640000000  0.4798570000000  0.5962280000000 1.0
C      1  0.5063050000000  0.4285240000000  0.5177430000000 1.0
C      1  0.4778040000000  0.4300660000000  0.5161580000000 1.0
C      1  0.5021120000000  0.5524480000000  0.6029720000000 1.0
C      1  0.4281140000000  0.5047800000000  0.4854550000000 1.0
C      1  0.5499170000000  0.4955390000000  0.5296130000000 1.0
C      1  0.4977040000000  0.5789000000000  0.5873310000000 1.0
C      1  0.5654880000000  0.4922000000000  0.5078020000000 1.0
C      1  0.4774190000000  0.4523110000000  0.4592700000000 1.0
C      1  0.4163480000000  0.5281870000000  0.4267830000000 1.0
C      1  0.5815150000000  0.4162540000000  0.5069150000000 1.0
C      1  0.5585800000000  0.5014780000000  0.4830530000000 1.0
C      1  0.4712660000000  0.5834840000000  0.4586860000000 1.0
C      1  0.4735530000000  0.4256590000000  0.4708650000000 1.0
C      1  0.5021200000000  0.5047430000000  0.4655200000000 1.0
C      1  0.4624930000000  0.4369340000000  0.5896030000000 1.0
C      1  0.4213160000000  0.5003980000000  0.4231570000000 1.0
C      1  0.4203890000000  0.5193450000000  0.5881800000000 1.0
C      1  0.4807440000000  0.5376090000000  0.4391230000000 1.0
C      1  0.5245940000000  0.4440790000000  0.5034920000000 1.0
C      1  0.5069320000000  0.3843790000000  0.5128060000000 1.0
C      1  0.5264040000000  0.5158580000000  0.4556210000000 1.0
C      1  0.3851430000000  0.4888060000000  0.4794110000000 1.0
C      1  0.5512760000000  0.5540070000000  0.5906650000000 1.0
C      1  0.4199160000000  0.5566190000000  0.5561310000000 1.0
C      1  0.4736360000000  0.4978240000000  0.4977450000000 1.0
C      1  0.5187400000000  0.4720590000000  0.4344160000000 1.0
C      1  0.4578000000000  0.5434200000000  0.4776480000000 1.0
C      1  0.4090340000000  0.4829800000000  0.5588070000000 1.0
C      1  0.4259280000000  0.4526420000000  0.4277260000000 1.0
C      1  0.5436980000000  0.5455350000000  0.5244550000000 1.0
C      1  0.5940820000000  0.4770440000000  0.5386160000000 1.0
C      1  0.4777630000000  0.6161990000000  0.5023740000000 1.0
C      1  0.5584040000000  0.4569720000000  0.5703020000000 1.0
C      1  0.5690760000000  0.4433000000000  0.4397460000000 1.0
C      1  0.4632790000000  0.4529450000000  0.5123030000000 1.0
C      1  0.5593580000000  0.4831390000000  0.5834850000000 1.0
C      1  0.4784140000000  0.5538670000000  0.4938450000000 1.0
C      1  0.5075330000000  0.4829590000000  0.5264040000000 1.0
C      1  0.5581630000000  0.5638530000000  0.5651150000000 1.0
C      1  0.4405220000000  0.5431080000000  0.4184680000000 1.0
C      1  0.4473540000000  0.4132400000000  0.4724560000000 1.0
C      1  0.5153820000000  0.5916160000000  0.5669480000000 1.0
C      1  0.4478860000000  0.5804200000000  0.5192670000000 1.0
C      1  0.4588720000000  0.5578110000000  0.4367130000000 1.0
C      1  0.4149220000000  0.4348810000000  0.4993470000000 1.0
C      1  0.4950420000000  0.4149810000000  0.5594070000000 1.0
C      1  0.5565460000000  0.5858510000000  0.4004100000000 1.0
C      1  0.5089650000000  0.4349820000000  0.5778820000000 1.0
C      1  0.5429040000000  0.5875210000000  0.5585040000000 1.0
C      1  0.4570830000000  0.4721340000000  0.5572710000000 1.0
C      1  0.5072360000000  0.4796340000000  0.4783260000000 1.0
C      1  0.5563700000000  0.4533340000000  0.4638470000000 1.0
C      1  0.5385810000000  0.4366030000000  0.5793160000000 1.0
C      1  0.4599420000000  0.5437170000000  0.5837710000000 1.0
C      1  0.4568950000000  0.5137070000000  0.4766180000000 1.0
C      1  0.4099130000000  0.5526800000000  0.4818660000000 1.0
C      1  0.6100390000000  0.4375000000000  0.4692840000000 1.0
C      1  0.4768850000000  0.5084750000000  0.3926660000000 1.0
C      1  0.5440030000000  0.5256460000000  0.4766860000000 1.0
C      1  0.5458040000000  0.4378340000000  0.4855530000000 1.0
C      1  0.5929140000000  0.5496160000000  0.4487990000000 1.0
C      1  0.4347300000000  0.5808200000000  0.5458130000000 1.0
C      1  0.5024150000000  0.5395460000000  0.5606690000000 1.0
C      1  0.5797780000000  0.4296290000000  0.5324000000000 1.0
C      1  0.5448310000000  0.6092840000000  0.5112740000000 1.0
C      1  0.5802970000000  0.5013530000000  0.5766180000000 1.0
C      1  0.5555070000000  0.5812020000000  0.4535980000000 1.0
C      1  0.4501400000000  0.5934160000000  0.5669610000000 1.0
C      1  0.4558740000000  0.4788910000000  0.5099940000000 1.0
C      1  0.4593130000000  0.5364940000000  0.5360590000000 1.0
C      1  0.4091650000000  0.5295840000000  0.5417140000000 1.0
C      1  0.5774240000000  0.5664150000000  0.4658850000000 1.0
C      1  0.3929070000000  0.5200530000000  0.5173300000000 1.0
C      1  0.5165010000000  0.4703290000000  0.5029530000000 1.0
C      1  0.5511860000000  0.6031190000000  0.5364640000000 1.0
C      1  0.4749950000000  0.5082320000000  0.4516720000000 1.0
C      1  0.4697210000000  0.5020930000000  0.6026700000000 1.0
C      1  0.3869180000000  0.4900480000000  0.5121200000000 1.0
C      1  0.4369810000000  0.5188900000000  0.5322700000000 1.0
C      1  0.5545580000000  0.4952110000000  0.3820710000000 1.0
C      1  0.6004910000000  0.5221050000000  0.4518950000000 1.0
C      1  0.4148250000000  0.4804550000000  0.4704480000000 1.0
C      1  0.5200080000000  0.5372110000000  0.5394870000000 1.0
C      1  0.5297350000000  0.5885610000000  0.4651660000000 1.0
C      1  0.4741370000000  0.5390170000000  0.5596270000000 1.0
C      1  0.6050480000000  0.4203680000000  0.4914370000000 1.0
C      1  0.5041030000000  0.4607650000000  0.4564030000000 1.0
C      1  0.5353620000000  0.5458600000000  0.4949010000000 1.0
C      1  0.5341130000000  0.5156090000000  0.6120880000000 1.0
C      1  0.4160280000000  0.4348000000000  0.4481140000000 1.0
C      1  0.4339660000000  0.4960480000000  0.5148080000000 1.0
C      1  0.5406940000000  0.3919660000000  0.4809200000000 1.0
C      1  0.5555070000000  0.4816230000000  0.4631960000000 1.0
C      1  0.5588060000000  0.5436840000000  0.3727700000000 1.0
C      1  0.5967670000000  0.5341120000000  0.5034320000000 1.0
C      1  0.4354510000000  0.4128230000000  0.4467380000000 1.0
C      1  0.4623590000000  0.4788300000000  0.4425600000000 1.0
C      1  0.5044670000000  0.5787930000000  0.4546230000000 1.0
C      1  0.5947410000000  0.4321630000000  0.4456840000000 1.0
C      1  0.5914960000000  0.4808710000000  0.5105690000000 1.0
C      1  0.4569160000000  0.4153390000000  0.4256340000000 1.0
C      1  0.5047080000000  0.5534830000000  0.4403840000000 1.0
C      1  0.5671590000000  0.4621310000000  0.4167960000000 1.0
C      1  0.4067110000000  0.5273380000000  0.4924590000000 1.0
C      1  0.4344690000000  0.4316300000000  0.5477550000000 1.0
C      1  0.3782810000000  0.5101230000000  0.4594430000000 1.0
C      1  0.4297150000000  0.4107530000000  0.4945060000000 1.0
C      1  0.5860000000000  0.5595240000000  0.4925670000000 1.0
C      1  0.4904190000000  0.6184350000000  0.5260810000000 1.0
C      1  0.4306330000000  0.4796300000000  0.4416090000000 1.0
C      1  0.5889990000000  0.5292320000000  0.5334480000000 1.0
C      1  0.4640830000000  0.5577590000000  0.5182500000000 1.0
C      1  0.4344150000000  0.5587550000000  0.4732200000000 1.0
C      1  0.5117130000000  0.4873500000000  0.5809050000000 1.0
C      1  0.5378200000000  0.4919310000000  0.4433250000000 1.0
C      1  0.5056440000000  0.5465180000000  0.4968610000000 1.0
C      1  0.4647420000000  0.4052780000000  0.5226220000000 1.0
C      1  0.4408680000000  0.3956890000000  0.5150280000000 1.0
C      1  0.5012520000000  0.6092540000000  0.5488700000000 1.0
C      1  0.4117920000000  0.4493000000000  0.4742450000000 1.0
C      1  0.5894500000000  0.4803260000000  0.4222110000000 1.0
C      1  0.4684760000000  0.4666140000000  0.4132260000000 1.0
C      1  0.4825610000000  0.4014050000000  0.4339860000000 1.0
C      1  0.4706870000000  0.5895650000000  0.5844840000000 1.0
C      1  0.4574750000000  0.5274940000000  0.3983740000000 1.0
C      1  0.5083740000000  0.4047920000000  0.5343730000000 1.0
C      1  0.5114100000000  0.4812270000000  0.5536140000000 1.0
C      1  0.4926360000000  0.4042960000000  0.4624060000000 1.0
C      1  0.3913660000000  0.5278480000000  0.4422650000000 1.0
C      1  0.5454630000000  0.4731370000000  0.3980000000000 1.0
C      1  0.5588270000000  0.5890540000000  0.4266990000000 1.0
C      1  0.4147060000000  0.4448060000000  0.5272180000000 1.0
C      1  0.5552570000000  0.5692370000000  0.3796280000000 1.0
C      1  0.5576440000000  0.4125800000000  0.4910000000000 1.0
C      1  0.5162220000000  0.4736160000000  0.4058550000000 1.0
C      1  0.4034810000000  0.5108050000000  0.5656040000000 1.0
C      1  0.4592750000000  0.4243650000000  0.5642100000000 1.0
C      1  0.4005110000000  0.4706820000000  0.5331480000000 1.0
C      1  0.6183290000000  0.4642620000000  0.4746670000000 1.0
C      1  0.5885970000000  0.5224260000000  0.4039090000000 1.0
C      1  0.5113820000000  0.3906340000000  0.4831840000000 1.0
C      1  0.5502450000000  0.4147640000000  0.5921370000000 1.0
C      1  0.5322160000000  0.6042750000000  0.4883130000000 1.0
C      1  0.4316870000000  0.5450230000000  0.5819030000000 1.0
C      1  0.4408510000000  0.4982510000000  0.5937080000000 1.0
C      1  0.5680740000000  0.5199770000000  0.3843640000000 1.0
C      1  0.5787530000000  0.4533450000000  0.5488150000000 1.0
C      1  0.4617210000000  0.5972890000000  0.4896030000000 1.0
C      1  0.6087800000000  0.4867630000000  0.4888890000000 1.0
C      1  0.4782940000000  0.5321480000000  0.6039250000000 1.0
C      1  0.4352210000000  0.4789210000000  0.5722100000000 1.0
C      1  0.5925360000000  0.5040250000000  0.5509430000000 1.0
C      1  0.4510790000000  0.4424890000000  0.4140680000000 1.0
C      1  0.5355450000000  0.4939090000000  0.5943730000000 1.0
C      1  0.6058050000000  0.5146420000000  0.4806760000000 1.0
C      1  0.5034100000000  0.5284920000000  0.5186670000000 1.0
C      1  0.4882850000000  0.4821390000000  0.3990180000000 1.0
C      1  0.4927290000000  0.5042870000000  0.5163120000000 1.0
C      1  0.5296710000000  0.5426220000000  0.6052550000000 1.0
C      1  0.5958170000000  0.5072990000000  0.4270700000000 1.0
END
