TITL C-599892-9790-521 -0.0270110282950237 125000 -1182.97344328162 0 0 191 (C1) n - 1
REM
REM in /home/nfs/bkarasulu/CARBON/AIRSS/Generating-Clusters/TERSOFF/Only-C1/FIRE-HFTN
REM
REM
REM
REM
REM
REM ./C.cell (11c1c37f851c82e70ff6c80c92926a4b)
REM AIRSS Version 0.9.1 bugfix July 2018 build 013d7b7c2542+ Fri, 06 Jul 2018 19:26:36 +0100
REM compiler GCC version 9.2.1 20190827 (Red Hat 9.2.1-1)
REM options -cpp -mtune=generic -march=x86-64 -g -O0 -fpre-include=/usr/include/finclude/math-vector-fortran.h
REM seed 164010066 1791348731 -1984675836 2075353427 963151064 -2112150207 -2078241184 1730707699 988023203 862404054 -2038298127 1133223924 -834346043 -183168365 107070905 855328774 1266677016 -171965150 201159958 -1368258863 854750110 -1318370583 1944813161 -1651723510 -148362123 1882933984 43975651 1585424794 377277239 568912924 1049548756 1160476267 -1556241562
REM
CELL 1.54180   50.00000   50.00000   50.00000   90.00000   90.00000   90.00000
LATT -1
SFAC C  
C      1  0.5485590000000  0.4512700000000  0.4780750000000 1.0
C      1  0.4729950000000  0.4598750000000  0.4103150000000 1.0
C      1  0.4521100000000  0.5057430000000  0.5523470000000 1.0
C      1  0.4907380000000  0.4634710000000  0.4326300000000 1.0
C      1  0.5868080000000  0.4739050000000  0.5062930000000 1.0
C      1  0.5242180000000  0.3900170000000  0.4974970000000 1.0
C      1  0.5904750000000  0.5542660000000  0.5167800000000 1.0
C      1  0.4886340000000  0.6162120000000  0.4878110000000 1.0
C      1  0.5992020000000  0.4669650000000  0.5537000000000 1.0
C      1  0.4202360000000  0.5430310000000  0.5338010000000 1.0
C      1  0.5581910000000  0.6027960000000  0.4596420000000 1.0
C      1  0.3937430000000  0.5206970000000  0.4435760000000 1.0
C      1  0.6138790000000  0.5192560000000  0.4501460000000 1.0
C      1  0.5384930000000  0.4312820000000  0.5621410000000 1.0
C      1  0.4390720000000  0.4135840000000  0.4521710000000 1.0
C      1  0.6290280000000  0.5416980000000  0.4419230000000 1.0
C      1  0.4278060000000  0.5055310000000  0.4876510000000 1.0
C      1  0.4442600000000  0.4407690000000  0.4944550000000 1.0
C      1  0.4190510000000  0.4098060000000  0.4720230000000 1.0
C      1  0.4827150000000  0.4327380000000  0.5782380000000 1.0
C      1  0.6094500000000  0.5136480000000  0.4782240000000 1.0
C      1  0.4858160000000  0.4719670000000  0.5006230000000 1.0
C      1  0.5870540000000  0.5813000000000  0.3994520000000 1.0
C      1  0.4688000000000  0.4410830000000  0.5329800000000 1.0
C      1  0.5660970000000  0.4077010000000  0.4893290000000 1.0
C      1  0.4705140000000  0.5162170000000  0.5358370000000 1.0
C      1  0.4777930000000  0.4510800000000  0.5571500000000 1.0
C      1  0.5175350000000  0.4666870000000  0.4413740000000 1.0
C      1  0.5516180000000  0.6305520000000  0.4646170000000 1.0
C      1  0.5383840000000  0.4284920000000  0.6103610000000 1.0
C      1  0.4383790000000  0.5636990000000  0.5456510000000 1.0
C      1  0.4772080000000  0.5266900000000  0.4451800000000 1.0
C      1  0.4115390000000  0.5302660000000  0.5825920000000 1.0
C      1  0.5344490000000  0.4009020000000  0.5246210000000 1.0
C      1  0.4550300000000  0.5896870000000  0.5861000000000 1.0
C      1  0.5288510000000  0.5251110000000  0.4648550000000 1.0
C      1  0.5434110000000  0.4726870000000  0.6243600000000 1.0
C      1  0.3973710000000  0.5022210000000  0.4222250000000 1.0
C      1  0.5111540000000  0.5452540000000  0.5489660000000 1.0
C      1  0.4778910000000  0.5100410000000  0.6312840000000 1.0
C      1  0.4610320000000  0.3938730000000  0.5272280000000 1.0
C      1  0.5602320000000  0.4198560000000  0.4435950000000 1.0
C      1  0.4754000000000  0.4169690000000  0.5202620000000 1.0
C      1  0.5600060000000  0.4928010000000  0.6130510000000 1.0
C      1  0.5364940000000  0.4804140000000  0.5645320000000 1.0
C      1  0.5691660000000  0.4376100000000  0.4232760000000 1.0
C      1  0.5919720000000  0.4559990000000  0.4260280000000 1.0
C      1  0.4572380000000  0.4363910000000  0.4154710000000 1.0
C      1  0.4968490000000  0.4521670000000  0.6204090000000 1.0
C      1  0.5734780000000  0.4866710000000  0.3955980000000 1.0
C      1  0.4134900000000  0.4011110000000  0.5412160000000 1.0
C      1  0.5374300000000  0.4564070000000  0.5499490000000 1.0
C      1  0.5272260000000  0.5166180000000  0.4366740000000 1.0
C      1  0.5032710000000  0.6135290000000  0.4165370000000 1.0
C      1  0.4363210000000  0.3879870000000  0.5358830000000 1.0
C      1  0.4629790000000  0.4790880000000  0.3918450000000 1.0
C      1  0.4058320000000  0.5837800000000  0.4770220000000 1.0
C      1  0.5233650000000  0.6353470000000  0.4594510000000 1.0
C      1  0.5419400000000  0.4945240000000  0.5007230000000 1.0
C      1  0.5221090000000  0.4536630000000  0.4675900000000 1.0
C      1  0.5353490000000  0.5481240000000  0.5083000000000 1.0
C      1  0.4354220000000  0.4843160000000  0.5464480000000 1.0
C      1  0.4191150000000  0.5626260000000  0.4644340000000 1.0
C      1  0.4361210000000  0.5712610000000  0.5744220000000 1.0
C      1  0.5801200000000  0.4881950000000  0.5924980000000 1.0
C      1  0.4664330000000  0.5648190000000  0.5397900000000 1.0
C      1  0.4730910000000  0.5063090000000  0.4645800000000 1.0
C      1  0.5137630000000  0.5136140000000  0.5864220000000 1.0
C      1  0.4982710000000  0.5570440000000  0.3828280000000 1.0
C      1  0.5136630000000  0.3956560000000  0.4385110000000 1.0
C      1  0.5096100000000  0.4863060000000  0.5767480000000 1.0
C      1  0.4519060000000  0.5235470000000  0.4075090000000 1.0
C      1  0.4468400000000  0.4595020000000  0.6014690000000 1.0
C      1  0.4359220000000  0.6196900000000  0.4969490000000 1.0
C      1  0.4784010000000  0.4832160000000  0.3687900000000 1.0
C      1  0.4053400000000  0.4283090000000  0.5404990000000 1.0
C      1  0.5247680000000  0.5595310000000  0.6003930000000 1.0
C      1  0.5980630000000  0.5827120000000  0.5095140000000 1.0
C      1  0.5671390000000  0.5090320000000  0.4615180000000 1.0
C      1  0.4572730000000  0.5469080000000  0.4463470000000 1.0
C      1  0.4986540000000  0.4101970000000  0.5681320000000 1.0
C      1  0.5210080000000  0.5040790000000  0.4832100000000 1.0
C      1  0.4894250000000  0.4214740000000  0.4956680000000 1.0
C      1  0.4482740000000  0.5625310000000  0.4677270000000 1.0
C      1  0.5928040000000  0.4836420000000  0.4168760000000 1.0
C      1  0.5629920000000  0.5691330000000  0.3987460000000 1.0
C      1  0.5009600000000  0.4809240000000  0.5260870000000 1.0
C      1  0.4690210000000  0.5729880000000  0.4830420000000 1.0
C      1  0.5016080000000  0.5231870000000  0.6316080000000 1.0
C      1  0.5772810000000  0.5290810000000  0.4193650000000 1.0
C      1  0.4857040000000  0.5884380000000  0.3483940000000 1.0
C      1  0.4932170000000  0.5878820000000  0.4821580000000 1.0
C      1  0.4019470000000  0.5315080000000  0.5541780000000 1.0
C      1  0.5590470000000  0.4717450000000  0.4937530000000 1.0
C      1  0.4117500000000  0.5431820000000  0.4431770000000 1.0
C      1  0.4598510000000  0.4596810000000  0.5115770000000 1.0
C      1  0.5539590000000  0.5046570000000  0.5251880000000 1.0
C      1  0.4913060000000  0.3927690000000  0.4582480000000 1.0
C      1  0.5961290000000  0.4950590000000  0.5493870000000 1.0
C      1  0.5816960000000  0.4982720000000  0.5255020000000 1.0
C      1  0.4249020000000  0.5293460000000  0.5067510000000 1.0
C      1  0.4957160000000  0.6035730000000  0.3931330000000 1.0
C      1  0.6071170000000  0.4864940000000  0.4877930000000 1.0
C      1  0.5592140000000  0.5544000000000  0.5260410000000 1.0
C      1  0.5833550000000  0.4249360000000  0.5330350000000 1.0
C      1  0.5604300000000  0.4879810000000  0.4486820000000 1.0
C      1  0.4806040000000  0.5251840000000  0.4158030000000 1.0
C      1  0.4427150000000  0.4979210000000  0.3990060000000 1.0
C      1  0.5609490000000  0.5536730000000  0.5578280000000 1.0
C      1  0.5047400000000  0.4857300000000  0.3652840000000 1.0
C      1  0.5494020000000  0.4477180000000  0.4050950000000 1.0
C      1  0.4376490000000  0.4893770000000  0.6042790000000 1.0
C      1  0.4362970000000  0.5400020000000  0.4265810000000 1.0
C      1  0.5496060000000  0.5189370000000  0.6176270000000 1.0
C      1  0.4556300000000  0.5347430000000  0.5977750000000 1.0
C      1  0.5854680000000  0.5380670000000  0.5650890000000 1.0
C      1  0.4930480000000  0.5831540000000  0.3741370000000 1.0
C      1  0.4764670000000  0.4567880000000  0.4574400000000 1.0
C      1  0.5898590000000  0.4171410000000  0.5600980000000 1.0
C      1  0.4945780000000  0.4486870000000  0.4814410000000 1.0
C      1  0.4007050000000  0.4394770000000  0.5131580000000 1.0
C      1  0.5167690000000  0.6137310000000  0.4405780000000 1.0
C      1  0.5055430000000  0.6383980000000  0.4811780000000 1.0
C      1  0.5451050000000  0.4780040000000  0.4015810000000 1.0
C      1  0.4770830000000  0.5431690000000  0.5818780000000 1.0
C      1  0.5129690000000  0.5358870000000  0.5220760000000 1.0
C      1  0.4797930000000  0.5901810000000  0.5975030000000 1.0
C      1  0.3773510000000  0.5126040000000  0.4652140000000 1.0
C      1  0.4962380000000  0.5117590000000  0.5239510000000 1.0
C      1  0.5222630000000  0.5300920000000  0.6111620000000 1.0
C      1  0.4141470000000  0.6059250000000  0.4897370000000 1.0
C      1  0.5405520000000  0.3975810000000  0.4487190000000 1.0
C      1  0.4624650000000  0.6226570000000  0.4968350000000 1.0
C      1  0.4189990000000  0.4279790000000  0.4935720000000 1.0
C      1  0.5823320000000  0.5907410000000  0.4596170000000 1.0
C      1  0.4275940000000  0.4413000000000  0.5882040000000 1.0
C      1  0.6115030000000  0.5781030000000  0.4100740000000 1.0
C      1  0.5271520000000  0.4847770000000  0.3794770000000 1.0
C      1  0.4996310000000  0.3978140000000  0.4850090000000 1.0
C      1  0.3717860000000  0.4851610000000  0.5067280000000 1.0
C      1  0.5320200000000  0.5914980000000  0.4523590000000 1.0
C      1  0.5996510000000  0.5348600000000  0.4951690000000 1.0
C      1  0.4133930000000  0.4442230000000  0.5632260000000 1.0
C      1  0.5528200000000  0.4283850000000  0.5864540000000 1.0
C      1  0.4386230000000  0.4765990000000  0.5204280000000 1.0
C      1  0.5037090000000  0.5788250000000  0.6036010000000 1.0
C      1  0.5803860000000  0.4333970000000  0.5822370000000 1.0
C      1  0.5238460000000  0.4608970000000  0.5256520000000 1.0
C      1  0.5927040000000  0.4521490000000  0.5282930000000 1.0
C      1  0.5299780000000  0.5509230000000  0.4795990000000 1.0
C      1  0.3943420000000  0.4675650000000  0.5062760000000 1.0
C      1  0.3616450000000  0.4958660000000  0.4820490000000 1.0
C      1  0.4387200000000  0.4407190000000  0.4390300000000 1.0
C      1  0.5420420000000  0.5055880000000  0.5505720000000 1.0
C      1  0.6036860000000  0.5466440000000  0.5438300000000 1.0
C      1  0.5456920000000  0.3895390000000  0.4774890000000 1.0
C      1  0.5000520000000  0.4050590000000  0.4147240000000 1.0
C      1  0.4157890000000  0.4924690000000  0.4052140000000 1.0
C      1  0.5451000000000  0.5635850000000  0.5797190000000 1.0
C      1  0.6270310000000  0.5633430000000  0.4261810000000 1.0
C      1  0.5886420000000  0.4611120000000  0.5806210000000 1.0
C      1  0.5630190000000  0.4107280000000  0.5179610000000 1.0
C      1  0.4314920000000  0.5479200000000  0.5906380000000 1.0
C      1  0.4914610000000  0.4757050000000  0.5562260000000 1.0
C      1  0.4648030000000  0.4002250000000  0.4461740000000 1.0
C      1  0.4121390000000  0.5022820000000  0.5924920000000 1.0
C      1  0.5047690000000  0.6616390000000  0.4955680000000 1.0
C      1  0.5550420000000  0.5443530000000  0.4095530000000 1.0
C      1  0.5283800000000  0.5348230000000  0.4149390000000 1.0
C      1  0.4181920000000  0.4827020000000  0.5024850000000 1.0
C      1  0.4746540000000  0.4468880000000  0.6030560000000 1.0
C      1  0.5363830000000  0.4873360000000  0.4305750000000 1.0
C      1  0.5177050000000  0.5755880000000  0.4711730000000 1.0
C      1  0.5650550000000  0.4295390000000  0.4708000000000 1.0
C      1  0.5880440000000  0.5102930000000  0.5729330000000 1.0
C      1  0.4929950000000  0.4960370000000  0.4822810000000 1.0
C      1  0.5254430000000  0.4510370000000  0.6215760000000 1.0
C      1  0.3360470000000  0.4895780000000  0.4744460000000 1.0
C      1  0.4463850000000  0.4934620000000  0.4665570000000 1.0
C      1  0.5026780000000  0.5382680000000  0.4029260000000 1.0
C      1  0.4863140000000  0.5545150000000  0.5575840000000 1.0
C      1  0.4480230000000  0.4643250000000  0.4556620000000 1.0
C      1  0.5227950000000  0.4099960000000  0.5505670000000 1.0
C      1  0.4566410000000  0.5102280000000  0.6127350000000 1.0
C      1  0.5257890000000  0.5256330000000  0.5631030000000 1.0
C      1  0.3842300000000  0.5083220000000  0.5525730000000 1.0
C      1  0.3687300000000  0.4996900000000  0.5309140000000 1.0
C      1  0.3961320000000  0.4893520000000  0.5716050000000 1.0
C      1  0.5957300000000  0.5094680000000  0.4301100000000 1.0
C      1  0.4134770000000  0.4718300000000  0.5586430000000 1.0
C      1  0.4722290000000  0.4116630000000  0.4189250000000 1.0
END
