TITL C-599896-8500-541 0.000121983625115138 125000 -364.315775870026 0 0 60 (C1) n - 1
REM
REM in /home/nfs/bkarasulu/CARBON/AIRSS/Generating-Clusters/TERSOFF/Only-C1/FIRE-HFTN
REM
REM
REM
REM
REM
REM ./C.cell (11c1c37f851c82e70ff6c80c92926a4b)
REM AIRSS Version 0.9.1 bugfix July 2018 build 013d7b7c2542+ Fri, 06 Jul 2018 19:26:36 +0100
REM compiler GCC version 9.2.1 20190827 (Red Hat 9.2.1-1)
REM options -cpp -mtune=generic -march=x86-64 -g -O0 -fpre-include=/usr/include/finclude/math-vector-fortran.h
REM seed -1838885967 -124507492 -735065537 -2121300111 512630041 103502812 464483896 1679340332 510759881 502833675 -1313616447 -746635653 -740993386 1851578735 -1443103794 -2128652559 196469634 1978383031 1035530984 726111010 1815759401 681966188 546156261 307244663 100503633 1704332635 1195483331 -338415463 -4059995 -729816666 -78426651 -1153081585 1455574845
REM
CELL 1.54180   50.00000   50.00000   50.00000   90.00000   90.00000   90.00000
LATT -1
SFAC C  
C      1  0.4399150000000  0.4915970000000  0.5574620000000 1.0
C      1  0.5373060000000  0.4564630000000  0.5544770000000 1.0
C      1  0.4449700000000  0.5493820000000  0.4595270000000 1.0
C      1  0.5249180000000  0.4487520000000  0.4588680000000 1.0
C      1  0.4971350000000  0.4944750000000  0.4241370000000 1.0
C      1  0.5226410000000  0.4338380000000  0.4831490000000 1.0
C      1  0.5535550000000  0.4682960000000  0.5009020000000 1.0
C      1  0.6086630000000  0.5060900000000  0.5315570000000 1.0
C      1  0.4543550000000  0.4755120000000  0.5376920000000 1.0
C      1  0.4832150000000  0.4629400000000  0.5414380000000 1.0
C      1  0.4499930000000  0.4904110000000  0.5129090000000 1.0
C      1  0.5494180000000  0.4851750000000  0.4775550000000 1.0
C      1  0.4476000000000  0.5281080000000  0.4415010000000 1.0
C      1  0.5217260000000  0.5461890000000  0.4493410000000 1.0
C      1  0.5471000000000  0.5675360000000  0.5115430000000 1.0
C      1  0.3967990000000  0.4618130000000  0.4323510000000 1.0
C      1  0.5004690000000  0.4175360000000  0.4901660000000 1.0
C      1  0.4492170000000  0.5320020000000  0.4135800000000 1.0
C      1  0.4531500000000  0.5648280000000  0.4797170000000 1.0
C      1  0.5072840000000  0.5297680000000  0.5267610000000 1.0
C      1  0.5218070000000  0.5762150000000  0.5086070000000 1.0
C      1  0.4183090000000  0.4826070000000  0.5714870000000 1.0
C      1  0.4543380000000  0.5343230000000  0.5359730000000 1.0
C      1  0.4150360000000  0.4727780000000  0.4473960000000 1.0
C      1  0.5666230000000  0.4809210000000  0.5233460000000 1.0
C      1  0.5626610000000  0.5101290000000  0.4777830000000 1.0
C      1  0.5267280000000  0.4790990000000  0.4588050000000 1.0
C      1  0.4990360000000  0.4868970000000  0.4706350000000 1.0
C      1  0.6316010000000  0.5087450000000  0.5436360000000 1.0
C      1  0.4994060000000  0.5702390000000  0.4924490000000 1.0
C      1  0.5251060000000  0.5239000000000  0.5458820000000 1.0
C      1  0.4348270000000  0.4850780000000  0.4626130000000 1.0
C      1  0.5519610000000  0.4801240000000  0.5477280000000 1.0
C      1  0.5248260000000  0.4970700000000  0.4336870000000 1.0
C      1  0.4366420000000  0.4815790000000  0.4902810000000 1.0
C      1  0.5188990000000  0.4592120000000  0.5758450000000 1.0
C      1  0.4544490000000  0.5017850000000  0.4507140000000 1.0
C      1  0.4862620000000  0.4947130000000  0.5829280000000 1.0
C      1  0.4616830000000  0.5609010000000  0.5272940000000 1.0
C      1  0.4716140000000  0.5685970000000  0.5009890000000 1.0
C      1  0.4979250000000  0.4773300000000  0.5190590000000 1.0
C      1  0.4893330000000  0.5187480000000  0.5077530000000 1.0
C      1  0.4936940000000  0.4709670000000  0.5695680000000 1.0
C      1  0.4719380000000  0.5174030000000  0.5795620000000 1.0
C      1  0.5321100000000  0.5244610000000  0.4371910000000 1.0
C      1  0.4511670000000  0.5187210000000  0.5602640000000 1.0
C      1  0.5839650000000  0.5034610000000  0.5191490000000 1.0
C      1  0.4861520000000  0.5035300000000  0.4001030000000 1.0
C      1  0.4968030000000  0.4349230000000  0.5352720000000 1.0
C      1  0.5067940000000  0.5601920000000  0.4666890000000 1.0
C      1  0.5657990000000  0.5487540000000  0.5076290000000 1.0
C      1  0.5265110000000  0.4406820000000  0.5327820000000 1.0
C      1  0.5371220000000  0.4449770000000  0.5057860000000 1.0
C      1  0.4980320000000  0.4942470000000  0.4970950000000 1.0
C      1  0.4876980000000  0.4180050000000  0.5142680000000 1.0
C      1  0.4615960000000  0.5167500000000  0.5143930000000 1.0
C      1  0.5416070000000  0.5052440000000  0.5558400000000 1.0
C      1  0.5735370000000  0.5226930000000  0.5006570000000 1.0
C      1  0.4811530000000  0.4926480000000  0.4486020000000 1.0
C      1  0.4658230000000  0.5206450000000  0.3956260000000 1.0
END
