TITL C-599895-9959-60 0.0167732301649702 125000 -265.159054723262 0 0 46 (C1) n - 1
REM
REM in /home/nfs/bkarasulu/CARBON/AIRSS/Generating-Clusters/TERSOFF/Only-C1/FIRE-HFTN
REM
REM
REM
REM
REM
REM ./C.cell (11c1c37f851c82e70ff6c80c92926a4b)
REM AIRSS Version 0.9.1 bugfix July 2018 build 013d7b7c2542+ Fri, 06 Jul 2018 19:26:36 +0100
REM compiler GCC version 9.2.1 20190827 (Red Hat 9.2.1-1)
REM options -cpp -mtune=generic -march=x86-64 -g -O0 -fpre-include=/usr/include/finclude/math-vector-fortran.h
REM seed 1805599164 -11535679 646747648 1223153683 390337488 -191149597 1556123563 2074325202 -1107966902 -1387389009 916729766 187036854 1796691924 -1302418450 1006460571 804472378 -1722446313 1294647634 -596609307 -949191629 -1626471611 723375190 89558248 -1654172855 -1932059719 -1722533612 1652870517 606615779 1669960890 -499799628 -738760656 101759383 -1363716313
REM
CELL 1.54180   50.00000   50.00000   50.00000   90.00000   90.00000   90.00000
LATT -1
SFAC C  
C      1  0.5744410000000  0.5064600000000  0.5014810000000 1.0
C      1  0.4148770000000  0.5038720000000  0.5274200000000 1.0
C      1  0.5866670000000  0.4378790000000  0.4744470000000 1.0
C      1  0.5410310000000  0.4614840000000  0.4855650000000 1.0
C      1  0.5765230000000  0.5147430000000  0.4745830000000 1.0
C      1  0.5388010000000  0.4571630000000  0.5429140000000 1.0
C      1  0.4814030000000  0.5219820000000  0.4326640000000 1.0
C      1  0.5265520000000  0.5313090000000  0.4646400000000 1.0
C      1  0.5193220000000  0.5340530000000  0.4922380000000 1.0
C      1  0.4325480000000  0.4913690000000  0.4517140000000 1.0
C      1  0.4730560000000  0.5184890000000  0.4842970000000 1.0
C      1  0.5637100000000  0.4488650000000  0.4800890000000 1.0
C      1  0.4577430000000  0.5337050000000  0.4461100000000 1.0
C      1  0.6005740000000  0.5136180000000  0.4616200000000 1.0
C      1  0.5523560000000  0.4343190000000  0.5370470000000 1.0
C      1  0.4080590000000  0.5097250000000  0.5016220000000 1.0
C      1  0.5109050000000  0.4830850000000  0.5681640000000 1.0
C      1  0.4526850000000  0.4723690000000  0.4590060000000 1.0
C      1  0.4405990000000  0.5455660000000  0.5033150000000 1.0
C      1  0.5011630000000  0.4668010000000  0.4589640000000 1.0
C      1  0.4544170000000  0.5325130000000  0.5263890000000 1.0
C      1  0.5340650000000  0.4994670000000  0.5628190000000 1.0
C      1  0.5499990000000  0.4840910000000  0.5437860000000 1.0
C      1  0.4562270000000  0.4494450000000  0.5052260000000 1.0
C      1  0.4895330000000  0.4440580000000  0.5441300000000 1.0
C      1  0.4333560000000  0.5196390000000  0.4575640000000 1.0
C      1  0.4776790000000  0.4733090000000  0.4440120000000 1.0
C      1  0.5500930000000  0.5733480000000  0.5892710000000 1.0
C      1  0.4797590000000  0.4945960000000  0.4253190000000 1.0
C      1  0.4240470000000  0.5273880000000  0.4856340000000 1.0
C      1  0.4579360000000  0.4706780000000  0.4871300000000 1.0
C      1  0.5116030000000  0.4580550000000  0.5536390000000 1.0
C      1  0.5023220000000  0.4900530000000  0.5018460000000 1.0
C      1  0.4571260000000  0.5625720000000  0.4872480000000 1.0
C      1  0.4694460000000  0.4406850000000  0.5268400000000 1.0
C      1  0.4743640000000  0.4922870000000  0.4947900000000 1.0
C      1  0.5450150000000  0.5489940000000  0.5814800000000 1.0
C      1  0.5535310000000  0.5240730000000  0.4611620000000 1.0
C      1  0.5398180000000  0.5243380000000  0.5733000000000 1.0
C      1  0.4368140000000  0.5144030000000  0.5398170000000 1.0
C      1  0.4836440000000  0.5289540000000  0.5270770000000 1.0
C      1  0.5072470000000  0.5304490000000  0.4433410000000 1.0
C      1  0.5067660000000  0.5177290000000  0.5120660000000 1.0
C      1  0.5666850000000  0.4955270000000  0.5245520000000 1.0
C      1  0.5157820000000  0.4728160000000  0.4830330000000 1.0
C      1  0.4697120000000  0.5436800000000  0.4706290000000 1.0
END
