TITL C-599891-72-325 0.124353532311136 125000 -1221.61970349656 0 0 198 (C1) n - 1
REM
REM in /home/nfs/bkarasulu/CARBON/AIRSS/Generating-Clusters/TERSOFF/Only-C1/FIRE-HFTN
REM
REM
REM
REM
REM
REM ./C.cell (11c1c37f851c82e70ff6c80c92926a4b)
REM AIRSS Version 0.9.1 bugfix July 2018 build 013d7b7c2542+ Fri, 06 Jul 2018 19:26:36 +0100
REM compiler GCC version 9.2.1 20190827 (Red Hat 9.2.1-1)
REM options -cpp -mtune=generic -march=x86-64 -g -O0 -fpre-include=/usr/include/finclude/math-vector-fortran.h
REM seed -750608740 -1356249316 1973732438 -598010220 441025674 -746288964 -1105819713 1388656308 1120141280 1703465511 -1508554388 981741001 1060234996 1715917413 1212478267 -889505907 -72993260 -1718208532 1944691738 -259509397 1525532094 1303280474 310482437 314721030 1705921925 -2133435039 -1625836016 1619439332 2054075545 1246765185 -1506175427 -1788925670 -1978414009
REM
CELL 1.54180   50.00000   50.00000   50.00000   90.00000   90.00000   90.00000
LATT -1
SFAC C  
C      1  0.3949740000000  0.5476470000000  0.4496560000000 1.0
C      1  0.4299690000000  0.3861140000000  0.3998370000000 1.0
C      1  0.5817540000000  0.4895330000000  0.6099660000000 1.0
C      1  0.4869660000000  0.4263000000000  0.6156070000000 1.0
C      1  0.4617410000000  0.6165680000000  0.5079570000000 1.0
C      1  0.4986000000000  0.6409370000000  0.4808270000000 1.0
C      1  0.5927260000000  0.5392880000000  0.5692270000000 1.0
C      1  0.5866760000000  0.5781520000000  0.5357060000000 1.0
C      1  0.4338300000000  0.5189900000000  0.4383100000000 1.0
C      1  0.5555160000000  0.5148210000000  0.4045930000000 1.0
C      1  0.5115810000000  0.3897960000000  0.5450640000000 1.0
C      1  0.4473270000000  0.5171570000000  0.5844300000000 1.0
C      1  0.4614050000000  0.4854520000000  0.4772470000000 1.0
C      1  0.5430590000000  0.6027670000000  0.5830230000000 1.0
C      1  0.5583790000000  0.4976310000000  0.5525870000000 1.0
C      1  0.4564850000000  0.5374140000000  0.4896490000000 1.0
C      1  0.5881990000000  0.5201280000000  0.4430400000000 1.0
C      1  0.5501880000000  0.4721000000000  0.4489340000000 1.0
C      1  0.5483150000000  0.6276050000000  0.4779740000000 1.0
C      1  0.5447900000000  0.5559280000000  0.6183320000000 1.0
C      1  0.4604200000000  0.4270070000000  0.3846370000000 1.0
C      1  0.4218080000000  0.4421170000000  0.4969340000000 1.0
C      1  0.4683430000000  0.4708240000000  0.4077040000000 1.0
C      1  0.5397170000000  0.3863610000000  0.5385060000000 1.0
C      1  0.4972650000000  0.6380430000000  0.5308700000000 1.0
C      1  0.4399060000000  0.5171870000000  0.4109560000000 1.0
C      1  0.5551610000000  0.4583310000000  0.6375230000000 1.0
C      1  0.5187660000000  0.5858700000000  0.4389230000000 1.0
C      1  0.4888330000000  0.4877320000000  0.4156190000000 1.0
C      1  0.5662790000000  0.4270390000000  0.4262370000000 1.0
C      1  0.5522880000000  0.6058560000000  0.5191610000000 1.0
C      1  0.4857320000000  0.4365790000000  0.5086780000000 1.0
C      1  0.6004470000000  0.4317110000000  0.5842710000000 1.0
C      1  0.4603740000000  0.4857970000000  0.5066010000000 1.0
C      1  0.5865140000000  0.4923480000000  0.5598460000000 1.0
C      1  0.5132130000000  0.6180540000000  0.5431300000000 1.0
C      1  0.5571080000000  0.4091840000000  0.4693900000000 1.0
C      1  0.5083570000000  0.5827820000000  0.5061730000000 1.0
C      1  0.4659460000000  0.5027460000000  0.3731620000000 1.0
C      1  0.5577210000000  0.5024950000000  0.6205450000000 1.0
C      1  0.3651260000000  0.5272500000000  0.4904570000000 1.0
C      1  0.4290540000000  0.4405160000000  0.5246780000000 1.0
C      1  0.3681540000000  0.5096600000000  0.3686820000000 1.0
C      1  0.5016110000000  0.4527310000000  0.4491060000000 1.0
C      1  0.5120550000000  0.4414980000000  0.6150230000000 1.0
C      1  0.3788130000000  0.4745150000000  0.4976740000000 1.0
C      1  0.4894790000000  0.5191240000000  0.3807490000000 1.0
C      1  0.5583830000000  0.4198320000000  0.4004810000000 1.0
C      1  0.5326210000000  0.5690340000000  0.4197480000000 1.0
C      1  0.4048130000000  0.5222690000000  0.4422840000000 1.0
C      1  0.5327730000000  0.4281310000000  0.6009210000000 1.0
C      1  0.5468890000000  0.5815850000000  0.6034310000000 1.0
C      1  0.4814450000000  0.5037060000000  0.5121210000000 1.0
C      1  0.4958390000000  0.5568270000000  0.6238270000000 1.0
C      1  0.5482720000000  0.5489400000000  0.5546600000000 1.0
C      1  0.4399940000000  0.5311930000000  0.5595600000000 1.0
C      1  0.3754330000000  0.5481960000000  0.4703280000000 1.0
C      1  0.4130640000000  0.4839180000000  0.5854600000000 1.0
C      1  0.5706480000000  0.6013270000000  0.5402840000000 1.0
C      1  0.5201580000000  0.4770070000000  0.5170080000000 1.0
C      1  0.6061840000000  0.4484570000000  0.5075910000000 1.0
C      1  0.4675030000000  0.4735980000000  0.3788290000000 1.0
C      1  0.5126090000000  0.4495140000000  0.5110210000000 1.0
C      1  0.4848950000000  0.6331190000000  0.5054590000000 1.0
C      1  0.5793170000000  0.5313270000000  0.4951170000000 1.0
C      1  0.5748920000000  0.4418330000000  0.6290590000000 1.0
C      1  0.5912180000000  0.4330350000000  0.6095310000000 1.0
C      1  0.4479560000000  0.5722200000000  0.4050570000000 1.0
C      1  0.5213030000000  0.5204800000000  0.4908320000000 1.0
C      1  0.5655150000000  0.6089680000000  0.5667640000000 1.0
C      1  0.5538860000000  0.5454580000000  0.4589570000000 1.0
C      1  0.4838300000000  0.4768630000000  0.4599800000000 1.0
C      1  0.4856730000000  0.4264090000000  0.4002120000000 1.0
C      1  0.5442080000000  0.3882110000000  0.4840400000000 1.0
C      1  0.5583720000000  0.5308460000000  0.6126580000000 1.0
C      1  0.5589580000000  0.5386880000000  0.5110640000000 1.0
C      1  0.5796350000000  0.5346780000000  0.4673600000000 1.0
C      1  0.4340060000000  0.3770010000000  0.4467330000000 1.0
C      1  0.4272660000000  0.4658790000000  0.5383180000000 1.0
C      1  0.3799680000000  0.4803550000000  0.4459270000000 1.0
C      1  0.4399940000000  0.5774970000000  0.5375520000000 1.0
C      1  0.4815150000000  0.5965880000000  0.6000530000000 1.0
C      1  0.3963170000000  0.4543650000000  0.4929220000000 1.0
C      1  0.4328020000000  0.5591990000000  0.5582380000000 1.0
C      1  0.4726520000000  0.4009180000000  0.4756860000000 1.0
C      1  0.4596340000000  0.4734250000000  0.5718550000000 1.0
C      1  0.5773310000000  0.4714220000000  0.4388210000000 1.0
C      1  0.4882080000000  0.4324740000000  0.5583540000000 1.0
C      1  0.5952750000000  0.4925430000000  0.4476730000000 1.0
C      1  0.4021570000000  0.3524530000000  0.4201950000000 1.0
C      1  0.4565680000000  0.3994800000000  0.5848790000000 1.0
C      1  0.6117880000000  0.4580380000000  0.4796900000000 1.0
C      1  0.4822760000000  0.5500270000000  0.5555950000000 1.0
C      1  0.5883910000000  0.5956810000000  0.4907720000000 1.0
C      1  0.5708390000000  0.5298190000000  0.5871300000000 1.0
C      1  0.4869510000000  0.5468270000000  0.5285840000000 1.0
C      1  0.5181540000000  0.6139730000000  0.5716150000000 1.0
C      1  0.5529550000000  0.4043050000000  0.5585460000000 1.0
C      1  0.4932050000000  0.4904870000000  0.6032530000000 1.0
C      1  0.5869980000000  0.4447650000000  0.4361930000000 1.0
C      1  0.4899030000000  0.5777290000000  0.4828110000000 1.0
C      1  0.5995730000000  0.4370910000000  0.4609770000000 1.0
C      1  0.4108970000000  0.5689690000000  0.4395800000000 1.0
C      1  0.5552100000000  0.5541830000000  0.4308950000000 1.0
C      1  0.4958580000000  0.6163510000000  0.5887820000000 1.0
C      1  0.4755690000000  0.4507370000000  0.5763420000000 1.0
C      1  0.5110130000000  0.5569070000000  0.5178660000000 1.0
C      1  0.5512870000000  0.5222360000000  0.5658160000000 1.0
C      1  0.4433000000000  0.4396060000000  0.4773190000000 1.0
C      1  0.5191640000000  0.6134530000000  0.4439700000000 1.0
C      1  0.5012210000000  0.5717650000000  0.4558850000000 1.0
C      1  0.5163100000000  0.5598850000000  0.3972170000000 1.0
C      1  0.5395210000000  0.4807450000000  0.6274390000000 1.0
C      1  0.5329290000000  0.4151980000000  0.5764080000000 1.0
C      1  0.5641580000000  0.6107380000000  0.4938660000000 1.0
C      1  0.4696020000000  0.4450160000000  0.6037310000000 1.0
C      1  0.4755210000000  0.4014500000000  0.6052590000000 1.0
C      1  0.4921290000000  0.5257530000000  0.4418130000000 1.0
C      1  0.6118890000000  0.4467620000000  0.5357870000000 1.0
C      1  0.5243890000000  0.6017850000000  0.5220090000000 1.0
C      1  0.5455220000000  0.4949790000000  0.4631900000000 1.0
C      1  0.5342900000000  0.5220900000000  0.4638170000000 1.0
C      1  0.5091600000000  0.4183340000000  0.3866520000000 1.0
C      1  0.4882410000000  0.6632250000000  0.4680720000000 1.0
C      1  0.3452630000000  0.5421200000000  0.5062380000000 1.0
C      1  0.4888660000000  0.5694040000000  0.5997310000000 1.0
C      1  0.5774850000000  0.5569850000000  0.5516170000000 1.0
C      1  0.5078830000000  0.4988980000000  0.5042470000000 1.0
C      1  0.3604190000000  0.5725390000000  0.4764840000000 1.0
C      1  0.4386000000000  0.4885090000000  0.5253440000000 1.0
C      1  0.4901900000000  0.4354210000000  0.4276880000000 1.0
C      1  0.4742490000000  0.4289250000000  0.5339050000000 1.0
C      1  0.4993910000000  0.5597050000000  0.5750670000000 1.0
C      1  0.4393650000000  0.5084880000000  0.3838620000000 1.0
C      1  0.3964850000000  0.4990440000000  0.4565300000000 1.0
C      1  0.5897590000000  0.4809520000000  0.5856340000000 1.0
C      1  0.5823750000000  0.4198330000000  0.4773510000000 1.0
C      1  0.5073630000000  0.4122990000000  0.5629750000000 1.0
C      1  0.4255440000000  0.4635110000000  0.3669500000000 1.0
C      1  0.4292590000000  0.4654100000000  0.5686480000000 1.0
C      1  0.4513600000000  0.4512730000000  0.3711700000000 1.0
C      1  0.4250480000000  0.4365230000000  0.5773540000000 1.0
C      1  0.3924490000000  0.5003030000000  0.3698470000000 1.0
C      1  0.5311630000000  0.5400540000000  0.5086160000000 1.0
C      1  0.4507940000000  0.3873560000000  0.4644510000000 1.0
C      1  0.5460740000000  0.4244270000000  0.4475290000000 1.0
C      1  0.5283530000000  0.5127140000000  0.4120420000000 1.0
C      1  0.5218140000000  0.6286920000000  0.4678340000000 1.0
C      1  0.6001330000000  0.5771900000000  0.5099260000000 1.0
C      1  0.4342630000000  0.5137870000000  0.5377380000000 1.0
C      1  0.4833690000000  0.5523050000000  0.4429390000000 1.0
C      1  0.6252190000000  0.5073280000000  0.4845100000000 1.0
C      1  0.4381750000000  0.5708410000000  0.4317150000000 1.0
C      1  0.6273030000000  0.5323790000000  0.4947560000000 1.0
C      1  0.5201460000000  0.5232520000000  0.4378710000000 1.0
C      1  0.4688530000000  0.4274240000000  0.4861260000000 1.0
C      1  0.5406940000000  0.4832170000000  0.5360520000000 1.0
C      1  0.3695950000000  0.4999500000000  0.4965430000000 1.0
C      1  0.4724550000000  0.5302190000000  0.5116740000000 1.0
C      1  0.5219630000000  0.3757720000000  0.4714270000000 1.0
C      1  0.5625810000000  0.4305240000000  0.5212110000000 1.0
C      1  0.4041210000000  0.5787730000000  0.5997390000000 1.0
C      1  0.4403590000000  0.4148280000000  0.5661280000000 1.0
C      1  0.4434340000000  0.4048310000000  0.3867190000000 1.0
C      1  0.4692530000000  0.4971410000000  0.5861020000000 1.0
C      1  0.4467570000000  0.4220360000000  0.5380570000000 1.0
C      1  0.3430500000000  0.5682860000000  0.4975500000000 1.0
C      1  0.4172460000000  0.5693780000000  0.5792810000000 1.0
C      1  0.5478430000000  0.3821560000000  0.5117280000000 1.0
C      1  0.5357410000000  0.4333830000000  0.5133360000000 1.0
C      1  0.4234690000000  0.5066130000000  0.5965880000000 1.0
C      1  0.5833700000000  0.4309700000000  0.5030540000000 1.0
C      1  0.4679580000000  0.5632560000000  0.3892970000000 1.0
C      1  0.4158590000000  0.4992700000000  0.4782020000000 1.0
C      1  0.5357980000000  0.4165580000000  0.3865190000000 1.0
C      1  0.5057910000000  0.5028870000000  0.3983440000000 1.0
C      1  0.6127700000000  0.4856940000000  0.4704780000000 1.0
C      1  0.4413100000000  0.4481480000000  0.4497950000000 1.0
C      1  0.4494810000000  0.4592270000000  0.4262690000000 1.0
C      1  0.5248140000000  0.3532380000000  0.4563160000000 1.0
C      1  0.5960030000000  0.4334140000000  0.5564120000000 1.0
C      1  0.5314610000000  0.4498200000000  0.4505920000000 1.0
C      1  0.4216530000000  0.3714720000000  0.4222110000000 1.0
C      1  0.5709000000000  0.4227930000000  0.5472070000000 1.0
C      1  0.4918860000000  0.5480300000000  0.3861180000000 1.0
C      1  0.4479770000000  0.5979560000000  0.5219200000000 1.0
C      1  0.4616860000000  0.5637850000000  0.4796370000000 1.0
C      1  0.6189510000000  0.5568690000000  0.5030100000000 1.0
C      1  0.5207990000000  0.5532330000000  0.6332130000000 1.0
C      1  0.6034700000000  0.5157100000000  0.5566560000000 1.0
C      1  0.5723020000000  0.5318250000000  0.4201710000000 1.0
C      1  0.4846860000000  0.4984310000000  0.4409270000000 1.0
C      1  0.4184820000000  0.4909830000000  0.3732970000000 1.0
C      1  0.5258290000000  0.5617890000000  0.5653510000000 1.0
C      1  0.4972650000000  0.3880730000000  0.4753640000000 1.0
C      1  0.4435360000000  0.5106050000000  0.4693760000000 1.0
C      1  0.5136180000000  0.4721050000000  0.6159850000000 1.0
C      1  0.4576100000000  0.5630020000000  0.4505150000000 1.0
END
