TITL C-599891-72-874 37273.8664139729 125000 -1171.85957683621 0 0 194 (C1) n - 1
REM
REM in /home/nfs/bkarasulu/CARBON/AIRSS/Generating-Clusters/TERSOFF/Only-C1/FIRE-HFTN
REM
REM
REM
REM
REM
REM ./C.cell (11c1c37f851c82e70ff6c80c92926a4b)
REM AIRSS Version 0.9.1 bugfix July 2018 build 013d7b7c2542+ Fri, 06 Jul 2018 19:26:36 +0100
REM compiler GCC version 9.2.1 20190827 (Red Hat 9.2.1-1)
REM options -cpp -mtune=generic -march=x86-64 -g -O0 -fpre-include=/usr/include/finclude/math-vector-fortran.h
REM seed 1061074346 -1593436839 -1280953274 808978711 1687586149 693178502 1249031936 143550583 1554889179 -976439720 -1298735261 7701215 919196928 -1840469738 767893889 -1120342516 -1170978467 -2896912 -1352059165 -1659528454 -1618085518 1479314944 1500446142 26362892 -1672552643 -1327597657 -859128363 -1310864029 812347963 -1590944737 -437549427 1491700052 1522139676
REM
CELL 1.54180   50.00000   50.00000   50.00000   90.00000   90.00000   90.00000
LATT -1
SFAC C  
C      1  0.6016190000000  0.5656370000000  0.4227720000000 1.0
C      1  0.5495260000000  0.5553170000000  0.5824160000000 1.0
C      1  0.4074390000000  0.4911950000000  0.5574660000000 1.0
C      1  0.5032310000000  0.4734410000000  0.5709660000000 1.0
C      1  0.5755460000000  0.5072510000000  0.3956210000000 1.0
C      1  0.4113430000000  0.5017520000000  0.5314580000000 1.0
C      1  0.4171060000000  0.5092070000000  0.5772500000000 1.0
C      1  0.3746180000000  0.4905310000000  0.5047970000000 1.0
C      1  0.4806480000000  0.6040320000000  0.5212740000000 1.0
C      1  0.5548330000000  0.4841710000000  0.4776460000000 1.0
C      1  0.5759040000000  0.5846040000000  0.4628180000000 1.0
C      1  0.5419920000000  0.5856990000000  0.4219500000000 1.0
C      1  0.5934270000000  0.5155120000000  0.4528110000000 1.0
C      1  0.5933120000000  0.5654770000000  0.4493260000000 1.0
C      1  0.4591360000000  0.4944700000000  0.3639110000000 1.0
C      1  0.5533990000000  0.3915280000000  0.5960930000000 1.0
C      1  0.4535520000000  0.4292250000000  0.6001620000000 1.0
C      1  0.6106270000000  0.5639270000000  0.5459890000000 1.0
C      1  0.5677430000000  0.4919800000000  0.4180270000000 1.0
C      1  0.5029680000000  0.4441600000000  0.4513780000000 1.0
C      1  0.4240910000000  0.5200520000000  0.3930610000000 1.0
C      1  0.5584160000000  0.5264170000000  0.4984950000000 1.0
C      1  0.4281830000000  0.3635020000000  0.5312880000000 1.0
C      1  0.3998020000000  0.4731420000000  0.4525610000000 1.0
C      1  0.6592630000000  0.4848400000000  0.5368810000000 1.0
C      1  0.5426990000000  0.5433600000000  0.6079040000000 1.0
C      1  0.4447580000000  0.5264250000000  0.4113910000000 1.0
C      1  0.4664760000000  0.5785190000000  0.5218600000000 1.0
C      1  0.4417490000000  0.4992120000000  0.5895060000000 1.0
C      1  0.3964340000000  0.5716060000000  0.4444410000000 1.0
C      1  0.4749370000000  0.4643880000000  0.5669480000000 1.0
C      1  0.4730320000000  0.3955090000000  0.4712720000000 1.0
C      1  0.5170740000000  0.5337800000000  0.6163890000000 1.0
C      1  0.5261170000000  0.4940400000000  0.5382660000000 1.0
C      1  0.5003140000000  0.3950910000000  0.4796200000000 1.0
C      1  0.4665060000000  0.5925350000000  0.4289790000000 1.0
C      1  0.5677240000000  0.5102420000000  0.5621380000000 1.0
C      1  0.4128050000000  0.5369890000000  0.5688670000000 1.0
C      1  0.4054700000000  0.4628290000000  0.5567840000000 1.0
C      1  0.4540890000000  0.5753650000000  0.4106470000000 1.0
C      1  0.5290650000000  0.5354360000000  0.3812190000000 1.0
C      1  0.5354940000000  0.4374540000000  0.3927600000000 1.0
C      1  0.5487610000000  0.4630790000000  0.5700810000000 1.0
C      1  0.4316700000000  0.4243440000000  0.5827240000000 1.0
C      1  0.5880530000000  0.4917440000000  0.4384270000000 1.0
C      1  0.5130880000000  0.5462000000000  0.5398050000000 1.0
C      1  0.4698320000000  0.4542850000000  0.4156540000000 1.0
C      1  0.4416580000000  0.5130700000000  0.4375040000000 1.0
C      1  0.4651450000000  0.5463570000000  0.4672880000000 1.0
C      1  0.6125370000000  0.4363590000000  0.5752540000000 1.0
C      1  0.5480750000000  0.5994670000000  0.5334920000000 1.0
C      1  0.5414310000000  0.4811280000000  0.4206020000000 1.0
C      1  0.3983010000000  0.5008040000000  0.4639110000000 1.0
C      1  0.5308640000000  0.4848180000000  0.6255990000000 1.0
C      1  0.5302500000000  0.5771560000000  0.5745040000000 1.0
C      1  0.5507650000000  0.5886870000000  0.4498280000000 1.0
C      1  0.3998160000000  0.4229230000000  0.4709760000000 1.0
C      1  0.4895360000000  0.4231650000000  0.5414990000000 1.0
C      1  0.4971380000000  0.4005900000000  0.5296250000000 1.0
C      1  0.5296700000000  0.5481230000000  0.4554440000000 1.0
C      1  0.5757190000000  0.5468140000000  0.4891040000000 1.0
C      1  0.5021110000000  0.4896120000000  0.3932540000000 1.0
C      1  0.5470050000000  0.4064920000000  0.4806380000000 1.0
C      1  0.4632770000000  0.3730800000000  0.4586710000000 1.0
C      1  0.4491330000000  0.5177690000000  0.5079130000000 1.0
C      1  0.3810170000000  0.4661980000000  0.5154760000000 1.0
C      1  0.5813700000000  0.4488980000000  0.6061280000000 1.0
C      1  0.4233840000000  0.5582070000000  0.5852090000000 1.0
C      1  0.4681180000000  0.5153570000000  0.5262240000000 1.0
C      1  0.4393630000000  0.5798120000000  0.5878060000000 1.0
C      1  0.4820120000000  0.4930270000000  0.6202510000000 1.0
C      1  0.4650760000000  0.4442450000000  0.4856360000000 1.0
C      1  0.4583540000000  0.4892190000000  0.5671560000000 1.0
C      1  0.4286780000000  0.3800770000000  0.5519700000000 1.0
C      1  0.5093340000000  0.6401330000000  0.4738200000000 1.0
C      1  0.3914290000000  0.4493270000000  0.4651950000000 1.0
C      1  0.4770840000000  0.4958230000000  0.3828900000000 1.0
C      1  0.4948290000000  0.5888400000000  0.4314390000000 1.0
C      1  0.5465950000000  0.3650000000000  0.5971880000000 1.0
C      1  0.4438650000000  0.5556330000000  0.4542420000000 1.0
C      1  0.5234800000000  0.4037070000000  0.4633280000000 1.0
C      1  0.4833090000000  0.5417740000000  0.4878630000000 1.0
C      1  0.4964770000000  0.6159800000000  0.4749710000000 1.0
C      1  0.4956920000000  0.5502400000000  0.6065950000000 1.0
C      1  0.4023350000000  0.5166210000000  0.3791180000000 1.0
C      1  0.4551900000000  0.4179220000000  0.4747880000000 1.0
C      1  0.5771930000000  0.3992240000000  0.5824120000000 1.0
C      1  0.3867140000000  0.5734870000000  0.4695610000000 1.0
C      1  0.4783530000000  0.5494540000000  0.3576790000000 1.0
C      1  0.4733980000000  0.4434460000000  0.3895180000000 1.0
C      1  0.4573320000000  0.4131830000000  0.6220470000000 1.0
C      1  0.4570900000000  0.4880230000000  0.4492880000000 1.0
C      1  0.5343820000000  0.4387730000000  0.6100340000000 1.0
C      1  0.3977080000000  0.5411150000000  0.5067530000000 1.0
C      1  0.4744540000000  0.6120940000000  0.4932620000000 1.0
C      1  0.5585900000000  0.4921560000000  0.6244700000000 1.0
C      1  0.4745550000000  0.5341090000000  0.5692590000000 1.0
C      1  0.4272180000000  0.5011680000000  0.5082900000000 1.0
C      1  0.5153990000000  0.5769130000000  0.4131960000000 1.0
C      1  0.5977780000000  0.4209830000000  0.4178720000000 1.0
C      1  0.5107330000000  0.5544170000000  0.3938680000000 1.0
C      1  0.5736440000000  0.5762360000000  0.4915810000000 1.0
C      1  0.5877650000000  0.5535330000000  0.5529960000000 1.0
C      1  0.4610010000000  0.5100370000000  0.6088270000000 1.0
C      1  0.4286700000000  0.5846220000000  0.4943870000000 1.0
C      1  0.4270310000000  0.3478680000000  0.5104640000000 1.0
C      1  0.5690860000000  0.4997690000000  0.4971780000000 1.0
C      1  0.4198540000000  0.5712790000000  0.5388650000000 1.0
C      1  0.4874320000000  0.4634980000000  0.6162910000000 1.0
C      1  0.5049180000000  0.5662490000000  0.5836200000000 1.0
C      1  0.4938230000000  0.4496900000000  0.4785300000000 1.0
C      1  0.4217890000000  0.5634950000000  0.4409330000000 1.0
C      1  0.5106310000000  0.5641970000000  0.5173350000000 1.0
C      1  0.5992350000000  0.4867130000000  0.5894090000000 1.0
C      1  0.5988560000000  0.4128070000000  0.5737670000000 1.0
C      1  0.5167920000000  0.4584240000000  0.6215600000000 1.0
C      1  0.4851050000000  0.4984740000000  0.4537070000000 1.0
C      1  0.4571100000000  0.4464950000000  0.5165200000000 1.0
C      1  0.4937280000000  0.4440310000000  0.3711650000000 1.0
C      1  0.4974110000000  0.6067880000000  0.5460740000000 1.0
C      1  0.4680920000000  0.5120540000000  0.5533840000000 1.0
C      1  0.6060230000000  0.4929300000000  0.5383700000000 1.0
C      1  0.5990190000000  0.5520280000000  0.3999160000000 1.0
C      1  0.4477820000000  0.4673110000000  0.4281380000000 1.0
C      1  0.4307370000000  0.4764630000000  0.4958320000000 1.0
C      1  0.5103370000000  0.3914240000000  0.5069570000000 1.0
C      1  0.5262970000000  0.5747900000000  0.4964290000000 1.0
C      1  0.5666450000000  0.5394370000000  0.5652490000000 1.0
C      1  0.5128730000000  0.4778730000000  0.4170460000000 1.0
C      1  0.5110640000000  0.4970170000000  0.5843140000000 1.0
C      1  0.5201740000000  0.4227820000000  0.4430340000000 1.0
C      1  0.5942100000000  0.4986570000000  0.5638560000000 1.0
C      1  0.4949090000000  0.4595670000000  0.4293570000000 1.0
C      1  0.5000650000000  0.5163610000000  0.4363980000000 1.0
C      1  0.4188600000000  0.4674460000000  0.4309180000000 1.0
C      1  0.5048670000000  0.4954660000000  0.4774900000000 1.0
C      1  0.4713800000000  0.4505560000000  0.5949200000000 1.0
C      1  0.5363860000000  0.4107490000000  0.6085630000000 1.0
C      1  0.5652240000000  0.5913470000000  0.5140710000000 1.0
C      1  0.5330390000000  0.4979830000000  0.4639220000000 1.0
C      1  0.4612340000000  0.5490210000000  0.4031520000000 1.0
C      1  0.4040100000000  0.5669180000000  0.4911950000000 1.0
C      1  0.5558730000000  0.4511430000000  0.5951190000000 1.0
C      1  0.5907120000000  0.5407940000000  0.4644880000000 1.0
C      1  0.5950500000000  0.3961650000000  0.4103760000000 1.0
C      1  0.5046970000000  0.5942440000000  0.4579790000000 1.0
C      1  0.4136710000000  0.4447880000000  0.5762200000000 1.0
C      1  0.4514450000000  0.6033700000000  0.4508950000000 1.0
C      1  0.6334980000000  0.4886920000000  0.5362350000000 1.0
C      1  0.5107890000000  0.5047130000000  0.6138770000000 1.0
C      1  0.6003360000000  0.4455790000000  0.4273810000000 1.0
C      1  0.6054750000000  0.4694090000000  0.4410340000000 1.0
C      1  0.5487880000000  0.4891720000000  0.5563420000000 1.0
C      1  0.5605010000000  0.4567930000000  0.4757600000000 1.0
C      1  0.5276980000000  0.5764090000000  0.4665370000000 1.0
C      1  0.6038560000000  0.4582040000000  0.5910250000000 1.0
C      1  0.5238220000000  0.5213600000000  0.5315850000000 1.0
C      1  0.4036490000000  0.4544820000000  0.5291760000000 1.0
C      1  0.4498460000000  0.4711230000000  0.4752190000000 1.0
C      1  0.4798770000000  0.6084510000000  0.5691600000000 1.0
C      1  0.4834490000000  0.5494510000000  0.3852750000000 1.0
C      1  0.4954780000000  0.5507420000000  0.5610800000000 1.0
C      1  0.5822930000000  0.4962090000000  0.6114360000000 1.0
C      1  0.6282660000000  0.4712950000000  0.4571250000000 1.0
C      1  0.5886110000000  0.5297680000000  0.3894230000000 1.0
C      1  0.5211900000000  0.4537340000000  0.3733510000000 1.0
C      1  0.4586160000000  0.5976820000000  0.5818590000000 1.0
C      1  0.4294810000000  0.3996500000000  0.5697990000000 1.0
C      1  0.4388550000000  0.5796120000000  0.5207890000000 1.0
C      1  0.4744230000000  0.5513900000000  0.3319890000000 1.0
C      1  0.4488530000000  0.6021520000000  0.4796610000000 1.0
C      1  0.5322360000000  0.4250650000000  0.4170010000000 1.0
C      1  0.4287910000000  0.4547280000000  0.5152570000000 1.0
C      1  0.5047170000000  0.5226330000000  0.4901200000000 1.0
C      1  0.4064920000000  0.5460670000000  0.5406940000000 1.0
C      1  0.5268440000000  0.5217520000000  0.4465030000000 1.0
C      1  0.6506990000000  0.4734040000000  0.4702140000000 1.0
C      1  0.5390960000000  0.3936760000000  0.5051110000000 1.0
C      1  0.4788300000000  0.4511590000000  0.5381660000000 1.0
C      1  0.4168590000000  0.5173420000000  0.4506750000000 1.0
C      1  0.4273030000000  0.4164000000000  0.4700970000000 1.0
C      1  0.5303800000000  0.5262270000000  0.5040430000000 1.0
C      1  0.5225030000000  0.4541110000000  0.5642680000000 1.0
C      1  0.5041900000000  0.4721380000000  0.5226760000000 1.0
C      1  0.4720190000000  0.5346310000000  0.5985030000000 1.0
C      1  0.5261760000000  0.5967950000000  0.5520400000000 1.0
C      1  0.3874930000000  0.5114240000000  0.4897960000000 1.0
C      1  0.3813970000000  0.4038050000000  0.4775700000000 1.0
C      1  0.5894800000000  0.4922210000000  0.5151570000000 1.0
C      1  0.5614840000000  0.4303190000000  0.4789340000000 1.0
C      1  0.5225970000000  0.4840000000000  0.3729030000000 1.0
C      1  0.5331840000000  0.5108570000000  0.3688410000000 1.0
C      1  0.4834090000000  0.5603330000000  0.5090150000000 1.0
C      1  0.5034280000000  0.4714530000000  0.4944930000000 1.0
END
