TITL C-599894-471-908 0.406116841924032 125000 -953.576576329248 0 0 155 (C1) n - 1
REM
REM in /home/nfs/bkarasulu/CARBON/AIRSS/Generating-Clusters/TERSOFF/Only-C1/FIRE-HFTN
REM
REM
REM
REM
REM
REM ./C.cell (11c1c37f851c82e70ff6c80c92926a4b)
REM AIRSS Version 0.9.1 bugfix July 2018 build 013d7b7c2542+ Fri, 06 Jul 2018 19:26:36 +0100
REM compiler GCC version 9.2.1 20190827 (Red Hat 9.2.1-1)
REM options -cpp -mtune=generic -march=x86-64 -g -O0 -fpre-include=/usr/include/finclude/math-vector-fortran.h
REM seed 524558298 -1950653913 1967479393 -967328756 -791022793 100368997 1035196595 304232200 -1230331048 -2021869403 1281847467 -465133916 -573854893 1123295228 -567813597 1466932320 -561224699 -643319866 1274261154 1701772447 942534489 -1928721231 331863469 -605357977 384823127 -1347813473 -378097295 -1834017033 1405680525 174712874 -2129988681 -1236974612 801356977
REM
CELL 1.54180   50.00000   50.00000   50.00000   90.00000   90.00000   90.00000
LATT -1
SFAC C  
C      1  0.3970640000000  0.3879960000000  0.4181130000000 1.0
C      1  0.6055090000000  0.4183350000000  0.5038020000000 1.0
C      1  0.4856860000000  0.6176780000000  0.4961430000000 1.0
C      1  0.4756580000000  0.4186730000000  0.5710290000000 1.0
C      1  0.4653660000000  0.5007920000000  0.6037750000000 1.0
C      1  0.5961430000000  0.5176830000000  0.4573890000000 1.0
C      1  0.4491600000000  0.4995900000000  0.4851770000000 1.0
C      1  0.5386560000000  0.5885290000000  0.5827310000000 1.0
C      1  0.3978440000000  0.5711160000000  0.5679120000000 1.0
C      1  0.7071990000000  0.5673860000000  0.4790810000000 1.0
C      1  0.5074410000000  0.6364490000000  0.5392910000000 1.0
C      1  0.4278010000000  0.4773240000000  0.5765220000000 1.0
C      1  0.5177410000000  0.4636670000000  0.4339930000000 1.0
C      1  0.6102680000000  0.4131450000000  0.5310200000000 1.0
C      1  0.5907030000000  0.4156130000000  0.4414070000000 1.0
C      1  0.4778270000000  0.5487230000000  0.4950480000000 1.0
C      1  0.5511070000000  0.4176890000000  0.4105370000000 1.0
C      1  0.5028270000000  0.4515330000000  0.5190650000000 1.0
C      1  0.4627740000000  0.4454220000000  0.4930450000000 1.0
C      1  0.5286110000000  0.4795950000000  0.5465660000000 1.0
C      1  0.4343120000000  0.4928160000000  0.5065730000000 1.0
C      1  0.4845210000000  0.6143860000000  0.4672840000000 1.0
C      1  0.5254120000000  0.5386120000000  0.4491030000000 1.0
C      1  0.4000220000000  0.4499330000000  0.5461860000000 1.0
C      1  0.6402740000000  0.5253150000000  0.4777900000000 1.0
C      1  0.4474490000000  0.5111700000000  0.6216210000000 1.0
C      1  0.4675980000000  0.5881620000000  0.4267310000000 1.0
C      1  0.4933810000000  0.5824120000000  0.5309940000000 1.0
C      1  0.4178290000000  0.5892720000000  0.4766890000000 1.0
C      1  0.4514850000000  0.4342100000000  0.4337190000000 1.0
C      1  0.5674720000000  0.4780030000000  0.5040600000000 1.0
C      1  0.4728540000000  0.4881030000000  0.4750190000000 1.0
C      1  0.4510770000000  0.5692580000000  0.4128030000000 1.0
C      1  0.5326030000000  0.5669510000000  0.5635920000000 1.0
C      1  0.5454160000000  0.4236360000000  0.5617570000000 1.0
C      1  0.4252020000000  0.5569820000000  0.4122350000000 1.0
C      1  0.6167350000000  0.5105470000000  0.4759690000000 1.0
C      1  0.4007520000000  0.4495330000000  0.4759830000000 1.0
C      1  0.5356940000000  0.5161620000000  0.3943070000000 1.0
C      1  0.5043220000000  0.4989660000000  0.6257540000000 1.0
C      1  0.4366570000000  0.6019380000000  0.4627500000000 1.0
C      1  0.5156370000000  0.3847010000000  0.5147020000000 1.0
C      1  0.5475200000000  0.3951640000000  0.3951240000000 1.0
C      1  0.4535860000000  0.5247930000000  0.3944910000000 1.0
C      1  0.4822950000000  0.4871760000000  0.5591360000000 1.0
C      1  0.5419430000000  0.3981330000000  0.5131210000000 1.0
C      1  0.5689830000000  0.5260910000000  0.4630970000000 1.0
C      1  0.4478360000000  0.4286210000000  0.5761030000000 1.0
C      1  0.4751910000000  0.4544030000000  0.5174080000000 1.0
C      1  0.4465770000000  0.5236390000000  0.5656430000000 1.0
C      1  0.5328810000000  0.5397780000000  0.4960510000000 1.0
C      1  0.5621170000000  0.4144510000000  0.4384250000000 1.0
C      1  0.5041550000000  0.5263910000000  0.6274610000000 1.0
C      1  0.5156820000000  0.4764890000000  0.5218510000000 1.0
C      1  0.4712550000000  0.4520890000000  0.4422190000000 1.0
C      1  0.5009400000000  0.4994250000000  0.4797600000000 1.0
C      1  0.4122220000000  0.4049280000000  0.4308690000000 1.0
C      1  0.5017770000000  0.5001600000000  0.5106640000000 1.0
C      1  0.4280740000000  0.4230350000000  0.4448080000000 1.0
C      1  0.4434740000000  0.5341800000000  0.5361990000000 1.0
C      1  0.4825750000000  0.5739860000000  0.6091260000000 1.0
C      1  0.4879590000000  0.5131700000000  0.4338060000000 1.0
C      1  0.5789340000000  0.4539660000000  0.4933740000000 1.0
C      1  0.5388550000000  0.4630360000000  0.3776770000000 1.0
C      1  0.6184600000000  0.4331600000000  0.4812930000000 1.0
C      1  0.5481350000000  0.4926330000000  0.4901180000000 1.0
C      1  0.5245670000000  0.5663350000000  0.4512590000000 1.0
C      1  0.5730690000000  0.4205740000000  0.5667010000000 1.0
C      1  0.5118800000000  0.4922080000000  0.5652890000000 1.0
C      1  0.4216580000000  0.4312900000000  0.4714660000000 1.0
C      1  0.4655800000000  0.4730160000000  0.5372610000000 1.0
C      1  0.4404180000000  0.4059150000000  0.5104920000000 1.0
C      1  0.5252340000000  0.4315030000000  0.4665960000000 1.0
C      1  0.4162070000000  0.5433760000000  0.5311110000000 1.0
C      1  0.4192240000000  0.4699810000000  0.5494540000000 1.0
C      1  0.4045020000000  0.5456110000000  0.5053210000000 1.0
C      1  0.4654400000000  0.4989520000000  0.3939600000000 1.0
C      1  0.6119910000000  0.4882930000000  0.4928030000000 1.0
C      1  0.4951390000000  0.4355820000000  0.5849170000000 1.0
C      1  0.4521160000000  0.5484260000000  0.5815860000000 1.0
C      1  0.4304370000000  0.4146190000000  0.5577460000000 1.0
C      1  0.4623340000000  0.6032940000000  0.4513620000000 1.0
C      1  0.4256940000000  0.5303320000000  0.4010120000000 1.0
C      1  0.5439380000000  0.4439720000000  0.3994820000000 1.0
C      1  0.5671510000000  0.4742670000000  0.4264350000000 1.0
C      1  0.5527420000000  0.5471520000000  0.5996040000000 1.0
C      1  0.4685520000000  0.5491790000000  0.3987270000000 1.0
C      1  0.5092330000000  0.6116770000000  0.4533600000000 1.0
C      1  0.5214950000000  0.4585270000000  0.4615240000000 1.0
C      1  0.3998720000000  0.5461540000000  0.5549630000000 1.0
C      1  0.5964200000000  0.4156320000000  0.5541050000000 1.0
C      1  0.5183740000000  0.5205370000000  0.5681770000000 1.0
C      1  0.4071270000000  0.5695170000000  0.4909300000000 1.0
C      1  0.5159110000000  0.5738790000000  0.5423340000000 1.0
C      1  0.6241010000000  0.5117290000000  0.4169280000000 1.0
C      1  0.4485640000000  0.4562790000000  0.5876140000000 1.0
C      1  0.5381770000000  0.4190280000000  0.5344920000000 1.0
C      1  0.5554780000000  0.5179710000000  0.4154180000000 1.0
C      1  0.5539850000000  0.5747100000000  0.6030580000000 1.0
C      1  0.5144700000000  0.5884440000000  0.4381190000000 1.0
C      1  0.3982690000000  0.5221970000000  0.5706690000000 1.0
C      1  0.5172160000000  0.6072690000000  0.5848280000000 1.0
C      1  0.3853900000000  0.4989190000000  0.4856790000000 1.0
C      1  0.5909760000000  0.4928380000000  0.5125310000000 1.0
C      1  0.5045720000000  0.5197480000000  0.4554400000000 1.0
C      1  0.6851300000000  0.5535120000000  0.4787420000000 1.0
C      1  0.5012290000000  0.5313100000000  0.5485410000000 1.0
C      1  0.5426790000000  0.4618510000000  0.4215130000000 1.0
C      1  0.4619700000000  0.4819510000000  0.3728980000000 1.0
C      1  0.6128860000000  0.4218310000000  0.4556560000000 1.0
C      1  0.4044440000000  0.5138690000000  0.3974270000000 1.0
C      1  0.4469300000000  0.4019530000000  0.5374870000000 1.0
C      1  0.4663330000000  0.5349160000000  0.5179510000000 1.0
C      1  0.5767840000000  0.4991830000000  0.4182870000000 1.0
C      1  0.5469690000000  0.4136340000000  0.4641570000000 1.0
C      1  0.5113680000000  0.4272650000000  0.5284120000000 1.0
C      1  0.3888330000000  0.4731040000000  0.4797780000000 1.0
C      1  0.4953880000000  0.5813000000000  0.4184080000000 1.0
C      1  0.4380460000000  0.4794980000000  0.5308760000000 1.0
C      1  0.5254950000000  0.4817910000000  0.4764100000000 1.0
C      1  0.4628260000000  0.5541770000000  0.4729830000000 1.0
C      1  0.3908580000000  0.5236120000000  0.4942170000000 1.0
C      1  0.4889260000000  0.5198560000000  0.5265900000000 1.0
C      1  0.4565370000000  0.5707910000000  0.5977330000000 1.0
C      1  0.5349390000000  0.4907060000000  0.3795400000000 1.0
C      1  0.6003980000000  0.5094490000000  0.4301200000000 1.0
C      1  0.5507450000000  0.5297440000000  0.4407650000000 1.0
C      1  0.4220570000000  0.5072550000000  0.5755450000000 1.0
C      1  0.4046940000000  0.4240680000000  0.5521760000000 1.0
C      1  0.4852970000000  0.4818340000000  0.6127140000000 1.0
C      1  0.5233090000000  0.4312630000000  0.5794310000000 1.0
C      1  0.5127400000000  0.6264210000000  0.5639690000000 1.0
C      1  0.5071970000000  0.5496450000000  0.4951200000000 1.0
C      1  0.4785350000000  0.4572940000000  0.5983940000000 1.0
C      1  0.6076920000000  0.4604170000000  0.4848920000000 1.0
C      1  0.4413780000000  0.4266830000000  0.4916570000000 1.0
C      1  0.4110850000000  0.5871760000000  0.5849290000000 1.0
C      1  0.4700450000000  0.4602560000000  0.4696020000000 1.0
C      1  0.4814480000000  0.4920900000000  0.4164240000000 1.0
C      1  0.4952360000000  0.5514310000000  0.6217330000000 1.0
C      1  0.4988230000000  0.6366720000000  0.5133390000000 1.0
C      1  0.5168990000000  0.5382630000000  0.3930200000000 1.0
C      1  0.5573640000000  0.4076990000000  0.4907750000000 1.0
C      1  0.4793580000000  0.5950570000000  0.5120080000000 1.0
C      1  0.4964160000000  0.5567160000000  0.4011630000000 1.0
C      1  0.4672250000000  0.5050900000000  0.5757570000000 1.0
C      1  0.5529160000000  0.5209790000000  0.4867380000000 1.0
C      1  0.4962480000000  0.4020790000000  0.5282420000000 1.0
C      1  0.5776430000000  0.4256550000000  0.4985430000000 1.0
C      1  0.4966740000000  0.5976840000000  0.6020570000000 1.0
C      1  0.6626920000000  0.5394070000000  0.4783790000000 1.0
C      1  0.4902310000000  0.4666030000000  0.4260300000000 1.0
C      1  0.5368570000000  0.5401440000000  0.5764900000000 1.0
C      1  0.4345430000000  0.5884610000000  0.5982260000000 1.0
C      1  0.4746700000000  0.4025280000000  0.5463110000000 1.0
END
