TITL C-599896-8500-206 49479.3606443114 125000 -1043.10648810021 0 0 170 (C1) n - 1
REM
REM in /home/nfs/bkarasulu/CARBON/AIRSS/Generating-Clusters/TERSOFF/Only-C1/FIRE-HFTN
REM
REM
REM
REM
REM
REM ./C.cell (11c1c37f851c82e70ff6c80c92926a4b)
REM AIRSS Version 0.9.1 bugfix July 2018 build 013d7b7c2542+ Fri, 06 Jul 2018 19:26:36 +0100
REM compiler GCC version 9.2.1 20190827 (Red Hat 9.2.1-1)
REM options -cpp -mtune=generic -march=x86-64 -g -O0 -fpre-include=/usr/include/finclude/math-vector-fortran.h
REM seed -2094554113 1182720643 101581850 -1078737671 911470145 1507235779 729459987 -445407354 1241241083 1740104648 657882168 -1558318013 564267206 -2122834636 1412873806 1528776074 -714478063 -1289144886 2016162618 -2141745919 -1866156921 -51303379 1583960391 603078087 1598901100 1556606685 -39466698 333381449 709789961 -1334193544 591599724 -2120881805 831009407
REM
CELL 1.54180   50.00000   50.00000   50.00000   90.00000   90.00000   90.00000
LATT -1
SFAC C  
C      1  0.4894820000000  0.6302540000000  0.4889920000000 1.0
C      1  0.5437500000000  0.3851020000000  0.5335880000000 1.0
C      1  0.4750520000000  0.5712100000000  0.4434440000000 1.0
C      1  0.4183360000000  0.5517570000000  0.5700180000000 1.0
C      1  0.5749150000000  0.4049800000000  0.4775230000000 1.0
C      1  0.5293890000000  0.3967590000000  0.4632330000000 1.0
C      1  0.4741130000000  0.5613740000000  0.4167990000000 1.0
C      1  0.4803770000000  0.4410540000000  0.4196520000000 1.0
C      1  0.4761270000000  0.5654300000000  0.5978100000000 1.0
C      1  0.5733790000000  0.5278900000000  0.5904070000000 1.0
C      1  0.5919790000000  0.5627800000000  0.4908030000000 1.0
C      1  0.5972730000000  0.5339680000000  0.4888960000000 1.0
C      1  0.5327230000000  0.6047620000000  0.5100230000000 1.0
C      1  0.5410130000000  0.5167320000000  0.3253490000000 1.0
C      1  0.4744780000000  0.5671360000000  0.5101550000000 1.0
C      1  0.5545660000000  0.4397090000000  0.5855510000000 1.0
C      1  0.4173630000000  0.4510180000000  0.4965270000000 1.0
C      1  0.4491460000000  0.5792090000000  0.4535620000000 1.0
C      1  0.4450510000000  0.5974810000000  0.4746530000000 1.0
C      1  0.4288260000000  0.5932880000000  0.4978300000000 1.0
C      1  0.4738240000000  0.4401010000000  0.4675090000000 1.0
C      1  0.5038980000000  0.3982060000000  0.4803900000000 1.0
C      1  0.4361960000000  0.5227990000000  0.5408910000000 1.0
C      1  0.5696030000000  0.4903940000000  0.4518710000000 1.0
C      1  0.4338330000000  0.4154660000000  0.4706980000000 1.0
C      1  0.5419630000000  0.4653390000000  0.3887200000000 1.0
C      1  0.5345600000000  0.5091030000000  0.4763830000000 1.0
C      1  0.5155700000000  0.4201660000000  0.5587470000000 1.0
C      1  0.6107620000000  0.5268670000000  0.5496810000000 1.0
C      1  0.5606970000000  0.5635930000000  0.5257290000000 1.0
C      1  0.4106780000000  0.4593990000000  0.4452550000000 1.0
C      1  0.4521050000000  0.4467360000000  0.4224140000000 1.0
C      1  0.4654640000000  0.4770520000000  0.5391370000000 1.0
C      1  0.4276130000000  0.4243640000000  0.4986670000000 1.0
C      1  0.4879010000000  0.4693600000000  0.5963650000000 1.0
C      1  0.5052140000000  0.5003740000000  0.5485310000000 1.0
C      1  0.4758400000000  0.4460960000000  0.5804690000000 1.0
C      1  0.5873140000000  0.4756360000000  0.5443390000000 1.0
C      1  0.4631600000000  0.5420600000000  0.5013490000000 1.0
C      1  0.5147940000000  0.4144230000000  0.5036920000000 1.0
C      1  0.4694930000000  0.5085630000000  0.4376680000000 1.0
C      1  0.3891430000000  0.5072620000000  0.4548180000000 1.0
C      1  0.5276210000000  0.4842910000000  0.5552430000000 1.0
C      1  0.5740020000000  0.5775440000000  0.4733990000000 1.0
C      1  0.4858930000000  0.6218290000000  0.5159700000000 1.0
C      1  0.4505110000000  0.4945110000000  0.4234960000000 1.0
C      1  0.5902000000000  0.5678500000000  0.5202150000000 1.0
C      1  0.5158830000000  0.4768050000000  0.6016640000000 1.0
C      1  0.5829550000000  0.4267160000000  0.5442450000000 1.0
C      1  0.5388550000000  0.5769970000000  0.5110330000000 1.0
C      1  0.5623990000000  0.4215530000000  0.5640510000000 1.0
C      1  0.5381720000000  0.4641680000000  0.5391540000000 1.0
C      1  0.5319070000000  0.5147410000000  0.3501490000000 1.0
C      1  0.4629000000000  0.5129030000000  0.4649390000000 1.0
C      1  0.3943930000000  0.4845030000000  0.5778510000000 1.0
C      1  0.5294370000000  0.5530540000000  0.5898760000000 1.0
C      1  0.4873090000000  0.5042630000000  0.4810340000000 1.0
C      1  0.5406210000000  0.4296400000000  0.4989030000000 1.0
C      1  0.4622050000000  0.3711890000000  0.4787370000000 1.0
C      1  0.4555800000000  0.3971620000000  0.4687590000000 1.0
C      1  0.3992930000000  0.5274690000000  0.4985620000000 1.0
C      1  0.4952010000000  0.5725880000000  0.4900820000000 1.0
C      1  0.5006660000000  0.5068470000000  0.4325030000000 1.0
C      1  0.4752990000000  0.5463380000000  0.5553620000000 1.0
C      1  0.5234630000000  0.4454430000000  0.4596090000000 1.0
C      1  0.5234470000000  0.5643410000000  0.5631870000000 1.0
C      1  0.4925130000000  0.5635800000000  0.5438620000000 1.0
C      1  0.3928200000000  0.5319160000000  0.4707330000000 1.0
C      1  0.5613600000000  0.5184120000000  0.4405560000000 1.0
C      1  0.4642560000000  0.4619060000000  0.4819540000000 1.0
C      1  0.4459990000000  0.4264970000000  0.5298880000000 1.0
C      1  0.4865690000000  0.4252280000000  0.5629200000000 1.0
C      1  0.5851570000000  0.4649820000000  0.4521250000000 1.0
C      1  0.6107770000000  0.4777200000000  0.5261370000000 1.0
C      1  0.5365650000000  0.4561840000000  0.5980820000000 1.0
C      1  0.4242360000000  0.5139980000000  0.4975180000000 1.0
C      1  0.3967920000000  0.4793660000000  0.4615770000000 1.0
C      1  0.5112510000000  0.6256090000000  0.4729190000000 1.0
C      1  0.5433360000000  0.5311230000000  0.4907180000000 1.0
C      1  0.4854840000000  0.5387870000000  0.6052410000000 1.0
C      1  0.4501540000000  0.5034050000000  0.3712540000000 1.0
C      1  0.6022010000000  0.4617790000000  0.4767580000000 1.0
C      1  0.4046910000000  0.5591250000000  0.4675400000000 1.0
C      1  0.5516950000000  0.5080930000000  0.5888230000000 1.0
C      1  0.3953950000000  0.4662190000000  0.4872540000000 1.0
C      1  0.5211220000000  0.5611300000000  0.3832530000000 1.0
C      1  0.5287500000000  0.4527740000000  0.4859410000000 1.0
C      1  0.5104540000000  0.5060190000000  0.4624630000000 1.0
C      1  0.5764320000000  0.4391070000000  0.4396910000000 1.0
C      1  0.5505050000000  0.4323750000000  0.4271360000000 1.0
C      1  0.4614980000000  0.5834830000000  0.5796670000000 1.0
C      1  0.4340330000000  0.5747630000000  0.5766910000000 1.0
C      1  0.5031760000000  0.6088630000000  0.5564630000000 1.0
C      1  0.4470400000000  0.4532580000000  0.5748130000000 1.0
C      1  0.5174410000000  0.5303080000000  0.4211480000000 1.0
C      1  0.5949800000000  0.5173680000000  0.5731000000000 1.0
C      1  0.5583350000000  0.5518270000000  0.5962890000000 1.0
C      1  0.5824760000000  0.5160170000000  0.5065300000000 1.0
C      1  0.4458500000000  0.5265460000000  0.4837530000000 1.0
C      1  0.5071640000000  0.4836320000000  0.4135510000000 1.0
C      1  0.4387240000000  0.6050780000000  0.5215370000000 1.0
C      1  0.4989510000000  0.5704960000000  0.4607460000000 1.0
C      1  0.5522460000000  0.3865800000000  0.4793600000000 1.0
C      1  0.3768400000000  0.5106570000000  0.4302110000000 1.0
C      1  0.5177480000000  0.5225090000000  0.5360070000000 1.0
C      1  0.5476270000000  0.3776810000000  0.5072530000000 1.0
C      1  0.4901820000000  0.3717130000000  0.4863040000000 1.0
C      1  0.4248130000000  0.5650850000000  0.4480640000000 1.0
C      1  0.4634190000000  0.6123940000000  0.5332560000000 1.0
C      1  0.5685550000000  0.4240040000000  0.4983490000000 1.0
C      1  0.4447040000000  0.4784840000000  0.3806780000000 1.0
C      1  0.5330420000000  0.4210820000000  0.4473970000000 1.0
C      1  0.3888450000000  0.4616810000000  0.5647850000000 1.0
C      1  0.5385550000000  0.5403390000000  0.4389970000000 1.0
C      1  0.6072410000000  0.5530850000000  0.5383090000000 1.0
C      1  0.5335980000000  0.6094840000000  0.4806390000000 1.0
C      1  0.5551140000000  0.4898930000000  0.4773660000000 1.0
C      1  0.5515130000000  0.5188890000000  0.3015840000000 1.0
C      1  0.4445130000000  0.4794600000000  0.5214870000000 1.0
C      1  0.5482740000000  0.5031090000000  0.5614900000000 1.0
C      1  0.5496830000000  0.5685100000000  0.5527020000000 1.0
C      1  0.4095000000000  0.5718770000000  0.4952410000000 1.0
C      1  0.4322150000000  0.4387360000000  0.5534680000000 1.0
C      1  0.5919230000000  0.4883810000000  0.5692840000000 1.0
C      1  0.6050630000000  0.4566640000000  0.5056640000000 1.0
C      1  0.5881450000000  0.4341070000000  0.5165200000000 1.0
C      1  0.5288560000000  0.5661100000000  0.4531210000000 1.0
C      1  0.5170940000000  0.5610710000000  0.5042990000000 1.0
C      1  0.6217680000000  0.5042870000000  0.5330520000000 1.0
C      1  0.4779340000000  0.4989660000000  0.5504930000000 1.0
C      1  0.4748660000000  0.4264020000000  0.5342330000000 1.0
C      1  0.4181310000000  0.4979160000000  0.5857100000000 1.0
C      1  0.5056160000000  0.4609690000000  0.5009160000000 1.0
C      1  0.5119030000000  0.6144150000000  0.5286950000000 1.0
C      1  0.5260890000000  0.5129990000000  0.3772830000000 1.0
C      1  0.4994420000000  0.4367070000000  0.5186770000000 1.0
C      1  0.4415920000000  0.4655710000000  0.4978220000000 1.0
C      1  0.4619880000000  0.5224240000000  0.5525060000000 1.0
C      1  0.5205660000000  0.5357540000000  0.3933160000000 1.0
C      1  0.5256720000000  0.4886710000000  0.3910500000000 1.0
C      1  0.4173220000000  0.5271360000000  0.5861500000000 1.0
C      1  0.5131610000000  0.5323960000000  0.6019470000000 1.0
C      1  0.4660380000000  0.4890370000000  0.6009380000000 1.0
C      1  0.4799710000000  0.4129950000000  0.4677040000000 1.0
C      1  0.4413480000000  0.4801400000000  0.5879530000000 1.0
C      1  0.4174440000000  0.5452010000000  0.5416610000000 1.0
C      1  0.4458230000000  0.4714960000000  0.4080780000000 1.0
C      1  0.4042540000000  0.5513580000000  0.5160720000000 1.0
C      1  0.4317220000000  0.4392270000000  0.4437330000000 1.0
C      1  0.4649360000000  0.5478700000000  0.3954340000000 1.0
C      1  0.5458930000000  0.5216630000000  0.5399460000000 1.0
C      1  0.5085720000000  0.5361170000000  0.5143800000000 1.0
C      1  0.5633630000000  0.4736360000000  0.5273060000000 1.0
C      1  0.5338700000000  0.4451830000000  0.4076910000000 1.0
C      1  0.5056020000000  0.4539690000000  0.4156810000000 1.0
C      1  0.4309480000000  0.5031960000000  0.5220790000000 1.0
C      1  0.4455880000000  0.3498630000000  0.4808590000000 1.0
C      1  0.5211740000000  0.4420100000000  0.5399890000000 1.0
C      1  0.5864040000000  0.4159010000000  0.4540850000000 1.0
C      1  0.5685390000000  0.4897780000000  0.5027410000000 1.0
C      1  0.4858700000000  0.4771920000000  0.4907870000000 1.0
C      1  0.5470560000000  0.5864030000000  0.4657490000000 1.0
C      1  0.4694460000000  0.5158120000000  0.6091900000000 1.0
C      1  0.4739820000000  0.6028040000000  0.5600470000000 1.0
C      1  0.5400150000000  0.4039190000000  0.5554540000000 1.0
C      1  0.4867750000000  0.5247670000000  0.5018820000000 1.0
C      1  0.4041550000000  0.4420970000000  0.5544980000000 1.0
C      1  0.5591790000000  0.5334620000000  0.5163630000000 1.0
C      1  0.5260240000000  0.5054390000000  0.6025310000000 1.0
C      1  0.4573020000000  0.5282940000000  0.3786890000000 1.0
END
