TITL C-599891-72-506 0.145199622101331 125000 -1065.6603199415 0 0 172 (C1) n - 1
REM
REM in /home/nfs/bkarasulu/CARBON/AIRSS/Generating-Clusters/TERSOFF/Only-C1/FIRE-HFTN
REM
REM
REM
REM
REM
REM ./C.cell (11c1c37f851c82e70ff6c80c92926a4b)
REM AIRSS Version 0.9.1 bugfix July 2018 build 013d7b7c2542+ Fri, 06 Jul 2018 19:26:36 +0100
REM compiler GCC version 9.2.1 20190827 (Red Hat 9.2.1-1)
REM options -cpp -mtune=generic -march=x86-64 -g -O0 -fpre-include=/usr/include/finclude/math-vector-fortran.h
REM seed -2014151841 219295789 -1628172852 273441521 -1882862902 1029656175 -1814822128 663628034 -1552682717 1776632728 1492346913 -1971589338 1949896536 34617001 1713283759 2074814068 -414915287 -2073777872 -1718852331 108720338 2000623328 1147528452 -1549004423 -620354318 -1852002282 1507468706 1310141845 355610988 -971353335 1232764674 1757544800 1863792045 291524787
REM
CELL 1.54180   50.00000   50.00000   50.00000   90.00000   90.00000   90.00000
LATT -1
SFAC C  
C      1  0.5088890000000  0.4349500000000  0.4911760000000 1.0
C      1  0.6042280000000  0.5511890000000  0.5181640000000 1.0
C      1  0.4785500000000  0.4201400000000  0.4100870000000 1.0
C      1  0.5172050000000  0.4998530000000  0.3966660000000 1.0
C      1  0.4744170000000  0.4775370000000  0.4174580000000 1.0
C      1  0.5275080000000  0.5506250000000  0.4874750000000 1.0
C      1  0.5511630000000  0.4929560000000  0.5560720000000 1.0
C      1  0.3916860000000  0.3971030000000  0.4816300000000 1.0
C      1  0.5034720000000  0.4416660000000  0.5956410000000 1.0
C      1  0.3875450000000  0.5251160000000  0.5470760000000 1.0
C      1  0.4851680000000  0.4384560000000  0.3874850000000 1.0
C      1  0.5097260000000  0.4695510000000  0.6010690000000 1.0
C      1  0.5042080000000  0.4126230000000  0.4221940000000 1.0
C      1  0.3601670000000  0.3311320000000  0.4876000000000 1.0
C      1  0.3882830000000  0.5346290000000  0.4934390000000 1.0
C      1  0.4668560000000  0.4958530000000  0.6134520000000 1.0
C      1  0.5411300000000  0.5113750000000  0.3936740000000 1.0
C      1  0.6022370000000  0.5114920000000  0.4355000000000 1.0
C      1  0.4284970000000  0.5785000000000  0.5003310000000 1.0
C      1  0.4872480000000  0.3848860000000  0.5353720000000 1.0
C      1  0.5245880000000  0.4542540000000  0.5346180000000 1.0
C      1  0.5354690000000  0.4007930000000  0.5487540000000 1.0
C      1  0.6804940000000  0.4631080000000  0.5102810000000 1.0
C      1  0.4452480000000  0.4560140000000  0.5907670000000 1.0
C      1  0.6210490000000  0.5147180000000  0.5685770000000 1.0
C      1  0.5823720000000  0.5879520000000  0.4926930000000 1.0
C      1  0.4526640000000  0.4168670000000  0.4530940000000 1.0
C      1  0.4356550000000  0.5151340000000  0.5199120000000 1.0
C      1  0.5256260000000  0.5504140000000  0.5187760000000 1.0
C      1  0.4679740000000  0.4548420000000  0.3714760000000 1.0
C      1  0.4521340000000  0.5630730000000  0.4237310000000 1.0
C      1  0.4586210000000  0.4306780000000  0.4283670000000 1.0
C      1  0.5391390000000  0.5667620000000  0.5420080000000 1.0
C      1  0.4097100000000  0.5214810000000  0.4503920000000 1.0
C      1  0.4946720000000  0.4937800000000  0.4613090000000 1.0
C      1  0.3655620000000  0.5160000000000  0.5607700000000 1.0
C      1  0.4481580000000  0.3572040000000  0.5390840000000 1.0
C      1  0.4918860000000  0.4172490000000  0.5056520000000 1.0
C      1  0.5313610000000  0.3915270000000  0.5214980000000 1.0
C      1  0.4295700000000  0.5829670000000  0.5920480000000 1.0
C      1  0.4257860000000  0.4961920000000  0.4067720000000 1.0
C      1  0.5075630000000  0.3991960000000  0.5613050000000 1.0
C      1  0.5964680000000  0.4456270000000  0.4813350000000 1.0
C      1  0.6123190000000  0.4652320000000  0.5390470000000 1.0
C      1  0.5117580000000  0.3882620000000  0.4314000000000 1.0
C      1  0.5064620000000  0.5578900000000  0.4667090000000 1.0
C      1  0.4388280000000  0.4087670000000  0.4773680000000 1.0
C      1  0.4710060000000  0.4285530000000  0.5238020000000 1.0
C      1  0.5980790000000  0.5627820000000  0.4929830000000 1.0
C      1  0.4554580000000  0.4790930000000  0.3702800000000 1.0
C      1  0.5197750000000  0.4984010000000  0.4487500000000 1.0
C      1  0.5897740000000  0.5623050000000  0.5410200000000 1.0
C      1  0.4000990000000  0.4439100000000  0.4693830000000 1.0
C      1  0.4193010000000  0.6084560000000  0.4373700000000 1.0
C      1  0.4293190000000  0.6026930000000  0.5154970000000 1.0
C      1  0.4839600000000  0.4670600000000  0.4639830000000 1.0
C      1  0.4755540000000  0.5698090000000  0.5892530000000 1.0
C      1  0.4145370000000  0.5706220000000  0.4754150000000 1.0
C      1  0.5036020000000  0.4722920000000  0.5398230000000 1.0
C      1  0.6079470000000  0.5289870000000  0.4549730000000 1.0
C      1  0.4046930000000  0.4521890000000  0.4106850000000 1.0
C      1  0.5547140000000  0.4221380000000  0.5532410000000 1.0
C      1  0.5088930000000  0.4525470000000  0.3991290000000 1.0
C      1  0.4404120000000  0.5401230000000  0.4121000000000 1.0
C      1  0.5366380000000  0.5230350000000  0.5254160000000 1.0
C      1  0.5582000000000  0.5069970000000  0.4854000000000 1.0
C      1  0.4301030000000  0.4092260000000  0.5436130000000 1.0
C      1  0.4529000000000  0.4411260000000  0.5696280000000 1.0
C      1  0.5285650000000  0.4462370000000  0.5080180000000 1.0
C      1  0.4307670000000  0.5554830000000  0.5996770000000 1.0
C      1  0.5542760000000  0.5004730000000  0.6048640000000 1.0
C      1  0.4475220000000  0.5601800000000  0.5105980000000 1.0
C      1  0.4112920000000  0.5907640000000  0.4557860000000 1.0
C      1  0.4374420000000  0.5190410000000  0.5482010000000 1.0
C      1  0.5855420000000  0.5074920000000  0.4148460000000 1.0
C      1  0.5360280000000  0.5482990000000  0.5886770000000 1.0
C      1  0.4261700000000  0.4685930000000  0.4146000000000 1.0
C      1  0.4226930000000  0.4681600000000  0.5062820000000 1.0
C      1  0.5821610000000  0.4977980000000  0.5973000000000 1.0
C      1  0.4966990000000  0.5567710000000  0.5238410000000 1.0
C      1  0.6019820000000  0.5600510000000  0.5662190000000 1.0
C      1  0.3845450000000  0.5321880000000  0.5198560000000 1.0
C      1  0.5869870000000  0.6598990000000  0.5434210000000 1.0
C      1  0.5782920000000  0.5944930000000  0.4651340000000 1.0
C      1  0.4888990000000  0.5631880000000  0.3963750000000 1.0
C      1  0.4543840000000  0.5281570000000  0.3887810000000 1.0
C      1  0.4141010000000  0.5371720000000  0.5867980000000 1.0
C      1  0.4471410000000  0.4756910000000  0.6094160000000 1.0
C      1  0.4563930000000  0.4672770000000  0.4710240000000 1.0
C      1  0.4443840000000  0.6111640000000  0.5365690000000 1.0
C      1  0.4041150000000  0.5429730000000  0.4709690000000 1.0
C      1  0.4213710000000  0.5213210000000  0.4232450000000 1.0
C      1  0.5817410000000  0.4650540000000  0.4707880000000 1.0
C      1  0.3973540000000  0.3699940000000  0.4870780000000 1.0
C      1  0.4398210000000  0.4864760000000  0.4596450000000 1.0
C      1  0.5724290000000  0.6421090000000  0.5311440000000 1.0
C      1  0.4545010000000  0.5910110000000  0.5813510000000 1.0
C      1  0.6003690000000  0.5537680000000  0.4654160000000 1.0
C      1  0.6178440000000  0.5413130000000  0.5772740000000 1.0
C      1  0.4457340000000  0.3856200000000  0.4979630000000 1.0
C      1  0.5058760000000  0.4966080000000  0.5538570000000 1.0
C      1  0.4857750000000  0.5023470000000  0.5716760000000 1.0
C      1  0.4839100000000  0.4747370000000  0.5208620000000 1.0
C      1  0.4593100000000  0.5487990000000  0.6038790000000 1.0
C      1  0.5602020000000  0.4827090000000  0.4690980000000 1.0
C      1  0.4609490000000  0.3770420000000  0.5244660000000 1.0
C      1  0.5040670000000  0.3927610000000  0.5136310000000 1.0
C      1  0.5596250000000  0.5082130000000  0.5136840000000 1.0
C      1  0.5654370000000  0.5765370000000  0.5358830000000 1.0
C      1  0.5295750000000  0.5095960000000  0.5493990000000 1.0
C      1  0.5932090000000  0.4825030000000  0.5504890000000 1.0
C      1  0.4125130000000  0.4936900000000  0.4595570000000 1.0
C      1  0.6353670000000  0.4821170000000  0.5335750000000 1.0
C      1  0.5017300000000  0.4181250000000  0.5819450000000 1.0
C      1  0.6045340000000  0.4337890000000  0.5038450000000 1.0
C      1  0.3781640000000  0.3499800000000  0.4873120000000 1.0
C      1  0.6229460000000  0.5302380000000  0.5227040000000 1.0
C      1  0.5654540000000  0.5226010000000  0.4019180000000 1.0
C      1  0.5324430000000  0.6280700000000  0.5084920000000 1.0
C      1  0.5308590000000  0.5244990000000  0.4486210000000 1.0
C      1  0.5784540000000  0.5682990000000  0.4218530000000 1.0
C      1  0.7015790000000  0.4533660000000  0.4984440000000 1.0
C      1  0.5095930000000  0.5580720000000  0.4151810000000 1.0
C      1  0.4247540000000  0.3654790000000  0.4923250000000 1.0
C      1  0.5824550000000  0.4243690000000  0.5460600000000 1.0
C      1  0.4783290000000  0.5413060000000  0.3811640000000 1.0
C      1  0.4909570000000  0.6003080000000  0.5567700000000 1.0
C      1  0.4522130000000  0.4587040000000  0.4219700000000 1.0
C      1  0.4127320000000  0.5265690000000  0.5608130000000 1.0
C      1  0.4192240000000  0.4937450000000  0.5127580000000 1.0
C      1  0.4613220000000  0.5131320000000  0.5621310000000 1.0
C      1  0.5689490000000  0.5505050000000  0.4042790000000 1.0
C      1  0.5040490000000  0.4469680000000  0.4662730000000 1.0
C      1  0.4365690000000  0.6160310000000  0.4182500000000 1.0
C      1  0.5374380000000  0.4772700000000  0.5977430000000 1.0
C      1  0.4996650000000  0.5773110000000  0.5730090000000 1.0
C      1  0.4635570000000  0.5239650000000  0.6170710000000 1.0
C      1  0.4468730000000  0.4586150000000  0.4960270000000 1.0
C      1  0.4860390000000  0.4980290000000  0.5067460000000 1.0
C      1  0.4476410000000  0.5334510000000  0.5017820000000 1.0
C      1  0.4895080000000  0.4900520000000  0.5973330000000 1.0
C      1  0.4602480000000  0.5656930000000  0.4502290000000 1.0
C      1  0.5433520000000  0.5266760000000  0.6028770000000 1.0
C      1  0.4664520000000  0.4546820000000  0.5148210000000 1.0
C      1  0.5002180000000  0.4792690000000  0.4048320000000 1.0
C      1  0.5681690000000  0.5964500000000  0.5154920000000 1.0
C      1  0.4779410000000  0.5546140000000  0.4685590000000 1.0
C      1  0.4720720000000  0.5668000000000  0.5223580000000 1.0
C      1  0.4678650000000  0.5314760000000  0.4815260000000 1.0
C      1  0.5166260000000  0.5482200000000  0.4404680000000 1.0
C      1  0.4847260000000  0.5097640000000  0.4820360000000 1.0
C      1  0.5254430000000  0.5651800000000  0.5683310000000 1.0
C      1  0.4531520000000  0.4240570000000  0.5466720000000 1.0
C      1  0.5382430000000  0.4763390000000  0.4513350000000 1.0
C      1  0.4573990000000  0.6059800000000  0.4042620000000 1.0
C      1  0.5201220000000  0.4374680000000  0.4217750000000 1.0
C      1  0.5871230000000  0.5733860000000  0.4477880000000 1.0
C      1  0.6000150000000  0.4962730000000  0.5751830000000 1.0
C      1  0.4674700000000  0.5799220000000  0.4058100000000 1.0
C      1  0.5443330000000  0.5296210000000  0.4740110000000 1.0
C      1  0.5419750000000  0.4473840000000  0.5558620000000 1.0
C      1  0.6023630000000  0.4392840000000  0.5313880000000 1.0
C      1  0.6589390000000  0.4728750000000  0.5221880000000 1.0
C      1  0.5573590000000  0.6223950000000  0.5182660000000 1.0
C      1  0.4444920000000  0.5015060000000  0.3842140000000 1.0
C      1  0.5715650000000  0.4932940000000  0.5359400000000 1.0
C      1  0.6311270000000  0.5101340000000  0.5413030000000 1.0
C      1  0.3962650000000  0.4704680000000  0.4639440000000 1.0
C      1  0.5473190000000  0.4696950000000  0.5718650000000 1.0
C      1  0.4623630000000  0.6055810000000  0.5576950000000 1.0
C      1  0.4102770000000  0.4181570000000  0.4771220000000 1.0
C      1  0.5253170000000  0.4506800000000  0.4467710000000 1.0
END
