TITL C-599890-3321-600 -644313.535591919 125000 -985.93450566756 0 0 162 (C1) n - 1
REM
REM in /home/nfs/bkarasulu/CARBON/AIRSS/Generating-Clusters/TERSOFF/Only-C1/FIRE-HFTN
REM
REM
REM
REM
REM
REM ./C.cell (11c1c37f851c82e70ff6c80c92926a4b)
REM AIRSS Version 0.9.1 bugfix July 2018 build 013d7b7c2542+ Fri, 06 Jul 2018 19:26:36 +0100
REM compiler GCC version 9.2.1 20190827 (Red Hat 9.2.1-1)
REM options -cpp -mtune=generic -march=x86-64 -g -O0 -fpre-include=/usr/include/finclude/math-vector-fortran.h
REM seed 1855311509 -1494068114 2117634850 -1307795079 -466094154 -267235839 1715998804 -1178176596 908873348 -916475730 704000512 -2049959474 1792619751 133606582 -1366774514 684434628 1192383496 -874588600 510422191 -2065519957 1822654623 -932559801 1152572715 -275997181 -696715948 1401785050 862532079 322045991 -1378311005 571444122 377950330 1674269151 -232629668
REM
CELL 1.54180   50.00000   50.00000   50.00000   90.00000   90.00000   90.00000
LATT -1
SFAC C  
C      1  0.4332440000000  0.5576460000000  0.5336970000000 1.0
C      1  0.5832410000000  0.4516480000000  0.5112860000000 1.0
C      1  0.5147580000000  0.3696600000000  0.4800910000000 1.0
C      1  0.5490500000000  0.5720600000000  0.3659200000000 1.0
C      1  0.4845910000000  0.5297850000000  0.3994240000000 1.0
C      1  0.4777490000000  0.4677580000000  0.4705110000000 1.0
C      1  0.6028270000000  0.5149270000000  0.4707350000000 1.0
C      1  0.3887990000000  0.5038580000000  0.6002610000000 1.0
C      1  0.5026040000000  0.6075620000000  0.5561980000000 1.0
C      1  0.4634510000000  0.4622130000000  0.4478070000000 1.0
C      1  0.5294740000000  0.5866010000000  0.4081380000000 1.0
C      1  0.5433260000000  0.4031740000000  0.4146300000000 1.0
C      1  0.4303440000000  0.4266040000000  0.4888580000000 1.0
C      1  0.4759370000000  0.5004270000000  0.6217910000000 1.0
C      1  0.5206170000000  0.4991930000000  0.4889620000000 1.0
C      1  0.5479110000000  0.5640930000000  0.5081300000000 1.0
C      1  0.5275150000000  0.3691190000000  0.5037140000000 1.0
C      1  0.4719980000000  0.4196930000000  0.5258640000000 1.0
C      1  0.5744590000000  0.5683900000000  0.4982690000000 1.0
C      1  0.5474780000000  0.5065380000000  0.4712300000000 1.0
C      1  0.4821100000000  0.3951540000000  0.4445450000000 1.0
C      1  0.3521320000000  0.5103510000000  0.5132310000000 1.0
C      1  0.4852790000000  0.5664340000000  0.5518610000000 1.0
C      1  0.4875590000000  0.5447570000000  0.5708740000000 1.0
C      1  0.5874100000000  0.4307120000000  0.5524450000000 1.0
C      1  0.6136110000000  0.4669450000000  0.4711050000000 1.0
C      1  0.4059480000000  0.4573240000000  0.5454640000000 1.0
C      1  0.5907760000000  0.5427850000000  0.5415640000000 1.0
C      1  0.4737920000000  0.5553000000000  0.4069430000000 1.0
C      1  0.4481030000000  0.4856430000000  0.5420050000000 1.0
C      1  0.4819100000000  0.5158280000000  0.5630610000000 1.0
C      1  0.5842520000000  0.4913350000000  0.5652430000000 1.0
C      1  0.4498020000000  0.4182340000000  0.5081430000000 1.0
C      1  0.5828500000000  0.4680610000000  0.3899890000000 1.0
C      1  0.5001770000000  0.4155190000000  0.5194100000000 1.0
C      1  0.6258450000000  0.4392640000000  0.5134920000000 1.0
C      1  0.5947720000000  0.4873810000000  0.4641480000000 1.0
C      1  0.6015510000000  0.4379620000000  0.5286240000000 1.0
C      1  0.5083520000000  0.4629280000000  0.3844990000000 1.0
C      1  0.5152220000000  0.5143240000000  0.4322520000000 1.0
C      1  0.4642690000000  0.4766400000000  0.4027680000000 1.0
C      1  0.6272720000000  0.4518460000000  0.4890970000000 1.0
C      1  0.4965990000000  0.5492740000000  0.5969970000000 1.0
C      1  0.4672370000000  0.5107070000000  0.4465960000000 1.0
C      1  0.4360890000000  0.5760580000000  0.5106840000000 1.0
C      1  0.3693630000000  0.4616910000000  0.5160520000000 1.0
C      1  0.5149060000000  0.4278710000000  0.4976170000000 1.0
C      1  0.6038750000000  0.5378450000000  0.4537410000000 1.0
C      1  0.4979020000000  0.5992750000000  0.4773450000000 1.0
C      1  0.5677550000000  0.5569190000000  0.5522930000000 1.0
C      1  0.4417590000000  0.5500300000000  0.4706090000000 1.0
C      1  0.5737110000000  0.5769200000000  0.4705080000000 1.0
C      1  0.3678140000000  0.5506840000000  0.4846470000000 1.0
C      1  0.5215720000000  0.5139270000000  0.6130860000000 1.0
C      1  0.5170570000000  0.4406090000000  0.6034580000000 1.0
C      1  0.5625320000000  0.4408110000000  0.5639820000000 1.0
C      1  0.4844770000000  0.4219920000000  0.5725630000000 1.0
C      1  0.4494250000000  0.5961960000000  0.5577400000000 1.0
C      1  0.4938540000000  0.4927140000000  0.5776650000000 1.0
C      1  0.5161950000000  0.5119870000000  0.5213100000000 1.0
C      1  0.5410100000000  0.5088750000000  0.5921170000000 1.0
C      1  0.5068210000000  0.4662290000000  0.5366540000000 1.0
C      1  0.5112650000000  0.5393350000000  0.6169430000000 1.0
C      1  0.5118800000000  0.4253850000000  0.5805320000000 1.0
C      1  0.4524180000000  0.5062210000000  0.5627240000000 1.0
C      1  0.4361490000000  0.5701750000000  0.5609070000000 1.0
C      1  0.4899700000000  0.5144460000000  0.5324220000000 1.0
C      1  0.5121280000000  0.5269410000000  0.4065250000000 1.0
C      1  0.5121590000000  0.5860560000000  0.4302560000000 1.0
C      1  0.5601290000000  0.4198320000000  0.4295840000000 1.0
C      1  0.4461250000000  0.5641840000000  0.4065620000000 1.0
C      1  0.5353250000000  0.5785910000000  0.5831810000000 1.0
C      1  0.4880310000000  0.4668840000000  0.5159470000000 1.0
C      1  0.5376970000000  0.4407360000000  0.5087650000000 1.0
C      1  0.5049840000000  0.6102980000000  0.5032610000000 1.0
C      1  0.5577010000000  0.4480890000000  0.4262490000000 1.0
C      1  0.4443760000000  0.5319290000000  0.5264530000000 1.0
C      1  0.4835450000000  0.4560610000000  0.3955880000000 1.0
C      1  0.4321320000000  0.5139150000000  0.5805680000000 1.0
C      1  0.3546990000000  0.4839910000000  0.5157380000000 1.0
C      1  0.5262150000000  0.5608630000000  0.4914690000000 1.0
C      1  0.5059320000000  0.5482240000000  0.4803220000000 1.0
C      1  0.5935490000000  0.5496590000000  0.5116720000000 1.0
C      1  0.5521050000000  0.4814450000000  0.5274510000000 1.0
C      1  0.4708950000000  0.4631150000000  0.4964680000000 1.0
C      1  0.4812200000000  0.4298070000000  0.4067810000000 1.0
C      1  0.5222890000000  0.4677430000000  0.6057970000000 1.0
C      1  0.4863210000000  0.5752110000000  0.4260250000000 1.0
C      1  0.5508010000000  0.5552210000000  0.5756650000000 1.0
C      1  0.4918380000000  0.4070810000000  0.4201180000000 1.0
C      1  0.5132910000000  0.4338890000000  0.4701620000000 1.0
C      1  0.5779260000000  0.4784490000000  0.5169670000000 1.0
C      1  0.4841770000000  0.5592000000000  0.5251140000000 1.0
C      1  0.3888720000000  0.5421960000000  0.4116060000000 1.0
C      1  0.3770690000000  0.5565500000000  0.4604310000000 1.0
C      1  0.5491410000000  0.5907850000000  0.4624280000000 1.0
C      1  0.4487150000000  0.5746470000000  0.4848030000000 1.0
C      1  0.4696290000000  0.5903020000000  0.4703630000000 1.0
C      1  0.5172550000000  0.3985660000000  0.4113150000000 1.0
C      1  0.5703190000000  0.4169090000000  0.4796490000000 1.0
C      1  0.4104630000000  0.4471770000000  0.4952040000000 1.0
C      1  0.4836330000000  0.5345100000000  0.4807050000000 1.0
C      1  0.5491230000000  0.4629520000000  0.4488820000000 1.0
C      1  0.4729150000000  0.5342140000000  0.5214320000000 1.0
C      1  0.3958670000000  0.4522180000000  0.5196220000000 1.0
C      1  0.4087810000000  0.4974810000000  0.5825650000000 1.0
C      1  0.5472070000000  0.5504890000000  0.5319470000000 1.0
C      1  0.4992830000000  0.3788300000000  0.4602310000000 1.0
C      1  0.4889850000000  0.5924540000000  0.6005540000000 1.0
C      1  0.5219440000000  0.4054710000000  0.5378500000000 1.0
C      1  0.5125510000000  0.5967950000000  0.5822910000000 1.0
C      1  0.5223030000000  0.4589140000000  0.4589160000000 1.0
C      1  0.5396980000000  0.5273950000000  0.5707540000000 1.0
C      1  0.5203000000000  0.5939150000000  0.4570880000000 1.0
C      1  0.5340450000000  0.5260420000000  0.5405300000000 1.0
C      1  0.5326330000000  0.4218320000000  0.5604860000000 1.0
C      1  0.3581560000000  0.5342960000000  0.5032870000000 1.0
C      1  0.5109650000000  0.6143050000000  0.5296710000000 1.0
C      1  0.5653440000000  0.4831240000000  0.4615210000000 1.0
C      1  0.5549740000000  0.5333600000000  0.4235720000000 1.0
C      1  0.4442850000000  0.5611590000000  0.5891360000000 1.0
C      1  0.5451450000000  0.4801600000000  0.5915970000000 1.0
C      1  0.4772410000000  0.5939070000000  0.5550000000000 1.0
C      1  0.4478340000000  0.4677510000000  0.4248530000000 1.0
C      1  0.4637900000000  0.4615800000000  0.5525270000000 1.0
C      1  0.4220980000000  0.4295670000000  0.4385550000000 1.0
C      1  0.5915600000000  0.5621810000000  0.4538130000000 1.0
C      1  0.4053650000000  0.4719540000000  0.4481870000000 1.0
C      1  0.4413140000000  0.5832160000000  0.4261660000000 1.0
C      1  0.5391420000000  0.5667230000000  0.3906870000000 1.0
C      1  0.5324940000000  0.3811680000000  0.5274140000000 1.0
C      1  0.4217090000000  0.4571220000000  0.4303840000000 1.0
C      1  0.4569890000000  0.5240210000000  0.4711350000000 1.0
C      1  0.5037640000000  0.4823790000000  0.4667670000000 1.0
C      1  0.4395460000000  0.5032840000000  0.5189530000000 1.0
C      1  0.4415330000000  0.5335750000000  0.5992170000000 1.0
C      1  0.5931050000000  0.5126380000000  0.5464000000000 1.0
C      1  0.4432890000000  0.5042140000000  0.4902480000000 1.0
C      1  0.4697260000000  0.5046570000000  0.3963000000000 1.0
C      1  0.5012810000000  0.4912720000000  0.6076210000000 1.0
C      1  0.4640440000000  0.5797750000000  0.6019910000000 1.0
C      1  0.5713020000000  0.4109360000000  0.4537010000000 1.0
C      1  0.5636640000000  0.4355130000000  0.4992930000000 1.0
C      1  0.5941020000000  0.5013910000000  0.5193510000000 1.0
C      1  0.5624770000000  0.5223320000000  0.4903380000000 1.0
C      1  0.4574920000000  0.5206410000000  0.6195440000000 1.0
C      1  0.4675490000000  0.4323280000000  0.5516220000000 1.0
C      1  0.5918870000000  0.5220870000000  0.4978670000000 1.0
C      1  0.4065770000000  0.4740270000000  0.5666970000000 1.0
C      1  0.4567350000000  0.4012040000000  0.4549900000000 1.0
C      1  0.5651360000000  0.4696400000000  0.5740500000000 1.0
C      1  0.4947040000000  0.5018620000000  0.4457340000000 1.0
C      1  0.5374300000000  0.5407440000000  0.4014640000000 1.0
C      1  0.5326010000000  0.4618290000000  0.5273560000000 1.0
C      1  0.4650510000000  0.5883220000000  0.4418690000000 1.0
C      1  0.4035030000000  0.4653350000000  0.4742750000000 1.0
C      1  0.5348020000000  0.4642950000000  0.3869120000000 1.0
C      1  0.5408200000000  0.5195810000000  0.4445590000000 1.0
C      1  0.4916140000000  0.4703640000000  0.5605170000000 1.0
C      1  0.4345600000000  0.4174740000000  0.4612580000000 1.0
C      1  0.3840490000000  0.5524520000000  0.4351290000000 1.0
C      1  0.5589340000000  0.4603470000000  0.4006630000000 1.0
END
