TITL C-599895-9959-391 1802.37897202605 125000 -453.373063219672 0 0 75 (C1) n - 1
REM
REM in /home/nfs/bkarasulu/CARBON/AIRSS/Generating-Clusters/TERSOFF/Only-C1/FIRE-HFTN
REM
REM
REM
REM
REM
REM ./C.cell (11c1c37f851c82e70ff6c80c92926a4b)
REM AIRSS Version 0.9.1 bugfix July 2018 build 013d7b7c2542+ Fri, 06 Jul 2018 19:26:36 +0100
REM compiler GCC version 9.2.1 20190827 (Red Hat 9.2.1-1)
REM options -cpp -mtune=generic -march=x86-64 -g -O0 -fpre-include=/usr/include/finclude/math-vector-fortran.h
REM seed -20584499 -95958265 -1483197792 -1463398735 -70962574 1261119455 -1876442571 -1460838063 -1693745103 1528799060 -1899085464 -188090717 2064881450 -1462923181 -1754267190 1108663257 -881076204 1840132401 -1706057231 -1956526099 -909841582 858890202 -1086908411 -1071431753 -1742294074 -705617751 1973689498 -1929691892 1620183761 1813889398 159293174 2057422566 1444576968
REM
CELL 1.54180   50.00000   50.00000   50.00000   90.00000   90.00000   90.00000
LATT -1
SFAC C  
C      1  0.5147400000000  0.5111680000000  0.5933360000000 1.0
C      1  0.4426900000000  0.5224110000000  0.4732060000000 1.0
C      1  0.5134980000000  0.4363910000000  0.5179480000000 1.0
C      1  0.5249770000000  0.5277660000000  0.5147240000000 1.0
C      1  0.5417580000000  0.5427040000000  0.5660000000000 1.0
C      1  0.4478850000000  0.4896500000000  0.4369300000000 1.0
C      1  0.5096090000000  0.5705740000000  0.4711630000000 1.0
C      1  0.5373610000000  0.4453810000000  0.5328920000000 1.0
C      1  0.4722890000000  0.4467120000000  0.4333540000000 1.0
C      1  0.4980430000000  0.4277110000000  0.4705170000000 1.0
C      1  0.5176030000000  0.5173600000000  0.4892820000000 1.0
C      1  0.5029870000000  0.4789430000000  0.5167990000000 1.0
C      1  0.4985690000000  0.4395630000000  0.4437240000000 1.0
C      1  0.5086020000000  0.4847350000000  0.4546230000000 1.0
C      1  0.4859550000000  0.4864230000000  0.4716130000000 1.0
C      1  0.5135100000000  0.5859320000000  0.4947910000000 1.0
C      1  0.4748660000000  0.4814560000000  0.5534710000000 1.0
C      1  0.4558350000000  0.4787680000000  0.5039260000000 1.0
C      1  0.4901680000000  0.5108400000000  0.4883030000000 1.0
C      1  0.5276910000000  0.5030740000000  0.4655640000000 1.0
C      1  0.4952000000000  0.5498430000000  0.5776390000000 1.0
C      1  0.5602080000000  0.5397060000000  0.5445670000000 1.0
C      1  0.5652450000000  0.4815410000000  0.5007620000000 1.0
C      1  0.5201460000000  0.4347430000000  0.4882820000000 1.0
C      1  0.4104810000000  0.5060780000000  0.5369400000000 1.0
C      1  0.5065620000000  0.5398020000000  0.5329130000000 1.0
C      1  0.5775240000000  0.5584590000000  0.5318560000000 1.0
C      1  0.4462250000000  0.4380510000000  0.5297320000000 1.0
C      1  0.5402360000000  0.4379040000000  0.5598740000000 1.0
C      1  0.4764240000000  0.4791800000000  0.5247690000000 1.0
C      1  0.4477540000000  0.4611410000000  0.4404070000000 1.0
C      1  0.5191820000000  0.4592280000000  0.4477670000000 1.0
C      1  0.4778770000000  0.5093770000000  0.5591990000000 1.0
C      1  0.5551810000000  0.5414840000000  0.4622390000000 1.0
C      1  0.5154070000000  0.5524250000000  0.5573280000000 1.0
C      1  0.4713420000000  0.5196910000000  0.5081910000000 1.0
C      1  0.5707570000000  0.5367950000000  0.4876890000000 1.0
C      1  0.4279100000000  0.4503220000000  0.4588300000000 1.0
C      1  0.5264340000000  0.5514980000000  0.4565320000000 1.0
C      1  0.4922720000000  0.5925000000000  0.5108650000000 1.0
C      1  0.4204160000000  0.4416370000000  0.4839790000000 1.0
C      1  0.4695200000000  0.4649830000000  0.4824110000000 1.0
C      1  0.5809780000000  0.5217020000000  0.4227210000000 1.0
C      1  0.4900220000000  0.5214830000000  0.5823810000000 1.0
C      1  0.5651690000000  0.5194240000000  0.4451990000000 1.0
C      1  0.5062640000000  0.5368840000000  0.4395410000000 1.0
C      1  0.4103310000000  0.5299300000000  0.5243650000000 1.0
C      1  0.4802330000000  0.5275570000000  0.4385590000000 1.0
C      1  0.4171460000000  0.4808400000000  0.5436070000000 1.0
C      1  0.5382600000000  0.4518560000000  0.4702880000000 1.0
C      1  0.4810970000000  0.5259850000000  0.5342450000000 1.0
C      1  0.4355130000000  0.4279300000000  0.5050290000000 1.0
C      1  0.5809790000000  0.5578220000000  0.5045720000000 1.0
C      1  0.5672170000000  0.5109680000000  0.5037900000000 1.0
C      1  0.4662830000000  0.5847280000000  0.5067430000000 1.0
C      1  0.5589180000000  0.4726520000000  0.4740320000000 1.0
C      1  0.4827200000000  0.4545020000000  0.5607780000000 1.0
C      1  0.4808580000000  0.5684750000000  0.4655090000000 1.0
C      1  0.4818550000000  0.4373900000000  0.5360560000000 1.0
C      1  0.4477020000000  0.5057140000000  0.4975920000000 1.0
C      1  0.5951830000000  0.5239320000000  0.4004700000000 1.0
C      1  0.4553470000000  0.5151390000000  0.4478240000000 1.0
C      1  0.4299080000000  0.4570560000000  0.5431440000000 1.0
C      1  0.5543110000000  0.4961480000000  0.4573680000000 1.0
C      1  0.4567210000000  0.4163320000000  0.4906000000000 1.0
C      1  0.5504120000000  0.5210860000000  0.5249880000000 1.0
C      1  0.4376070000000  0.5492080000000  0.4842580000000 1.0
C      1  0.4986150000000  0.4466850000000  0.5824380000000 1.0
C      1  0.5243960000000  0.4389720000000  0.5815490000000 1.0
C      1  0.4588430000000  0.5687840000000  0.4840200000000 1.0
C      1  0.5388150000000  0.5229300000000  0.5867500000000 1.0
C      1  0.5560580000000  0.4638640000000  0.5213320000000 1.0
C      1  0.4737530000000  0.4361750000000  0.4811630000000 1.0
C      1  0.6088500000000  0.5261360000000  0.3783800000000 1.0
C      1  0.4186950000000  0.5477670000000  0.5057720000000 1.0
END
