TITL C-599891-72-170 0.144152828236815 125000 -820.953677937675 0 0 136 (C1) n - 1
REM
REM in /home/nfs/bkarasulu/CARBON/AIRSS/Generating-Clusters/TERSOFF/Only-C1/FIRE-HFTN
REM
REM
REM
REM
REM
REM ./C.cell (11c1c37f851c82e70ff6c80c92926a4b)
REM AIRSS Version 0.9.1 bugfix July 2018 build 013d7b7c2542+ Fri, 06 Jul 2018 19:26:36 +0100
REM compiler GCC version 9.2.1 20190827 (Red Hat 9.2.1-1)
REM options -cpp -mtune=generic -march=x86-64 -g -O0 -fpre-include=/usr/include/finclude/math-vector-fortran.h
REM seed -1243938946 -775098757 961742772 -1631189761 -1340824287 1727934118 -2002132303 -867849838 -1974057462 -138001289 1734960226 255803479 1527507958 -11360240 -1055882866 1990967988 312496781 1426312149 -1435977635 -1410230423 986117975 -1363444323 1447524242 -136308663 -2035053306 -1595758548 3721969 945420725 1790885815 341768242 -1812810865 146418698 -1949713280
REM
CELL 1.54180   50.00000   50.00000   50.00000   90.00000   90.00000   90.00000
LATT -1
SFAC C  
C      1  0.4709530000000  0.5516780000000  0.4619120000000 1.0
C      1  0.4577050000000  0.5581770000000  0.6288360000000 1.0
C      1  0.4788760000000  0.5007450000000  0.5450030000000 1.0
C      1  0.4687650000000  0.6022450000000  0.3923660000000 1.0
C      1  0.6668070000000  0.5847570000000  0.4944720000000 1.0
C      1  0.4894780000000  0.4803830000000  0.6015210000000 1.0
C      1  0.5456070000000  0.4401100000000  0.6036010000000 1.0
C      1  0.5178050000000  0.4390210000000  0.6024660000000 1.0
C      1  0.5057890000000  0.4627120000000  0.4767770000000 1.0
C      1  0.3283800000000  0.5225470000000  0.4554060000000 1.0
C      1  0.4954710000000  0.6290860000000  0.4227410000000 1.0
C      1  0.4675620000000  0.4282520000000  0.5533900000000 1.0
C      1  0.4738740000000  0.5286700000000  0.4460710000000 1.0
C      1  0.4502520000000  0.4151040000000  0.4774560000000 1.0
C      1  0.6070320000000  0.5392990000000  0.4844120000000 1.0
C      1  0.5234230000000  0.4956630000000  0.5031900000000 1.0
C      1  0.4928690000000  0.4455390000000  0.4951660000000 1.0
C      1  0.5151340000000  0.4480640000000  0.4138090000000 1.0
C      1  0.5942390000000  0.5308410000000  0.4368170000000 1.0
C      1  0.5249350000000  0.6186000000000  0.4870820000000 1.0
C      1  0.4127940000000  0.4214580000000  0.5120330000000 1.0
C      1  0.5150150000000  0.4110680000000  0.4568080000000 1.0
C      1  0.5946250000000  0.4574830000000  0.5950290000000 1.0
C      1  0.3998690000000  0.4297450000000  0.5607100000000 1.0
C      1  0.3522850000000  0.5132830000000  0.4620840000000 1.0
C      1  0.5711220000000  0.4466580000000  0.6007600000000 1.0
C      1  0.5402330000000  0.4467080000000  0.4296450000000 1.0
C      1  0.3863690000000  0.4660690000000  0.4988830000000 1.0
C      1  0.4303170000000  0.5358480000000  0.5156130000000 1.0
C      1  0.5022290000000  0.5172510000000  0.3893090000000 1.0
C      1  0.4791720000000  0.4691200000000  0.4375600000000 1.0
C      1  0.4706660000000  0.4481200000000  0.5103740000000 1.0
C      1  0.3894710000000  0.5602530000000  0.5086160000000 1.0
C      1  0.4595740000000  0.4266200000000  0.5252710000000 1.0
C      1  0.5705840000000  0.4456570000000  0.5074350000000 1.0
C      1  0.4791080000000  0.5782850000000  0.4567590000000 1.0
C      1  0.4650350000000  0.4655870000000  0.5906290000000 1.0
C      1  0.5002300000000  0.5067590000000  0.5964770000000 1.0
C      1  0.4563630000000  0.4522830000000  0.4432840000000 1.0
C      1  0.5006840000000  0.5193980000000  0.5485310000000 1.0
C      1  0.5909970000000  0.4863700000000  0.5221060000000 1.0
C      1  0.4019180000000  0.5363680000000  0.5139950000000 1.0
C      1  0.3979680000000  0.4418680000000  0.4990250000000 1.0
C      1  0.3856790000000  0.5128810000000  0.5175910000000 1.0
C      1  0.4717650000000  0.5457070000000  0.6107850000000 1.0
C      1  0.5440350000000  0.4528100000000  0.5021890000000 1.0
C      1  0.4639280000000  0.4868770000000  0.4829300000000 1.0
C      1  0.4336540000000  0.4766780000000  0.5207100000000 1.0
C      1  0.3716160000000  0.5098760000000  0.5409720000000 1.0
C      1  0.4463420000000  0.5295120000000  0.4930780000000 1.0
C      1  0.4688520000000  0.5557020000000  0.3775810000000 1.0
C      1  0.5611030000000  0.5019330000000  0.4641800000000 1.0
C      1  0.4614910000000  0.5815550000000  0.3768430000000 1.0
C      1  0.4875680000000  0.5420110000000  0.5629950000000 1.0
C      1  0.4781830000000  0.4461570000000  0.6304790000000 1.0
C      1  0.4256580000000  0.4943000000000  0.4571040000000 1.0
C      1  0.4966800000000  0.4704170000000  0.4145870000000 1.0
C      1  0.5341840000000  0.4330510000000  0.4549770000000 1.0
C      1  0.4034230000000  0.4543760000000  0.5706030000000 1.0
C      1  0.5738200000000  0.4851580000000  0.4167420000000 1.0
C      1  0.6609290000000  0.5458720000000  0.5293240000000 1.0
C      1  0.5906160000000  0.4650680000000  0.5026590000000 1.0
C      1  0.4454100000000  0.5358650000000  0.5399860000000 1.0
C      1  0.5018010000000  0.4576740000000  0.6173700000000 1.0
C      1  0.5939300000000  0.4707950000000  0.4745370000000 1.0
C      1  0.5738890000000  0.5968790000000  0.4857420000000 1.0
C      1  0.4898740000000  0.5811630000000  0.4301410000000 1.0
C      1  0.4437620000000  0.5060160000000  0.4763440000000 1.0
C      1  0.4639700000000  0.4255720000000  0.4537020000000 1.0
C      1  0.5859730000000  0.5815060000000  0.4403500000000 1.0
C      1  0.5782350000000  0.5544250000000  0.4407530000000 1.0
C      1  0.4826060000000  0.4734470000000  0.5479760000000 1.0
C      1  0.4689180000000  0.4551130000000  0.5642840000000 1.0
C      1  0.5770800000000  0.5049020000000  0.5363330000000 1.0
C      1  0.3998220000000  0.5042750000000  0.4537240000000 1.0
C      1  0.5341380000000  0.5202540000000  0.4957180000000 1.0
C      1  0.5420690000000  0.5241450000000  0.4672340000000 1.0
C      1  0.5320730000000  0.4513350000000  0.4763660000000 1.0
C      1  0.5044460000000  0.4207980000000  0.5850340000000 1.0
C      1  0.4829520000000  0.5937820000000  0.4816050000000 1.0
C      1  0.4952380000000  0.5107110000000  0.4524050000000 1.0
C      1  0.4328360000000  0.4680640000000  0.4471560000000 1.0
C      1  0.4315730000000  0.4894100000000  0.5457080000000 1.0
C      1  0.5270430000000  0.5072870000000  0.5856180000000 1.0
C      1  0.3048440000000  0.5317240000000  0.4489710000000 1.0
C      1  0.4973030000000  0.3697200000000  0.5441110000000 1.0
C      1  0.4986330000000  0.4239880000000  0.4160210000000 1.0
C      1  0.5320650000000  0.4732400000000  0.5181810000000 1.0
C      1  0.4710650000000  0.5444650000000  0.4895750000000 1.0
C      1  0.4660060000000  0.5552880000000  0.5469740000000 1.0
C      1  0.4149980000000  0.4778910000000  0.5650420000000 1.0
C      1  0.4563130000000  0.4501730000000  0.6137380000000 1.0
C      1  0.5221970000000  0.5392020000000  0.4244220000000 1.0
C      1  0.4943970000000  0.4908250000000  0.3951730000000 1.0
C      1  0.5106360000000  0.5956400000000  0.4895360000000 1.0
C      1  0.4899180000000  0.4157490000000  0.4425800000000 1.0
C      1  0.5561540000000  0.5490710000000  0.4580780000000 1.0
C      1  0.4659530000000  0.5790800000000  0.5304330000000 1.0
C      1  0.4848530000000  0.4100370000000  0.5672810000000 1.0
C      1  0.4039860000000  0.4155770000000  0.5382890000000 1.0
C      1  0.6547260000000  0.5261830000000  0.5459410000000 1.0
C      1  0.5000970000000  0.5574990000000  0.4167110000000 1.0
C      1  0.3819420000000  0.4939050000000  0.4964890000000 1.0
C      1  0.5929600000000  0.5559040000000  0.5004380000000 1.0
C      1  0.6647310000000  0.5655970000000  0.5120290000000 1.0
C      1  0.5885680000000  0.4977700000000  0.4688700000000 1.0
C      1  0.5822740000000  0.5996000000000  0.4601640000000 1.0
C      1  0.6154070000000  0.4717140000000  0.5867780000000 1.0
C      1  0.5316620000000  0.4785380000000  0.5458180000000 1.0
C      1  0.5201790000000  0.3879970000000  0.4704800000000 1.0
C      1  0.4859320000000  0.5320960000000  0.5910310000000 1.0
C      1  0.4514660000000  0.5094490000000  0.5484290000000 1.0
C      1  0.5293580000000  0.5075400000000  0.5555400000000 1.0
C      1  0.4652030000000  0.3677720000000  0.5793000000000 1.0
C      1  0.3772140000000  0.5041830000000  0.4702710000000 1.0
C      1  0.5528370000000  0.5203680000000  0.5398480000000 1.0
C      1  0.4824400000000  0.3820540000000  0.5635270000000 1.0
C      1  0.4880300000000  0.4834980000000  0.4632300000000 1.0
C      1  0.5858490000000  0.5097030000000  0.4187850000000 1.0
C      1  0.4663820000000  0.5914710000000  0.5057600000000 1.0
C      1  0.5183540000000  0.5712750000000  0.5022710000000 1.0
C      1  0.4554630000000  0.4705040000000  0.5043820000000 1.0
C      1  0.5451280000000  0.5358380000000  0.5168940000000 1.0
C      1  0.5284180000000  0.5240820000000  0.4004500000000 1.0
C      1  0.5663650000000  0.4607080000000  0.4302350000000 1.0
C      1  0.5200380000000  0.5229110000000  0.4478890000000 1.0
C      1  0.6326220000000  0.4885260000000  0.5756640000000 1.0
C      1  0.6036230000000  0.5210140000000  0.4629200000000 1.0
C      1  0.4403040000000  0.4159070000000  0.5053770000000 1.0
C      1  0.4960620000000  0.5515420000000  0.5025520000000 1.0
C      1  0.5449310000000  0.5634220000000  0.5103940000000 1.0
C      1  0.5706350000000  0.5739130000000  0.5020230000000 1.0
C      1  0.4848960000000  0.6050510000000  0.4153330000000 1.0
C      1  0.6456330000000  0.5069440000000  0.5617370000000 1.0
C      1  0.4875250000000  0.5424600000000  0.3936760000000 1.0
C      1  0.5846810000000  0.4542840000000  0.4525110000000 1.0
END
