TITL C-599893-4344-1196 25.7071471414054 125000 -464.193552419704 0 0 77 (C1) n - 1
REM
REM in /home/nfs/bkarasulu/CARBON/AIRSS/Generating-Clusters/TERSOFF/Only-C1/FIRE-HFTN
REM
REM
REM
REM
REM
REM ./C.cell (11c1c37f851c82e70ff6c80c92926a4b)
REM AIRSS Version 0.9.1 bugfix July 2018 build 013d7b7c2542+ Fri, 06 Jul 2018 19:26:36 +0100
REM compiler GCC version 9.2.1 20190827 (Red Hat 9.2.1-1)
REM options -cpp -mtune=generic -march=x86-64 -g -O0 -fpre-include=/usr/include/finclude/math-vector-fortran.h
REM seed -406749779 287303285 702689923 -1136380329 632213039 -641566054 -1733825740 -1490672883 1976751013 -1138809546 -1290335958 1215347754 -1016327902 1962934393 183018690 8881049 -1982928924 1201036483 1093389316 -2043672 -847684400 -2057226273 -1796167057 -460786937 -986815575 661124092 9085341 -306100723 925040223 1767593164 -351008467 1052369301 -109380439
REM
CELL 1.54180   50.00000   50.00000   50.00000   90.00000   90.00000   90.00000
LATT -1
SFAC C  
C      1  0.3983330000000  0.3834520000000  0.6232440000000 1.0
C      1  0.5354030000000  0.4998250000000  0.5712360000000 1.0
C      1  0.5489770000000  0.4730420000000  0.4223480000000 1.0
C      1  0.5757360000000  0.5218840000000  0.5311440000000 1.0
C      1  0.5042300000000  0.5079950000000  0.4449680000000 1.0
C      1  0.4773040000000  0.5748250000000  0.5011870000000 1.0
C      1  0.5479050000000  0.4322700000000  0.5023580000000 1.0
C      1  0.4909780000000  0.4155130000000  0.4834270000000 1.0
C      1  0.5086370000000  0.5304020000000  0.5111170000000 1.0
C      1  0.5203700000000  0.4678340000000  0.4918780000000 1.0
C      1  0.5167350000000  0.5920340000000  0.4778750000000 1.0
C      1  0.4523960000000  0.4039950000000  0.5686990000000 1.0
C      1  0.4579520000000  0.4488300000000  0.4402860000000 1.0
C      1  0.6146990000000  0.5474920000000  0.5138530000000 1.0
C      1  0.4843380000000  0.5283620000000  0.4944570000000 1.0
C      1  0.3625770000000  0.3698690000000  0.6593180000000 1.0
C      1  0.5404870000000  0.4336520000000  0.5301790000000 1.0
C      1  0.4770150000000  0.5533790000000  0.4814400000000 1.0
C      1  0.4716250000000  0.5569530000000  0.4530560000000 1.0
C      1  0.4628820000000  0.4755160000000  0.4427070000000 1.0
C      1  0.5730190000000  0.4764170000000  0.4362220000000 1.0
C      1  0.5031120000000  0.5873050000000  0.5020460000000 1.0
C      1  0.5100270000000  0.5453140000000  0.5575250000000 1.0
C      1  0.4585890000000  0.5722310000000  0.5236930000000 1.0
C      1  0.5197740000000  0.5781630000000  0.5231640000000 1.0
C      1  0.4210640000000  0.5404770000000  0.4836110000000 1.0
C      1  0.4893380000000  0.5501570000000  0.4316100000000 1.0
C      1  0.5500220000000  0.5318440000000  0.4582440000000 1.0
C      1  0.6136150000000  0.5487880000000  0.4871200000000 1.0
C      1  0.4343760000000  0.3971450000000  0.5868800000000 1.0
C      1  0.5398710000000  0.4954880000000  0.4060200000000 1.0
C      1  0.5979380000000  0.5388410000000  0.4679810000000 1.0
C      1  0.4163540000000  0.3902990000000  0.6050620000000 1.0
C      1  0.4890620000000  0.4849940000000  0.4382970000000 1.0
C      1  0.4858110000000  0.5580740000000  0.5648020000000 1.0
C      1  0.5163250000000  0.4205460000000  0.5368600000000 1.0
C      1  0.5283820000000  0.4552090000000  0.4321310000000 1.0
C      1  0.4311670000000  0.5756550000000  0.5173250000000 1.0
C      1  0.4802370000000  0.4288830000000  0.5058580000000 1.0
C      1  0.4755270000000  0.4871930000000  0.5490850000000 1.0
C      1  0.5342540000000  0.4458160000000  0.4812980000000 1.0
C      1  0.5037910000000  0.4659900000000  0.4232140000000 1.0
C      1  0.5490450000000  0.4540830000000  0.5479860000000 1.0
C      1  0.5243920000000  0.4378180000000  0.4553060000000 1.0
C      1  0.4632000000000  0.5081260000000  0.4941960000000 1.0
C      1  0.5232190000000  0.5173350000000  0.4044790000000 1.0
C      1  0.5985880000000  0.5355940000000  0.5316300000000 1.0
C      1  0.4368050000000  0.5182170000000  0.4907140000000 1.0
C      1  0.5825690000000  0.4959660000000  0.4516740000000 1.0
C      1  0.4631170000000  0.5563820000000  0.5477000000000 1.0
C      1  0.5586110000000  0.5646690000000  0.4237880000000 1.0
C      1  0.5039810000000  0.5276210000000  0.4233380000000 1.0
C      1  0.4986270000000  0.4234690000000  0.4573280000000 1.0
C      1  0.5332390000000  0.5788410000000  0.4615540000000 1.0
C      1  0.4652540000000  0.4799600000000  0.4961890000000 1.0
C      1  0.4405270000000  0.5843280000000  0.4270790000000 1.0
C      1  0.5152850000000  0.5510470000000  0.5299870000000 1.0
C      1  0.4450900000000  0.5643620000000  0.4451270000000 1.0
C      1  0.5470840000000  0.5585860000000  0.4479970000000 1.0
C      1  0.4497350000000  0.5314970000000  0.5504810000000 1.0
C      1  0.5451590000000  0.4760630000000  0.5630860000000 1.0
C      1  0.5769440000000  0.5220670000000  0.4601310000000 1.0
C      1  0.5383900000000  0.5938660000000  0.5353630000000 1.0
C      1  0.4886720000000  0.4198830000000  0.5315570000000 1.0
C      1  0.5274140000000  0.5143500000000  0.4605470000000 1.0
C      1  0.4703450000000  0.4110370000000  0.5505400000000 1.0
C      1  0.4146880000000  0.5595720000000  0.5033580000000 1.0
C      1  0.5232740000000  0.5238580000000  0.5701800000000 1.0
C      1  0.4567030000000  0.5057360000000  0.5532120000000 1.0
C      1  0.5149310000000  0.4836310000000  0.5139480000000 1.0
C      1  0.4671710000000  0.4537030000000  0.5016720000000 1.0
C      1  0.5537550000000  0.5129290000000  0.5192040000000 1.0
C      1  0.5268220000000  0.5089230000000  0.5131290000000 1.0
C      1  0.3803070000000  0.3766040000000  0.6414310000000 1.0
C      1  0.4240580000000  0.5503780000000  0.4574640000000 1.0
C      1  0.4967300000000  0.4789720000000  0.5349660000000 1.0
C      1  0.4760320000000  0.4285730000000  0.4408320000000 1.0
END
