TITL C-599897-7526-981 0.707235636092947 125000 -183.595854806313 0 0 31 (C1) n - 1
REM
REM in /home/nfs/bkarasulu/CARBON/AIRSS/Generating-Clusters/TERSOFF/Only-C1/FIRE-HFTN
REM
REM
REM
REM
REM
REM ./C.cell (11c1c37f851c82e70ff6c80c92926a4b)
REM AIRSS Version 0.9.1 bugfix July 2018 build 013d7b7c2542+ Fri, 06 Jul 2018 19:26:36 +0100
REM compiler GCC version 9.2.1 20190827 (Red Hat 9.2.1-1)
REM options -cpp -mtune=generic -march=x86-64 -g -O0 -fpre-include=/usr/include/finclude/math-vector-fortran.h
REM seed 1898446152 -1877143825 -2106957288 -127635183 2082364386 404050089 1678680149 -368501607 2042239662 -627193935 -1771953273 -748366212 -342537908 -1525845113 2067533449 -1107846987 879141194 -555823228 909768674 1317286135 -643607394 -1362903878 -1177362517 928323792 2089714568 -904390426 -123352243 94081699 -1065085636 1031996825 478485532 1294968825 1039944655
REM
CELL 1.54180   50.00000   50.00000   50.00000   90.00000   90.00000   90.00000
LATT -1
SFAC C  
C      1  0.4467640000000  0.4211320000000  0.5096270000000 1.0
C      1  0.5096510000000  0.5426740000000  0.4599440000000 1.0
C      1  0.5388170000000  0.4439340000000  0.5068020000000 1.0
C      1  0.5867020000000  0.4103880000000  0.4638940000000 1.0
C      1  0.4458850000000  0.5073180000000  0.4728290000000 1.0
C      1  0.5298040000000  0.4553210000000  0.4605130000000 1.0
C      1  0.4573640000000  0.6211440000000  0.5929000000000 1.0
C      1  0.5666760000000  0.4254250000000  0.4711070000000 1.0
C      1  0.4704100000000  0.4130010000000  0.5186000000000 1.0
C      1  0.4795010000000  0.5736910000000  0.5336620000000 1.0
C      1  0.4306330000000  0.4383640000000  0.4974330000000 1.0
C      1  0.5479480000000  0.4661150000000  0.5211750000000 1.0
C      1  0.5221870000000  0.5596560000000  0.4785690000000 1.0
C      1  0.5205920000000  0.4260290000000  0.5181560000000 1.0
C      1  0.4308890000000  0.4857070000000  0.4763770000000 1.0
C      1  0.4914580000000  0.5211730000000  0.4598940000000 1.0
C      1  0.4878490000000  0.5570150000000  0.5130340000000 1.0
C      1  0.4966910000000  0.4150760000000  0.5218400000000 1.0
C      1  0.5447000000000  0.5175210000000  0.5295260000000 1.0
C      1  0.5330270000000  0.5402020000000  0.5220750000000 1.0
C      1  0.4994620000000  0.4963330000000  0.4499770000000 1.0
C      1  0.4251700000000  0.4613600000000  0.4853090000000 1.0
C      1  0.5393250000000  0.5795410000000  0.4712430000000 1.0
C      1  0.5134590000000  0.4737840000000  0.4507070000000 1.0
C      1  0.4720570000000  0.5895910000000  0.5534950000000 1.0
C      1  0.5497680000000  0.4914510000000  0.5289020000000 1.0
C      1  0.4680800000000  0.5238460000000  0.4761650000000 1.0
C      1  0.4697950000000  0.5417210000000  0.4978340000000 1.0
C      1  0.5153850000000  0.5545860000000  0.5058550000000 1.0
C      1  0.4646490000000  0.6054980000000  0.5733600000000 1.0
C      1  0.5453020000000  0.4414050000000  0.4791960000000 1.0
END
