TITL C-599896-8500-1061 0.0507459838796303 125000 -235.679801070396 0 0 41 (C1) n - 1
REM
REM in /home/nfs/bkarasulu/CARBON/AIRSS/Generating-Clusters/TERSOFF/Only-C1/FIRE-HFTN
REM
REM
REM
REM
REM
REM ./C.cell (11c1c37f851c82e70ff6c80c92926a4b)
REM AIRSS Version 0.9.1 bugfix July 2018 build 013d7b7c2542+ Fri, 06 Jul 2018 19:26:36 +0100
REM compiler GCC version 9.2.1 20190827 (Red Hat 9.2.1-1)
REM options -cpp -mtune=generic -march=x86-64 -g -O0 -fpre-include=/usr/include/finclude/math-vector-fortran.h
REM seed -899070934 -601216233 1168614653 -1012532171 -76811911 1250640738 592332110 -1993100200 948117487 803756848 579723738 -417254406 280182885 -582763527 617031141 -2072454808 -1634381772 -544763336 794517206 206425079 1548485566 -780579719 2099474841 135659472 -1508177727 -1696977 1658878359 -2017107204 571568634 971030337 682767974 904940687 -542711059
REM
CELL 1.54180   50.00000   50.00000   50.00000   90.00000   90.00000   90.00000
LATT -1
SFAC C  
C      1  0.4583060000000  0.5133720000000  0.4213430000000 1.0
C      1  0.5179860000000  0.4903280000000  0.4880310000000 1.0
C      1  0.5409650000000  0.4262750000000  0.4888800000000 1.0
C      1  0.3973410000000  0.5683310000000  0.5791600000000 1.0
C      1  0.4672010000000  0.4834320000000  0.4983140000000 1.0
C      1  0.4881010000000  0.4709190000000  0.4156370000000 1.0
C      1  0.5817310000000  0.4995250000000  0.4034870000000 1.0
C      1  0.4454530000000  0.5509950000000  0.5105300000000 1.0
C      1  0.4670000000000  0.4621020000000  0.5172580000000 1.0
C      1  0.4407700000000  0.5363790000000  0.4640540000000 1.0
C      1  0.4434370000000  0.5308360000000  0.4913730000000 1.0
C      1  0.4370120000000  0.5730190000000  0.5528200000000 1.0
C      1  0.6303890000000  0.4099580000000  0.5246430000000 1.0
C      1  0.5366010000000  0.4958160000000  0.4681740000000 1.0
C      1  0.5191310000000  0.4627500000000  0.5278260000000 1.0
C      1  0.5394310000000  0.4441860000000  0.5344450000000 1.0
C      1  0.4818290000000  0.5740540000000  0.5337270000000 1.0
C      1  0.4485570000000  0.5041950000000  0.4985280000000 1.0
C      1  0.5251200000000  0.4878390000000  0.5156070000000 1.0
C      1  0.4728980000000  0.4925890000000  0.4135430000000 1.0
C      1  0.5162310000000  0.4366120000000  0.4436220000000 1.0
C      1  0.5675120000000  0.4990990000000  0.4253330000000 1.0
C      1  0.4283340000000  0.6031020000000  0.5889950000000 1.0
C      1  0.5185610000000  0.5347150000000  0.5384130000000 1.0
C      1  0.5802300000000  0.4236860000000  0.5169950000000 1.0
C      1  0.4905690000000  0.4868510000000  0.4828680000000 1.0
C      1  0.4918120000000  0.4560370000000  0.5291790000000 1.0
C      1  0.6055180000000  0.4167580000000  0.5207980000000 1.0
C      1  0.4941540000000  0.6259970000000  0.5256380000000 1.0
C      1  0.4466450000000  0.5293900000000  0.4390640000000 1.0
C      1  0.5026350000000  0.4514270000000  0.4262940000000 1.0
C      1  0.5535500000000  0.4311600000000  0.5133940000000 1.0
C      1  0.5289640000000  0.4280930000000  0.4652950000000 1.0
C      1  0.4442980000000  0.4481980000000  0.5232170000000 1.0
C      1  0.5527420000000  0.4983350000000  0.4473270000000 1.0
C      1  0.4207160000000  0.5815740000000  0.5738870000000 1.0
C      1  0.5281800000000  0.5111730000000  0.5306660000000 1.0
C      1  0.4545680000000  0.5660000000000  0.5322870000000 1.0
C      1  0.5451520000000  0.4387510000000  0.5606530000000 1.0
C      1  0.4885330000000  0.6008320000000  0.5294180000000 1.0
C      1  0.5018380000000  0.5553110000000  0.5392770000000 1.0
END
