TITL C-599890-3321-398 1.21826188487403 125000 -185.955693383078 0 0 33 (C1) n - 1
REM
REM in /home/nfs/bkarasulu/CARBON/AIRSS/Generating-Clusters/TERSOFF/Only-C1/FIRE-HFTN
REM
REM
REM
REM
REM
REM ./C.cell (11c1c37f851c82e70ff6c80c92926a4b)
REM AIRSS Version 0.9.1 bugfix July 2018 build 013d7b7c2542+ Fri, 06 Jul 2018 19:26:36 +0100
REM compiler GCC version 9.2.1 20190827 (Red Hat 9.2.1-1)
REM options -cpp -mtune=generic -march=x86-64 -g -O0 -fpre-include=/usr/include/finclude/math-vector-fortran.h
REM seed -1653600178 -1262920391 140747467 1997192020 1853656827 -1566147451 -476441952 -1830811966 -743126882 116480962 1697798367 41223431 328972172 -972337577 170830558 -1719670545 -1020558134 449101688 -1550442201 907677203 -1167037298 191775760 -1715669005 -225781044 -627444541 -1523376509 -1548367512 -1193717903 -804288707 133604172 2024517334 1952283146 -792175868
REM
CELL 1.54180   50.00000   50.00000   50.00000   90.00000   90.00000   90.00000
LATT -1
SFAC C  
C      1  0.5765130000000  0.5818410000000  0.4921220000000 1.0
C      1  0.5391070000000  0.4675160000000  0.5321170000000 1.0
C      1  0.5795490000000  0.5579720000000  0.5050960000000 1.0
C      1  0.5136420000000  0.5251000000000  0.4925920000000 1.0
C      1  0.5026220000000  0.4584780000000  0.4989080000000 1.0
C      1  0.4696170000000  0.5165880000000  0.4723720000000 1.0
C      1  0.4435520000000  0.5138850000000  0.4803830000000 1.0
C      1  0.5313000000000  0.4823810000000  0.4641490000000 1.0
C      1  0.4797970000000  0.4653660000000  0.5151650000000 1.0
C      1  0.4863570000000  0.5405020000000  0.4265580000000 1.0
C      1  0.4549670000000  0.4680670000000  0.5586520000000 1.0
C      1  0.4209710000000  0.4467910000000  0.5951370000000 1.0
C      1  0.4950540000000  0.4653050000000  0.4265610000000 1.0
C      1  0.4660830000000  0.4942500000000  0.5608340000000 1.0
C      1  0.4636540000000  0.4542910000000  0.5352480000000 1.0
C      1  0.5386660000000  0.4786030000000  0.4381840000000 1.0
C      1  0.4375830000000  0.4571840000000  0.5773050000000 1.0
C      1  0.5267780000000  0.4532910000000  0.5127670000000 1.0
C      1  0.4856650000000  0.5042940000000  0.5427290000000 1.0
C      1  0.5336450000000  0.4893220000000  0.5469250000000 1.0
C      1  0.5034400000000  0.4783600000000  0.4755790000000 1.0
C      1  0.4046240000000  0.4365640000000  0.6126820000000 1.0
C      1  0.4762550000000  0.5300590000000  0.4487100000000 1.0
C      1  0.5341570000000  0.5436970000000  0.4925490000000 1.0
C      1  0.4977980000000  0.5498450000000  0.4050790000000 1.0
C      1  0.5126720000000  0.5057720000000  0.5510690000000 1.0
C      1  0.5529470000000  0.5872250000000  0.4793600000000 1.0
C      1  0.5208820000000  0.4701570000000  0.4193370000000 1.0
C      1  0.5325190000000  0.5690760000000  0.4794570000000 1.0
C      1  0.4818100000000  0.4947390000000  0.5159160000000 1.0
C      1  0.4864670000000  0.4687860000000  0.4521920000000 1.0
C      1  0.5593640000000  0.5395590000000  0.5054170000000 1.0
C      1  0.4919430000000  0.5051350000000  0.4888490000000 1.0
END
