TITL C-599897-7526-476 942.032233727579 125000 -1186.28331310497 0 0 192 (C1) n - 1
REM
REM in /home/nfs/bkarasulu/CARBON/AIRSS/Generating-Clusters/TERSOFF/Only-C1/FIRE-HFTN
REM
REM
REM
REM
REM
REM ./C.cell (11c1c37f851c82e70ff6c80c92926a4b)
REM AIRSS Version 0.9.1 bugfix July 2018 build 013d7b7c2542+ Fri, 06 Jul 2018 19:26:36 +0100
REM compiler GCC version 9.2.1 20190827 (Red Hat 9.2.1-1)
REM options -cpp -mtune=generic -march=x86-64 -g -O0 -fpre-include=/usr/include/finclude/math-vector-fortran.h
REM seed 97189867 140221790 677307567 1742232032 -1459420049 -992417580 1290626284 -1635796378 457891178 1689873421 659019494 1694863961 -953816147 -525139874 2010856043 1547418276 -592516218 -227468889 -312850042 -468169699 -196373694 -770691410 -1265972727 -415154264 409711088 -583103934 -1996200652 581381196 960125612 330287951 -1207809697 -1452699915 1947116330
REM
CELL 1.54180   50.00000   50.00000   50.00000   90.00000   90.00000   90.00000
LATT -1
SFAC C  
C      1  0.5878680000000  0.4920030000000  0.4447270000000 1.0
C      1  0.4991610000000  0.4158520000000  0.5813850000000 1.0
C      1  0.5179650000000  0.4268150000000  0.4694520000000 1.0
C      1  0.6146460000000  0.4421110000000  0.4961260000000 1.0
C      1  0.4163600000000  0.4760940000000  0.4089800000000 1.0
C      1  0.5361060000000  0.4605440000000  0.5709440000000 1.0
C      1  0.5000830000000  0.5765770000000  0.5385220000000 1.0
C      1  0.4827230000000  0.3768970000000  0.5565000000000 1.0
C      1  0.5019750000000  0.4484410000000  0.4769900000000 1.0
C      1  0.5564480000000  0.5440530000000  0.3833770000000 1.0
C      1  0.5662790000000  0.6035860000000  0.5381050000000 1.0
C      1  0.5304200000000  0.5877870000000  0.5873660000000 1.0
C      1  0.4156280000000  0.5054790000000  0.5277490000000 1.0
C      1  0.4976610000000  0.6088680000000  0.4362900000000 1.0
C      1  0.4648440000000  0.5736240000000  0.4923490000000 1.0
C      1  0.4789320000000  0.4909830000000  0.5255530000000 1.0
C      1  0.4717190000000  0.6051900000000  0.4258090000000 1.0
C      1  0.5987020000000  0.5454250000000  0.4720120000000 1.0
C      1  0.4932490000000  0.5922280000000  0.5612880000000 1.0
C      1  0.5160720000000  0.4728100000000  0.4743880000000 1.0
C      1  0.5061050000000  0.4994400000000  0.4349620000000 1.0
C      1  0.5441630000000  0.6149920000000  0.4973150000000 1.0
C      1  0.5349430000000  0.5790880000000  0.4705980000000 1.0
C      1  0.4283370000000  0.3715180000000  0.4558040000000 1.0
C      1  0.4844170000000  0.5410400000000  0.4096790000000 1.0
C      1  0.4352910000000  0.3762730000000  0.5276190000000 1.0
C      1  0.5119620000000  0.5455220000000  0.4183060000000 1.0
C      1  0.5311350000000  0.4626880000000  0.4255220000000 1.0
C      1  0.5833460000000  0.4899210000000  0.5441710000000 1.0
C      1  0.4769420000000  0.4524340000000  0.5564800000000 1.0
C      1  0.3915970000000  0.5152690000000  0.5163320000000 1.0
C      1  0.4733080000000  0.4301550000000  0.5390560000000 1.0
C      1  0.5069650000000  0.3861100000000  0.4403900000000 1.0
C      1  0.4813920000000  0.4865010000000  0.6163830000000 1.0
C      1  0.5825430000000  0.5133990000000  0.5284690000000 1.0
C      1  0.5684080000000  0.4709730000000  0.4853750000000 1.0
C      1  0.4954920000000  0.3803080000000  0.5302810000000 1.0
C      1  0.5904710000000  0.4705080000000  0.4654790000000 1.0
C      1  0.5223950000000  0.3990210000000  0.4202120000000 1.0
C      1  0.4483360000000  0.4528300000000  0.6085780000000 1.0
C      1  0.4104150000000  0.4629270000000  0.4823330000000 1.0
C      1  0.5647580000000  0.4648040000000  0.5788180000000 1.0
C      1  0.4334350000000  0.4913600000000  0.4258120000000 1.0
C      1  0.5191410000000  0.5162930000000  0.6098430000000 1.0
C      1  0.5855030000000  0.5819260000000  0.5815110000000 1.0
C      1  0.6105340000000  0.5254350000000  0.4896880000000 1.0
C      1  0.5617910000000  0.4562900000000  0.5115820000000 1.0
C      1  0.4762470000000  0.4586650000000  0.6080380000000 1.0
C      1  0.4771190000000  0.5574300000000  0.5916960000000 1.0
C      1  0.3998680000000  0.5541850000000  0.4543860000000 1.0
C      1  0.5880000000000  0.5389130000000  0.4226170000000 1.0
C      1  0.4710410000000  0.3860160000000  0.4768280000000 1.0
C      1  0.5740820000000  0.5291530000000  0.4005750000000 1.0
C      1  0.4755950000000  0.4916170000000  0.6430880000000 1.0
C      1  0.5376960000000  0.6112200000000  0.5450240000000 1.0
C      1  0.5812780000000  0.5752060000000  0.4861670000000 1.0
C      1  0.5366130000000  0.4373870000000  0.5534390000000 1.0
C      1  0.4974770000000  0.4414320000000  0.5969560000000 1.0
C      1  0.5216010000000  0.5236840000000  0.4345230000000 1.0
C      1  0.4350310000000  0.4786890000000  0.5699610000000 1.0
C      1  0.3941650000000  0.5628850000000  0.5116160000000 1.0
C      1  0.4640040000000  0.5550010000000  0.4240140000000 1.0
C      1  0.4816640000000  0.4960890000000  0.4208300000000 1.0
C      1  0.4538660000000  0.5466530000000  0.4494260000000 1.0
C      1  0.5742270000000  0.4826930000000  0.4206620000000 1.0
C      1  0.4310920000000  0.5984790000000  0.5118010000000 1.0
C      1  0.3936310000000  0.5622910000000  0.5399350000000 1.0
C      1  0.4507310000000  0.4048980000000  0.5803490000000 1.0
C      1  0.3936240000000  0.5236920000000  0.4093650000000 1.0
C      1  0.4553310000000  0.3613340000000  0.5166010000000 1.0
C      1  0.5560250000000  0.5653170000000  0.4840450000000 1.0
C      1  0.5474640000000  0.5219070000000  0.6047150000000 1.0
C      1  0.5668600000000  0.5375850000000  0.5257880000000 1.0
C      1  0.3881700000000  0.5252260000000  0.5706500000000 1.0
C      1  0.5907360000000  0.5093280000000  0.5017690000000 1.0
C      1  0.4430820000000  0.4261190000000  0.5347710000000 1.0
C      1  0.4284200000000  0.4049490000000  0.4911680000000 1.0
C      1  0.4423070000000  0.5229030000000  0.4595090000000 1.0
C      1  0.3764730000000  0.5005610000000  0.5662490000000 1.0
C      1  0.4258100000000  0.4479590000000  0.4101040000000 1.0
C      1  0.5564870000000  0.5093950000000  0.5804050000000 1.0
C      1  0.4318500000000  0.4032140000000  0.5190300000000 1.0
C      1  0.4379350000000  0.4529020000000  0.5201030000000 1.0
C      1  0.4451680000000  0.5772040000000  0.5610010000000 1.0
C      1  0.5598040000000  0.3945160000000  0.4739650000000 1.0
C      1  0.4813730000000  0.5142980000000  0.3985960000000 1.0
C      1  0.4907280000000  0.4294880000000  0.5168410000000 1.0
C      1  0.5532500000000  0.5417880000000  0.4998720000000 1.0
C      1  0.5783810000000  0.5831650000000  0.5540310000000 1.0
C      1  0.5458760000000  0.4105960000000  0.4136910000000 1.0
C      1  0.4471570000000  0.5668750000000  0.4683540000000 1.0
C      1  0.4617080000000  0.4735510000000  0.5628510000000 1.0
C      1  0.4558240000000  0.6033780000000  0.4964060000000 1.0
C      1  0.4583420000000  0.4721150000000  0.4579340000000 1.0
C      1  0.5842820000000  0.4643350000000  0.5297190000000 1.0
C      1  0.4289210000000  0.4659910000000  0.5946490000000 1.0
C      1  0.4787490000000  0.3750440000000  0.5050660000000 1.0
C      1  0.5402070000000  0.4393570000000  0.5241090000000 1.0
C      1  0.4828140000000  0.4483850000000  0.4977570000000 1.0
C      1  0.6061830000000  0.4163820000000  0.4880260000000 1.0
C      1  0.4916450000000  0.5096450000000  0.6016760000000 1.0
C      1  0.5099400000000  0.5506430000000  0.5419730000000 1.0
C      1  0.4708400000000  0.5803290000000  0.5749860000000 1.0
C      1  0.5099620000000  0.5663840000000  0.4732870000000 1.0
C      1  0.5466400000000  0.3701620000000  0.4679270000000 1.0
C      1  0.4597840000000  0.5823610000000  0.4178640000000 1.0
C      1  0.4611610000000  0.5208010000000  0.5302150000000 1.0
C      1  0.5669260000000  0.4992960000000  0.4883580000000 1.0
C      1  0.5210220000000  0.4133820000000  0.5612490000000 1.0
C      1  0.5542760000000  0.5496620000000  0.6029900000000 1.0
C      1  0.4183970000000  0.5719620000000  0.4703150000000 1.0
C      1  0.5196160000000  0.6044520000000  0.5674090000000 1.0
C      1  0.5425210000000  0.4165360000000  0.4710990000000 1.0
C      1  0.5199290000000  0.4780090000000  0.4465780000000 1.0
C      1  0.5555780000000  0.5922390000000  0.3798070000000 1.0
C      1  0.5174130000000  0.4642240000000  0.4004220000000 1.0
C      1  0.4415090000000  0.5180950000000  0.4871140000000 1.0
C      1  0.4641390000000  0.4671170000000  0.5119800000000 1.0
C      1  0.4983510000000  0.5063510000000  0.3769110000000 1.0
C      1  0.4342550000000  0.5496190000000  0.5630310000000 1.0
C      1  0.5338560000000  0.5136720000000  0.5624300000000 1.0
C      1  0.4347680000000  0.4591200000000  0.4675550000000 1.0
C      1  0.5183410000000  0.4209930000000  0.5164190000000 1.0
C      1  0.3891730000000  0.4606930000000  0.5295810000000 1.0
C      1  0.6593280000000  0.5261580000000  0.4862930000000 1.0
C      1  0.5753920000000  0.5581480000000  0.5421400000000 1.0
C      1  0.3891040000000  0.4786750000000  0.5523590000000 1.0
C      1  0.5249240000000  0.6115260000000  0.5188740000000 1.0
C      1  0.5457190000000  0.4984920000000  0.3798300000000 1.0
C      1  0.4812670000000  0.3956960000000  0.4499800000000 1.0
C      1  0.5637140000000  0.4308910000000  0.4161020000000 1.0
C      1  0.5198210000000  0.4844010000000  0.5007520000000 1.0
C      1  0.3900000000000  0.5324360000000  0.4712550000000 1.0
C      1  0.5673730000000  0.5006340000000  0.3993520000000 1.0
C      1  0.5307370000000  0.5261040000000  0.4613810000000 1.0
C      1  0.5085870000000  0.5389330000000  0.4736180000000 1.0
C      1  0.5172500000000  0.3984390000000  0.5349950000000 1.0
C      1  0.4594750000000  0.4824850000000  0.4313260000000 1.0
C      1  0.5080730000000  0.4876460000000  0.5273540000000 1.0
C      1  0.5408750000000  0.5256910000000  0.3676200000000 1.0
C      1  0.4417130000000  0.3875920000000  0.4734320000000 1.0
C      1  0.4354030000000  0.5942550000000  0.5400830000000 1.0
C      1  0.4348490000000  0.4190120000000  0.5633180000000 1.0
C      1  0.5478460000000  0.4624250000000  0.6447560000000 1.0
C      1  0.3967920000000  0.4969510000000  0.4014410000000 1.0
C      1  0.4773100000000  0.6190710000000  0.4815520000000 1.0
C      1  0.5745990000000  0.4899280000000  0.5712050000000 1.0
C      1  0.3876700000000  0.5374370000000  0.4991940000000 1.0
C      1  0.4631380000000  0.4134630000000  0.4334510000000 1.0
C      1  0.5607880000000  0.4640790000000  0.6673230000000 1.0
C      1  0.6345260000000  0.4847770000000  0.4791010000000 1.0
C      1  0.4729930000000  0.4872080000000  0.4752510000000 1.0
C      1  0.4940410000000  0.5788320000000  0.4920420000000 1.0
C      1  0.5055800000000  0.5328050000000  0.5214760000000 1.0
C      1  0.3978060000000  0.5066550000000  0.4605330000000 1.0
C      1  0.5025790000000  0.6163740000000  0.4641110000000 1.0
C      1  0.5223870000000  0.3676520000000  0.4558700000000 1.0
C      1  0.4776930000000  0.3967120000000  0.5769750000000 1.0
C      1  0.5354710000000  0.4601410000000  0.6214420000000 1.0
C      1  0.5920930000000  0.5276100000000  0.4477450000000 1.0
C      1  0.4111750000000  0.5813120000000  0.4973440000000 1.0
C      1  0.5225730000000  0.4552160000000  0.5970910000000 1.0
C      1  0.6356920000000  0.5125990000000  0.4850050000000 1.0
C      1  0.3968270000000  0.5457850000000  0.4261370000000 1.0
C      1  0.4634390000000  0.5522550000000  0.5154660000000 1.0
C      1  0.3920300000000  0.4814140000000  0.4714830000000 1.0
C      1  0.5252620000000  0.5417130000000  0.5636540000000 1.0
C      1  0.5256860000000  0.5695930000000  0.4110850000000 1.0
C      1  0.4227620000000  0.5080670000000  0.4457040000000 1.0
C      1  0.4752340000000  0.5287910000000  0.5848440000000 1.0
C      1  0.5493700000000  0.5196090000000  0.4816550000000 1.0
C      1  0.5462110000000  0.5691980000000  0.3911530000000 1.0
C      1  0.5780010000000  0.5650210000000  0.6016280000000 1.0
C      1  0.4053400000000  0.5460880000000  0.5604410000000 1.0
C      1  0.5175890000000  0.5942310000000  0.4223090000000 1.0
C      1  0.5306650000000  0.6081160000000  0.4728440000000 1.0
C      1  0.4382460000000  0.5129090000000  0.5141940000000 1.0
C      1  0.6159390000000  0.4635190000000  0.4768710000000 1.0
C      1  0.5710340000000  0.6035210000000  0.5070140000000 1.0
C      1  0.5194420000000  0.4859840000000  0.3827180000000 1.0
C      1  0.5342600000000  0.5600500000000  0.5848340000000 1.0
C      1  0.4987370000000  0.5273200000000  0.4964870000000 1.0
C      1  0.4168070000000  0.4888190000000  0.5511540000000 1.0
C      1  0.5128410000000  0.5263590000000  0.3616160000000 1.0
C      1  0.6083660000000  0.4508190000000  0.5226630000000 1.0
C      1  0.5051490000000  0.5910390000000  0.5151400000000 1.0
C      1  0.5233680000000  0.4889860000000  0.5520720000000 1.0
C      1  0.5590350000000  0.4580380000000  0.4224340000000 1.0
C      1  0.4110070000000  0.4573160000000  0.5103730000000 1.0
C      1  0.4562030000000  0.5287800000000  0.5608080000000 1.0
C      1  0.4439190000000  0.4290780000000  0.4204190000000 1.0
C      1  0.5864900000000  0.3995350000000  0.4810730000000 1.0
END
