TITL C-599897-7526-1362 0.0152614508861199 125000 -167.188105155545 0 0 29 (C1) n - 1
REM
REM in /home/nfs/bkarasulu/CARBON/AIRSS/Generating-Clusters/TERSOFF/Only-C1/FIRE-HFTN
REM
REM
REM
REM
REM
REM ./C.cell (11c1c37f851c82e70ff6c80c92926a4b)
REM AIRSS Version 0.9.1 bugfix July 2018 build 013d7b7c2542+ Fri, 06 Jul 2018 19:26:36 +0100
REM compiler GCC version 9.2.1 20190827 (Red Hat 9.2.1-1)
REM options -cpp -mtune=generic -march=x86-64 -g -O0 -fpre-include=/usr/include/finclude/math-vector-fortran.h
REM seed 910056104 -35544597 -389177489 -957324497 -978848898 1063570879 -1742474149 620717135 -2127986432 -1812898358 2074808883 -620026953 705003082 2068657110 -4822820 868184527 1784423714 933275183 784585909 -1727103914 -520943711 942834014 1182380884 -1536152018 -227949220 -106647587 833465674 -1086673320 1410993136 2103558240 -853190985 -1581667377 571312615
REM
CELL 1.54180   50.00000   50.00000   50.00000   90.00000   90.00000   90.00000
LATT -1
SFAC C  
C      1  0.5634680000000  0.5112350000000  0.5566890000000 1.0
C      1  0.4692350000000  0.4385020000000  0.4851300000000 1.0
C      1  0.5332490000000  0.5447460000000  0.5315140000000 1.0
C      1  0.5095970000000  0.5458590000000  0.4882890000000 1.0
C      1  0.3789000000000  0.4891380000000  0.4427410000000 1.0
C      1  0.4294200000000  0.4967050000000  0.4568830000000 1.0
C      1  0.5338690000000  0.5497380000000  0.5030960000000 1.0
C      1  0.5588820000000  0.4847920000000  0.5590290000000 1.0
C      1  0.4811630000000  0.5018690000000  0.4726960000000 1.0
C      1  0.4922070000000  0.5480690000000  0.5578330000000 1.0
C      1  0.5555350000000  0.5347100000000  0.5460110000000 1.0
C      1  0.3540540000000  0.4853860000000  0.4357940000000 1.0
C      1  0.4969570000000  0.4779900000000  0.4760260000000 1.0
C      1  0.5375550000000  0.4950310000000  0.4928080000000 1.0
C      1  0.5249030000000  0.4815570000000  0.4711780000000 1.0
C      1  0.5589540000000  0.5126530000000  0.4879970000000 1.0
C      1  0.5023620000000  0.5087710000000  0.5299820000000 1.0
C      1  0.5069330000000  0.4489850000000  0.5144700000000 1.0
C      1  0.4546780000000  0.5000110000000  0.4641320000000 1.0
C      1  0.5230280000000  0.4927380000000  0.5177600000000 1.0
C      1  0.4041610000000  0.4929510000000  0.4498040000000 1.0
C      1  0.4926660000000  0.5274920000000  0.4779870000000 1.0
C      1  0.5375880000000  0.4727950000000  0.4487670000000 1.0
C      1  0.5083440000000  0.5344860000000  0.5405930000000 1.0
C      1  0.4769180000000  0.4988350000000  0.5327910000000 1.0
C      1  0.5570780000000  0.5395620000000  0.4903500000000 1.0
C      1  0.5435200000000  0.4646800000000  0.5493240000000 1.0
C      1  0.5245050000000  0.4660640000000  0.5286080000000 1.0
C      1  0.4902740000000  0.4546500000000  0.4917180000000 1.0
END
