TITL C-599890-3321-770 7.77867805282963 125000 -133.134317138195 0 0 24 (C1) n - 1
REM
REM in /home/nfs/bkarasulu/CARBON/AIRSS/Generating-Clusters/TERSOFF/Only-C1/FIRE-HFTN
REM
REM
REM
REM
REM
REM ./C.cell (11c1c37f851c82e70ff6c80c92926a4b)
REM AIRSS Version 0.9.1 bugfix July 2018 build 013d7b7c2542+ Fri, 06 Jul 2018 19:26:36 +0100
REM compiler GCC version 9.2.1 20190827 (Red Hat 9.2.1-1)
REM options -cpp -mtune=generic -march=x86-64 -g -O0 -fpre-include=/usr/include/finclude/math-vector-fortran.h
REM seed 142947673 828368643 -804609876 -929163267 1394675655 1454608611 -742737346 1122091725 673279858 481819311 -1065140056 -1086146228 -1340466194 -1176506900 -1916064282 2067239388 -1232320522 803755105 397162160 -2078559536 1916144290 -1078735530 1439916732 -1672518023 1579036019 413643418 -425526917 -526359924 1512893273 1638841663 -1948890993 308576050 2056930712
REM
CELL 1.54180   50.00000   50.00000   50.00000   90.00000   90.00000   90.00000
LATT -1
SFAC C  
C      1  0.5594210000000  0.3586860000000  0.5390450000000 1.0
C      1  0.4607130000000  0.5339530000000  0.4839620000000 1.0
C      1  0.5705690000000  0.5586190000000  0.4327590000000 1.0
C      1  0.4355520000000  0.5246970000000  0.4918000000000 1.0
C      1  0.5084400000000  0.5515170000000  0.4690910000000 1.0
C      1  0.5808780000000  0.3441430000000  0.5418300000000 1.0
C      1  0.4939840000000  0.4030360000000  0.5305490000000 1.0
C      1  0.5322980000000  0.5603150000000  0.4616720000000 1.0
C      1  0.4132070000000  0.5412990000000  0.4894560000000 1.0
C      1  0.6014340000000  0.6501240000000  0.5093970000000 1.0
C      1  0.4721740000000  0.4178190000000  0.5277180000000 1.0
C      1  0.4300880000000  0.4743270000000  0.5116300000000 1.0
C      1  0.4029190000000  0.4386190000000  0.5286650000000 1.0
C      1  0.5799590000000  0.6106470000000  0.4821090000000 1.0
C      1  0.5907860000000  0.6305490000000  0.4958660000000 1.0
C      1  0.5574770000000  0.5697720000000  0.4540290000000 1.0
C      1  0.5157940000000  0.3882540000000  0.5333800000000 1.0
C      1  0.3923690000000  0.5567970000000  0.4872640000000 1.0
C      1  0.5691210000000  0.5907580000000  0.4683750000000 1.0
C      1  0.5376050000000  0.3734720000000  0.5362120000000 1.0
C      1  0.4275200000000  0.4484100000000  0.5218030000000 1.0
C      1  0.4327340000000  0.4988410000000  0.5019810000000 1.0
C      1  0.4845720000000  0.5427320000000  0.4765290000000 1.0
C      1  0.4503860000000  0.4326140000000  0.5248810000000 1.0
END
