TITL C-599897-7526-1199 0.0187944288595448 125000 -645.714644942858 0 0 108 (C1) n - 1
REM
REM in /home/nfs/bkarasulu/CARBON/AIRSS/Generating-Clusters/TERSOFF/Only-C1/FIRE-HFTN
REM
REM
REM
REM
REM
REM ./C.cell (11c1c37f851c82e70ff6c80c92926a4b)
REM AIRSS Version 0.9.1 bugfix July 2018 build 013d7b7c2542+ Fri, 06 Jul 2018 19:26:36 +0100
REM compiler GCC version 9.2.1 20190827 (Red Hat 9.2.1-1)
REM options -cpp -mtune=generic -march=x86-64 -g -O0 -fpre-include=/usr/include/finclude/math-vector-fortran.h
REM seed 1917734037 946570671 -943534993 409986853 -658268942 -1468970562 1130271170 -1184131416 -953162329 1432414398 1980843875 1101001149 1284030926 -1992309161 -869860982 45817009 -2136784443 320619556 1565273663 1172409485 1586653643 979366872 -1594953858 -681131900 1752050888 915203203 -421082670 -1474231767 2142529348 680848696 294975115 1690740571 420174856
REM
CELL 1.54180   50.00000   50.00000   50.00000   90.00000   90.00000   90.00000
LATT -1
SFAC C  
C      1  0.5314100000000  0.4786380000000  0.6014070000000 1.0
C      1  0.5605060000000  0.4677060000000  0.5376110000000 1.0
C      1  0.5888760000000  0.5304160000000  0.5639880000000 1.0
C      1  0.4524070000000  0.5779700000000  0.4371630000000 1.0
C      1  0.5133480000000  0.4820440000000  0.5315100000000 1.0
C      1  0.5808950000000  0.5564840000000  0.5706040000000 1.0
C      1  0.5583710000000  0.6005020000000  0.5199480000000 1.0
C      1  0.5406640000000  0.5321490000000  0.4606060000000 1.0
C      1  0.4041660000000  0.4523590000000  0.5234650000000 1.0
C      1  0.4202600000000  0.5235030000000  0.5002200000000 1.0
C      1  0.4166350000000  0.5148570000000  0.4371530000000 1.0
C      1  0.5521850000000  0.4461600000000  0.4110820000000 1.0
C      1  0.5687700000000  0.4081620000000  0.4338250000000 1.0
C      1  0.5530750000000  0.5608750000000  0.5752430000000 1.0
C      1  0.4045580000000  0.5476430000000  0.4977490000000 1.0
C      1  0.5801990000000  0.4162440000000  0.4569290000000 1.0
C      1  0.3840770000000  0.5516780000000  0.4795640000000 1.0
C      1  0.4295800000000  0.4385480000000  0.5231320000000 1.0
C      1  0.5206780000000  0.3988470000000  0.5071950000000 1.0
C      1  0.6040750000000  0.4884770000000  0.4806020000000 1.0
C      1  0.5675310000000  0.4672440000000  0.4172640000000 1.0
C      1  0.5579410000000  0.5108230000000  0.4968160000000 1.0
C      1  0.4848970000000  0.4885390000000  0.5233930000000 1.0
C      1  0.5013180000000  0.5224280000000  0.4431400000000 1.0
C      1  0.5376460000000  0.5766100000000  0.5572050000000 1.0
C      1  0.4380970000000  0.5049380000000  0.4481600000000 1.0
C      1  0.4110800000000  0.5081000000000  0.5234310000000 1.0
C      1  0.4511930000000  0.4559230000000  0.5280270000000 1.0
C      1  0.5131430000000  0.5401600000000  0.4616190000000 1.0
C      1  0.4853870000000  0.5835710000000  0.4029640000000 1.0
C      1  0.4701920000000  0.4901660000000  0.6116720000000 1.0
C      1  0.4195920000000  0.5532260000000  0.5427020000000 1.0
C      1  0.4609770000000  0.3951820000000  0.4661000000000 1.0
C      1  0.4587780000000  0.5438370000000  0.4022940000000 1.0
C      1  0.6268150000000  0.5787390000000  0.4188160000000 1.0
C      1  0.5990140000000  0.5767870000000  0.5729920000000 1.0
C      1  0.5408130000000  0.5465250000000  0.5959040000000 1.0
C      1  0.4048720000000  0.4808210000000  0.5264300000000 1.0
C      1  0.3830380000000  0.4411930000000  0.5082760000000 1.0
C      1  0.5972550000000  0.4815740000000  0.5056850000000 1.0
C      1  0.4799860000000  0.5161330000000  0.5327200000000 1.0
C      1  0.4971890000000  0.4495590000000  0.4810540000000 1.0
C      1  0.4372610000000  0.4159610000000  0.5071170000000 1.0
C      1  0.5800230000000  0.4623430000000  0.5172810000000 1.0
C      1  0.5825060000000  0.5582900000000  0.4383760000000 1.0
C      1  0.4464580000000  0.5533720000000  0.5521630000000 1.0
C      1  0.4570750000000  0.5215430000000  0.3851700000000 1.0
C      1  0.5234320000000  0.4569190000000  0.4731240000000 1.0
C      1  0.4639380000000  0.4742230000000  0.5103700000000 1.0
C      1  0.4451850000000  0.5907090000000  0.4594360000000 1.0
C      1  0.5442410000000  0.5055610000000  0.4725540000000 1.0
C      1  0.5850390000000  0.4803940000000  0.4325690000000 1.0
C      1  0.5404480000000  0.4338660000000  0.4757590000000 1.0
C      1  0.5462140000000  0.5283680000000  0.6400000000000 1.0
C      1  0.5121820000000  0.5860880000000  0.5642870000000 1.0
C      1  0.4774250000000  0.3924490000000  0.4449520000000 1.0
C      1  0.4366040000000  0.5965770000000  0.4840240000000 1.0
C      1  0.4792060000000  0.4316730000000  0.4891270000000 1.0
C      1  0.5357440000000  0.5265070000000  0.6147770000000 1.0
C      1  0.5846770000000  0.5044080000000  0.5604290000000 1.0
C      1  0.5196900000000  0.5041860000000  0.6077250000000 1.0
C      1  0.4476300000000  0.5246020000000  0.3596700000000 1.0
C      1  0.5540420000000  0.4769580000000  0.5851240000000 1.0
C      1  0.4855680000000  0.5856020000000  0.5655010000000 1.0
C      1  0.5134810000000  0.5471680000000  0.5106360000000 1.0
C      1  0.4988840000000  0.5458510000000  0.4858550000000 1.0
C      1  0.4072040000000  0.5270590000000  0.5449590000000 1.0
C      1  0.4248600000000  0.5898240000000  0.5071710000000 1.0
C      1  0.5039460000000  0.4942560000000  0.4469440000000 1.0
C      1  0.5407030000000  0.5555540000000  0.5139110000000 1.0
C      1  0.5321320000000  0.4610280000000  0.5353850000000 1.0
C      1  0.3846720000000  0.4395960000000  0.4812690000000 1.0
C      1  0.5473040000000  0.4195480000000  0.4191670000000 1.0
C      1  0.5056190000000  0.5292890000000  0.5309830000000 1.0
C      1  0.4729480000000  0.4793240000000  0.4135220000000 1.0
C      1  0.5680460000000  0.4819050000000  0.5613250000000 1.0
C      1  0.5988040000000  0.4872430000000  0.4544080000000 1.0
C      1  0.5193050000000  0.4101940000000  0.5314740000000 1.0
C      1  0.5596040000000  0.5348850000000  0.5092850000000 1.0
C      1  0.6047960000000  0.5686880000000  0.4285010000000 1.0
C      1  0.4604020000000  0.5292580000000  0.5472350000000 1.0
C      1  0.5236320000000  0.5083950000000  0.5385050000000 1.0
C      1  0.4650370000000  0.4961460000000  0.3942650000000 1.0
C      1  0.5216580000000  0.4079600000000  0.4200380000000 1.0
C      1  0.3651680000000  0.5566480000000  0.4623370000000 1.0
C      1  0.4795260000000  0.4816090000000  0.4408410000000 1.0
C      1  0.5609950000000  0.5467020000000  0.4485900000000 1.0
C      1  0.4613870000000  0.5750270000000  0.5615830000000 1.0
C      1  0.4302090000000  0.4576250000000  0.4758020000000 1.0
C      1  0.4915230000000  0.5062970000000  0.6085250000000 1.0
C      1  0.4920120000000  0.4476050000000  0.6132090000000 1.0
C      1  0.5237210000000  0.4348510000000  0.5407430000000 1.0
C      1  0.4066620000000  0.4476000000000  0.4678100000000 1.0
C      1  0.4583690000000  0.4883590000000  0.4586900000000 1.0
C      1  0.5274610000000  0.4095570000000  0.4834900000000 1.0
C      1  0.4708410000000  0.5400910000000  0.4870600000000 1.0
C      1  0.4473960000000  0.5277000000000  0.4922470000000 1.0
C      1  0.4654320000000  0.5684430000000  0.4141410000000 1.0
C      1  0.4584480000000  0.4125230000000  0.4881890000000 1.0
C      1  0.4524540000000  0.4743740000000  0.4829440000000 1.0
C      1  0.5174600000000  0.4551780000000  0.6086880000000 1.0
C      1  0.5685920000000  0.4312750000000  0.4776600000000 1.0
C      1  0.5793780000000  0.4385430000000  0.5023300000000 1.0
C      1  0.4131270000000  0.5666560000000  0.5178100000000 1.0
C      1  0.5460820000000  0.5782720000000  0.5299270000000 1.0
C      1  0.4699810000000  0.4632490000000  0.6142180000000 1.0
C      1  0.4985400000000  0.3983430000000  0.4295310000000 1.0
C      1  0.5261180000000  0.4843660000000  0.4636070000000 1.0
END
