TITL C-599892-9790-1134 13286.128935629 125000 -722.362127916688 0 0 120 (C1) n - 1
REM
REM in /home/nfs/bkarasulu/CARBON/AIRSS/Generating-Clusters/TERSOFF/Only-C1/FIRE-HFTN
REM
REM
REM
REM
REM
REM ./C.cell (11c1c37f851c82e70ff6c80c92926a4b)
REM AIRSS Version 0.9.1 bugfix July 2018 build 013d7b7c2542+ Fri, 06 Jul 2018 19:26:36 +0100
REM compiler GCC version 9.2.1 20190827 (Red Hat 9.2.1-1)
REM options -cpp -mtune=generic -march=x86-64 -g -O0 -fpre-include=/usr/include/finclude/math-vector-fortran.h
REM seed 156664457 2053943093 -1051421755 -1509622128 1829361773 306710329 -1131772250 1324256985 735371868 -232127562 -383714088 -40011652 995750753 331524668 -1505334269 468200549 -684921827 1505512166 1513330822 1447757873 -1856573839 1447686626 -1814446214 1907173116 -599265856 985846644 -806341020 -524832017 -821951911 1043234859 -1862546193 -1214694452 -1057143202
REM
CELL 1.54180   50.00000   50.00000   50.00000   90.00000   90.00000   90.00000
LATT -1
SFAC C  
C      1  0.5595030000000  0.4309570000000  0.4888180000000 1.0
C      1  0.6026230000000  0.5753060000000  0.4904690000000 1.0
C      1  0.5477210000000  0.4413170000000  0.5837150000000 1.0
C      1  0.4438490000000  0.4765550000000  0.4243200000000 1.0
C      1  0.5323830000000  0.4908400000000  0.4862870000000 1.0
C      1  0.5080410000000  0.5237820000000  0.6165590000000 1.0
C      1  0.5333350000000  0.5959570000000  0.5018250000000 1.0
C      1  0.5008350000000  0.5404850000000  0.5968470000000 1.0
C      1  0.4746710000000  0.5987650000000  0.4997180000000 1.0
C      1  0.5757660000000  0.5382230000000  0.4539930000000 1.0
C      1  0.5101930000000  0.5769520000000  0.4133300000000 1.0
C      1  0.5576290000000  0.5091370000000  0.4173920000000 1.0
C      1  0.5753410000000  0.5738450000000  0.4886460000000 1.0
C      1  0.5905310000000  0.4160500000000  0.5249060000000 1.0
C      1  0.4643710000000  0.4935780000000  0.4130620000000 1.0
C      1  0.4560120000000  0.4954400000000  0.5996760000000 1.0
C      1  0.5291290000000  0.5102330000000  0.4159520000000 1.0
C      1  0.5184510000000  0.4466610000000  0.5396310000000 1.0
C      1  0.5325570000000  0.5176120000000  0.4908540000000 1.0
C      1  0.4448240000000  0.4143310000000  0.5267450000000 1.0
C      1  0.4239280000000  0.4538280000000  0.5543730000000 1.0
C      1  0.4295530000000  0.5707300000000  0.5158120000000 1.0
C      1  0.5187100000000  0.4138740000000  0.4498050000000 1.0
C      1  0.4573560000000  0.4021490000000  0.5055340000000 1.0
C      1  0.5298970000000  0.4305270000000  0.4920240000000 1.0
C      1  0.4959690000000  0.5017790000000  0.5211520000000 1.0
C      1  0.4801780000000  0.4931370000000  0.4994370000000 1.0
C      1  0.5442260000000  0.4185690000000  0.5694070000000 1.0
C      1  0.5239110000000  0.5020200000000  0.6178210000000 1.0
C      1  0.4106130000000  0.5589270000000  0.5367750000000 1.0
C      1  0.4490200000000  0.5401960000000  0.4284090000000 1.0
C      1  0.5482070000000  0.4668280000000  0.5927380000000 1.0
C      1  0.4900770000000  0.5879530000000  0.4768050000000 1.0
C      1  0.5459080000000  0.4943140000000  0.5421300000000 1.0
C      1  0.4727820000000  0.4882130000000  0.4722420000000 1.0
C      1  0.4557700000000  0.4836710000000  0.5133000000000 1.0
C      1  0.4486720000000  0.5095200000000  0.5250910000000 1.0
C      1  0.4215740000000  0.4871670000000  0.4404550000000 1.0
C      1  0.5694660000000  0.4908310000000  0.4593190000000 1.0
C      1  0.5378220000000  0.4011010000000  0.5496850000000 1.0
C      1  0.5137770000000  0.5347810000000  0.5485850000000 1.0
C      1  0.5201940000000  0.5871700000000  0.4777180000000 1.0
C      1  0.5214330000000  0.3879760000000  0.5004280000000 1.0
C      1  0.4991640000000  0.5242720000000  0.4547000000000 1.0
C      1  0.5304810000000  0.5793710000000  0.4306990000000 1.0
C      1  0.5614630000000  0.4846750000000  0.4330350000000 1.0
C      1  0.4759720000000  0.4736520000000  0.5594270000000 1.0
C      1  0.4898820000000  0.4869060000000  0.4257820000000 1.0
C      1  0.3907310000000  0.5115660000000  0.5381110000000 1.0
C      1  0.4944630000000  0.5412500000000  0.5694660000000 1.0
C      1  0.5427850000000  0.4387070000000  0.4436820000000 1.0
C      1  0.4914300000000  0.4383730000000  0.5333040000000 1.0
C      1  0.5383380000000  0.5189650000000  0.5558880000000 1.0
C      1  0.4549600000000  0.4551000000000  0.4422250000000 1.0
C      1  0.4871890000000  0.4990130000000  0.4518090000000 1.0
C      1  0.5628230000000  0.5618170000000  0.4657820000000 1.0
C      1  0.4020560000000  0.4729880000000  0.4850810000000 1.0
C      1  0.4797600000000  0.5404030000000  0.3949580000000 1.0
C      1  0.5173070000000  0.5292180000000  0.4336450000000 1.0
C      1  0.4881540000000  0.5424570000000  0.4734360000000 1.0
C      1  0.4065040000000  0.5348320000000  0.4974570000000 1.0
C      1  0.5653430000000  0.4584210000000  0.4996040000000 1.0
C      1  0.5728350000000  0.4896520000000  0.5321850000000 1.0
C      1  0.4323040000000  0.5472100000000  0.4981810000000 1.0
C      1  0.5047750000000  0.3975820000000  0.4790650000000 1.0
C      1  0.5171890000000  0.4829940000000  0.4186510000000 1.0
C      1  0.4820520000000  0.5394230000000  0.5015330000000 1.0
C      1  0.5007370000000  0.5300410000000  0.5225590000000 1.0
C      1  0.3950180000000  0.5360020000000  0.5239990000000 1.0
C      1  0.4054390000000  0.5036100000000  0.5614880000000 1.0
C      1  0.5939620000000  0.4517610000000  0.4623800000000 1.0
C      1  0.4469130000000  0.5586150000000  0.5692340000000 1.0
C      1  0.5509420000000  0.5168600000000  0.5818220000000 1.0
C      1  0.5586710000000  0.5852310000000  0.5089100000000 1.0
C      1  0.5248500000000  0.4740960000000  0.5443520000000 1.0
C      1  0.4515470000000  0.4649030000000  0.4711850000000 1.0
C      1  0.5065960000000  0.4464830000000  0.4896280000000 1.0
C      1  0.4983610000000  0.4862160000000  0.5448960000000 1.0
C      1  0.3805810000000  0.5111680000000  0.4298410000000 1.0
C      1  0.5388710000000  0.4648410000000  0.4296880000000 1.0
C      1  0.4532090000000  0.4906850000000  0.5702930000000 1.0
C      1  0.4227770000000  0.5344650000000  0.4358550000000 1.0
C      1  0.5914590000000  0.5049140000000  0.5156670000000 1.0
C      1  0.6067620000000  0.4727850000000  0.4768130000000 1.0
C      1  0.4767980000000  0.3983410000000  0.4865250000000 1.0
C      1  0.4908360000000  0.6143950000000  0.5171370000000 1.0
C      1  0.5851020000000  0.5140570000000  0.4673490000000 1.0
C      1  0.4072910000000  0.5109670000000  0.4352280000000 1.0
C      1  0.4855850000000  0.5637740000000  0.4112330000000 1.0
C      1  0.5758230000000  0.4106280000000  0.5026080000000 1.0
C      1  0.5428010000000  0.4942560000000  0.5982200000000 1.0
C      1  0.4786920000000  0.5667580000000  0.4610470000000 1.0
C      1  0.5379700000000  0.5753510000000  0.4575780000000 1.0
C      1  0.4244010000000  0.4812660000000  0.5633670000000 1.0
C      1  0.4542510000000  0.5317480000000  0.5066120000000 1.0
C      1  0.4666320000000  0.5393880000000  0.5630510000000 1.0
C      1  0.5124630000000  0.4724070000000  0.4819250000000 1.0
C      1  0.4232370000000  0.4766890000000  0.4676290000000 1.0
C      1  0.5766400000000  0.4623750000000  0.5251980000000 1.0
C      1  0.4556830000000  0.5150620000000  0.5524720000000 1.0
C      1  0.4712980000000  0.4463670000000  0.5517150000000 1.0
C      1  0.5076290000000  0.4043880000000  0.4271850000000 1.0
C      1  0.4097690000000  0.5286780000000  0.5758000000000 1.0
C      1  0.5699160000000  0.5347040000000  0.5901260000000 1.0
C      1  0.5177600000000  0.6125290000000  0.5184950000000 1.0
C      1  0.5300300000000  0.3902570000000  0.5261070000000 1.0
C      1  0.5676540000000  0.4363690000000  0.4596070000000 1.0
C      1  0.4561970000000  0.4560790000000  0.5005990000000 1.0
C      1  0.4613350000000  0.5220160000000  0.4080390000000 1.0
C      1  0.5905820000000  0.4406920000000  0.5363560000000 1.0
C      1  0.4489250000000  0.5906020000000  0.5096300000000 1.0
C      1  0.6012690000000  0.5009400000000  0.4883940000000 1.0
C      1  0.5667190000000  0.5849020000000  0.5350970000000 1.0
C      1  0.4832310000000  0.4428620000000  0.5058500000000 1.0
C      1  0.4448670000000  0.4358700000000  0.5462340000000 1.0
C      1  0.4676240000000  0.5623370000000  0.4349020000000 1.0
C      1  0.5572960000000  0.4793410000000  0.4819990000000 1.0
C      1  0.3812450000000  0.4652160000000  0.4987060000000 1.0
C      1  0.5713720000000  0.5324450000000  0.4261170000000 1.0
C      1  0.4196110000000  0.5531330000000  0.5637580000000 1.0
END
