TITL C-599891-72-73 0.131073637342424 125000 -1163.38873398344 0 0 190 (C1) n - 1
REM
REM in /home/nfs/bkarasulu/CARBON/AIRSS/Generating-Clusters/TERSOFF/Only-C1/FIRE-HFTN
REM
REM
REM
REM
REM
REM ./C.cell (11c1c37f851c82e70ff6c80c92926a4b)
REM AIRSS Version 0.9.1 bugfix July 2018 build 013d7b7c2542+ Fri, 06 Jul 2018 19:26:36 +0100
REM compiler GCC version 9.2.1 20190827 (Red Hat 9.2.1-1)
REM options -cpp -mtune=generic -march=x86-64 -g -O0 -fpre-include=/usr/include/finclude/math-vector-fortran.h
REM seed -1735371150 -1032546095 1200428299 1821066421 -902590130 -1708509916 -2079922303 869992004 -417702137 -1962828663 -280236602 -1254025289 22758317 1820705377 -826505801 -1645900590 379899731 1729238984 498279436 1062345353 -1846523754 1028465349 -1603484163 -223654182 -249163170 952094027 -1030319443 -1136344327 -1886553659 531204280 -963716699 36309316 255476328
REM
CELL 1.54180   50.00000   50.00000   50.00000   90.00000   90.00000   90.00000
LATT -1
SFAC C  
C      1  0.4596790000000  0.4962850000000  0.6274510000000 1.0
C      1  0.5886100000000  0.4713690000000  0.5671390000000 1.0
C      1  0.5381690000000  0.4946680000000  0.5228840000000 1.0
C      1  0.6301180000000  0.4855080000000  0.4453740000000 1.0
C      1  0.5896840000000  0.4351210000000  0.4367130000000 1.0
C      1  0.5761300000000  0.3632430000000  0.4318320000000 1.0
C      1  0.5556450000000  0.5957180000000  0.4843060000000 1.0
C      1  0.4455440000000  0.4706940000000  0.5330410000000 1.0
C      1  0.4885570000000  0.3826470000000  0.5048450000000 1.0
C      1  0.3909190000000  0.4756960000000  0.3540700000000 1.0
C      1  0.5333810000000  0.5362470000000  0.5928680000000 1.0
C      1  0.6030960000000  0.4807990000000  0.4518760000000 1.0
C      1  0.4912590000000  0.4276290000000  0.6035810000000 1.0
C      1  0.4690490000000  0.5438610000000  0.6203760000000 1.0
C      1  0.4546680000000  0.5222530000000  0.5025560000000 1.0
C      1  0.4792440000000  0.5173050000000  0.6318860000000 1.0
C      1  0.4173410000000  0.4922410000000  0.4687200000000 1.0
C      1  0.4895960000000  0.4102790000000  0.5807690000000 1.0
C      1  0.4706450000000  0.4447210000000  0.6133560000000 1.0
C      1  0.4675210000000  0.6072620000000  0.4564410000000 1.0
C      1  0.5076490000000  0.5327090000000  0.4508140000000 1.0
C      1  0.4350250000000  0.5093140000000  0.6180460000000 1.0
C      1  0.3644330000000  0.5096210000000  0.4343770000000 1.0
C      1  0.5953620000000  0.4653560000000  0.5199500000000 1.0
C      1  0.5107970000000  0.5929380000000  0.5429270000000 1.0
C      1  0.5309680000000  0.4596210000000  0.6100030000000 1.0
C      1  0.3813580000000  0.4387180000000  0.4479970000000 1.0
C      1  0.4298410000000  0.5544890000000  0.4231540000000 1.0
C      1  0.3756420000000  0.4843050000000  0.4254670000000 1.0
C      1  0.5235380000000  0.4595210000000  0.3884980000000 1.0
C      1  0.5351210000000  0.5009080000000  0.4758710000000 1.0
C      1  0.4214730000000  0.5109750000000  0.5447430000000 1.0
C      1  0.4527710000000  0.4156720000000  0.5518790000000 1.0
C      1  0.5845640000000  0.5248520000000  0.5827660000000 1.0
C      1  0.4998110000000  0.4338800000000  0.4450680000000 1.0
C      1  0.5683650000000  0.4988810000000  0.4057420000000 1.0
C      1  0.4099240000000  0.5057270000000  0.5184680000000 1.0
C      1  0.5053160000000  0.5788040000000  0.4405280000000 1.0
C      1  0.6313310000000  0.5677970000000  0.5734860000000 1.0
C      1  0.4364650000000  0.5597550000000  0.5559260000000 1.0
C      1  0.4064990000000  0.4354930000000  0.5612820000000 1.0
C      1  0.3965730000000  0.4552950000000  0.5784370000000 1.0
C      1  0.5106260000000  0.5859200000000  0.5703200000000 1.0
C      1  0.4271950000000  0.5758850000000  0.4416710000000 1.0
C      1  0.4529130000000  0.5911180000000  0.4368930000000 1.0
C      1  0.4706450000000  0.5789280000000  0.4084350000000 1.0
C      1  0.4953250000000  0.5001370000000  0.5065500000000 1.0
C      1  0.4863280000000  0.4734520000000  0.5586530000000 1.0
C      1  0.4922280000000  0.4536590000000  0.4910210000000 1.0
C      1  0.4375030000000  0.4140980000000  0.5061430000000 1.0
C      1  0.6126440000000  0.5441360000000  0.4931010000000 1.0
C      1  0.5028240000000  0.6132260000000  0.5000760000000 1.0
C      1  0.5404690000000  0.4733270000000  0.6315480000000 1.0
C      1  0.4969460000000  0.4269320000000  0.5333940000000 1.0
C      1  0.4278080000000  0.4740800000000  0.4469260000000 1.0
C      1  0.6174370000000  0.5257210000000  0.5141120000000 1.0
C      1  0.5717390000000  0.4710520000000  0.4108110000000 1.0
C      1  0.5621620000000  0.4310820000000  0.5674780000000 1.0
C      1  0.5817430000000  0.5250190000000  0.4062880000000 1.0
C      1  0.4825900000000  0.4536310000000  0.4619930000000 1.0
C      1  0.5487210000000  0.4527190000000  0.4025990000000 1.0
C      1  0.4707840000000  0.3787260000000  0.5274410000000 1.0
C      1  0.5939410000000  0.4938110000000  0.4760420000000 1.0
C      1  0.4960400000000  0.4289240000000  0.5045890000000 1.0
C      1  0.4850380000000  0.6148700000000  0.4766280000000 1.0
C      1  0.4786010000000  0.5203380000000  0.5166460000000 1.0
C      1  0.5206930000000  0.4243960000000  0.4311400000000 1.0
C      1  0.6110110000000  0.4561510000000  0.5770480000000 1.0
C      1  0.5960510000000  0.5363760000000  0.4282420000000 1.0
C      1  0.5452610000000  0.4557690000000  0.4654420000000 1.0
C      1  0.5657660000000  0.5644130000000  0.3787450000000 1.0
C      1  0.4000090000000  0.4323310000000  0.5337170000000 1.0
C      1  0.5525650000000  0.5163620000000  0.5320830000000 1.0
C      1  0.3938250000000  0.6045220000000  0.4998170000000 1.0
C      1  0.4639850000000  0.4686460000000  0.6238650000000 1.0
C      1  0.5738980000000  0.5271730000000  0.5155720000000 1.0
C      1  0.5367610000000  0.4808920000000  0.4560630000000 1.0
C      1  0.6080910000000  0.5112680000000  0.5392950000000 1.0
C      1  0.5003370000000  0.5589360000000  0.4597660000000 1.0
C      1  0.3928540000000  0.5419120000000  0.4612700000000 1.0
C      1  0.4821430000000  0.4073220000000  0.4919430000000 1.0
C      1  0.5076380000000  0.5206280000000  0.6315620000000 1.0
C      1  0.4922930000000  0.6108100000000  0.5289340000000 1.0
C      1  0.4208160000000  0.5497580000000  0.3968770000000 1.0
C      1  0.5300580000000  0.4736810000000  0.5386620000000 1.0
C      1  0.6190110000000  0.4280510000000  0.5376260000000 1.0
C      1  0.5394410000000  0.5375040000000  0.5458170000000 1.0
C      1  0.5109800000000  0.5594060000000  0.5063830000000 1.0
C      1  0.5608860000000  0.5299490000000  0.5944200000000 1.0
C      1  0.4927040000000  0.5825020000000  0.5922720000000 1.0
C      1  0.4981520000000  0.5743520000000  0.4136840000000 1.0
C      1  0.5959940000000  0.4844190000000  0.5414710000000 1.0
C      1  0.5757940000000  0.5556270000000  0.5255860000000 1.0
C      1  0.4204790000000  0.5365900000000  0.5568420000000 1.0
C      1  0.5164880000000  0.3772420000000  0.5035930000000 1.0
C      1  0.3677080000000  0.5331910000000  0.4487380000000 1.0
C      1  0.4815450000000  0.3710040000000  0.5530140000000 1.0
C      1  0.4699610000000  0.4677950000000  0.3900040000000 1.0
C      1  0.5888740000000  0.4633110000000  0.4332960000000 1.0
C      1  0.4975740000000  0.4686540000000  0.3986050000000 1.0
C      1  0.5352050000000  0.5353890000000  0.4090000000000 1.0
C      1  0.5736800000000  0.3890670000000  0.4293330000000 1.0
C      1  0.4856500000000  0.4740990000000  0.5085490000000 1.0
C      1  0.5459030000000  0.4286850000000  0.4189110000000 1.0
C      1  0.4678710000000  0.6187020000000  0.5428250000000 1.0
C      1  0.3682580000000  0.4602540000000  0.4385940000000 1.0
C      1  0.5490670000000  0.5625180000000  0.5346200000000 1.0
C      1  0.5779530000000  0.5132140000000  0.4902210000000 1.0
C      1  0.4561910000000  0.6048670000000  0.5660480000000 1.0
C      1  0.4865570000000  0.5118210000000  0.4521990000000 1.0
C      1  0.4283100000000  0.4632060000000  0.5112150000000 1.0
C      1  0.5400440000000  0.5049590000000  0.4096220000000 1.0
C      1  0.4340250000000  0.5866650000000  0.5644070000000 1.0
C      1  0.5739610000000  0.4201540000000  0.5204150000000 1.0
C      1  0.4311420000000  0.4233130000000  0.5677630000000 1.0
C      1  0.4935710000000  0.5318890000000  0.5622470000000 1.0
C      1  0.5156780000000  0.5420410000000  0.6140380000000 1.0
C      1  0.4537570000000  0.4282870000000  0.3568000000000 1.0
C      1  0.6037160000000  0.5289260000000  0.5622730000000 1.0
C      1  0.4490710000000  0.5126570000000  0.3848440000000 1.0
C      1  0.6006390000000  0.6013540000000  0.5006100000000 1.0
C      1  0.4779270000000  0.5154790000000  0.5788820000000 1.0
C      1  0.4409180000000  0.4913620000000  0.5533090000000 1.0
C      1  0.4542220000000  0.5724360000000  0.5146080000000 1.0
C      1  0.5131900000000  0.5539750000000  0.3999900000000 1.0
C      1  0.4130500000000  0.4949280000000  0.6086620000000 1.0
C      1  0.5362700000000  0.4674920000000  0.5832740000000 1.0
C      1  0.4795960000000  0.5384650000000  0.5385770000000 1.0
C      1  0.5016670000000  0.4797830000000  0.4241170000000 1.0
C      1  0.4713200000000  0.6009220000000  0.5898440000000 1.0
C      1  0.5314290000000  0.6003180000000  0.4997650000000 1.0
C      1  0.6548190000000  0.4911570000000  0.4392900000000 1.0
C      1  0.4737630000000  0.4670720000000  0.5327940000000 1.0
C      1  0.4502770000000  0.5366620000000  0.4312160000000 1.0
C      1  0.5951920000000  0.5607100000000  0.4746590000000 1.0
C      1  0.5278580000000  0.5785970000000  0.5222570000000 1.0
C      1  0.5981390000000  0.5692350000000  0.5374110000000 1.0
C      1  0.4191490000000  0.4359130000000  0.5126880000000 1.0
C      1  0.5014200000000  0.3654860000000  0.5976270000000 1.0
C      1  0.3938210000000  0.4780090000000  0.3798620000000 1.0
C      1  0.4001280000000  0.4758640000000  0.5951310000000 1.0
C      1  0.5337600000000  0.5385300000000  0.4388550000000 1.0
C      1  0.4164890000000  0.4861730000000  0.4976120000000 1.0
C      1  0.4803920000000  0.4217610000000  0.5563810000000 1.0
C      1  0.4546360000000  0.6410790000000  0.5336000000000 1.0
C      1  0.4925820000000  0.5629350000000  0.4856880000000 1.0
C      1  0.4912700000000  0.3815650000000  0.5780520000000 1.0
C      1  0.4489860000000  0.4867330000000  0.3984370000000 1.0
C      1  0.4582890000000  0.5575790000000  0.5379580000000 1.0
C      1  0.4615670000000  0.5635310000000  0.3856080000000 1.0
C      1  0.4101120000000  0.5167850000000  0.4294820000000 1.0
C      1  0.5397050000000  0.3907700000000  0.5001220000000 1.0
C      1  0.3986790000000  0.4807880000000  0.4073220000000 1.0
C      1  0.5561750000000  0.4140490000000  0.4989510000000 1.0
C      1  0.4919000000000  0.5595800000000  0.6096400000000 1.0
C      1  0.6241630000000  0.4370320000000  0.5627900000000 1.0
C      1  0.4309250000000  0.4466190000000  0.4540870000000 1.0
C      1  0.5834250000000  0.5867120000000  0.4832790000000 1.0
C      1  0.4622520000000  0.4472360000000  0.3725430000000 1.0
C      1  0.5618010000000  0.5439400000000  0.3960380000000 1.0
C      1  0.5975840000000  0.4367740000000  0.5206920000000 1.0
C      1  0.4660920000000  0.4919370000000  0.5695990000000 1.0
C      1  0.6065810000000  0.5933030000000  0.5256430000000 1.0
C      1  0.5222100000000  0.5001170000000  0.5003590000000 1.0
C      1  0.4558910000000  0.4160380000000  0.4839890000000 1.0
C      1  0.4087980000000  0.5175370000000  0.4573830000000 1.0
C      1  0.4552860000000  0.4378620000000  0.4648060000000 1.0
C      1  0.4858910000000  0.4822570000000  0.4477700000000 1.0
C      1  0.4609560000000  0.5236750000000  0.4528470000000 1.0
C      1  0.4671270000000  0.5722520000000  0.4915680000000 1.0
C      1  0.5214380000000  0.5351290000000  0.5668540000000 1.0
C      1  0.5568280000000  0.5389600000000  0.4548810000000 1.0
C      1  0.5279120000000  0.4882640000000  0.4295630000000 1.0
C      1  0.5554430000000  0.5196490000000  0.4746270000000 1.0
C      1  0.5512760000000  0.4341850000000  0.4799270000000 1.0
C      1  0.3986090000000  0.5875340000000  0.4806410000000 1.0
C      1  0.4069100000000  0.4318040000000  0.4529080000000 1.0
C      1  0.6119530000000  0.5560420000000  0.5583560000000 1.0
C      1  0.5167250000000  0.4355130000000  0.6126190000000 1.0
C      1  0.4411940000000  0.5375750000000  0.6153200000000 1.0
C      1  0.5643520000000  0.4147580000000  0.5464460000000 1.0
C      1  0.5699910000000  0.4165630000000  0.4283030000000 1.0
C      1  0.4437140000000  0.5407850000000  0.3817520000000 1.0
C      1  0.5153370000000  0.4712460000000  0.5628620000000 1.0
C      1  0.4061170000000  0.5687790000000  0.4612260000000 1.0
C      1  0.4490920000000  0.3991320000000  0.5287090000000 1.0
C      1  0.4265450000000  0.4792500000000  0.4174100000000 1.0
C      1  0.4488300000000  0.5264900000000  0.4773600000000 1.0
C      1  0.5836860000000  0.5483050000000  0.4510760000000 1.0
C      1  0.5625460000000  0.4590450000000  0.5732970000000 1.0
END
