TITL C-599890-3321-898 -523.216902827613 125000 -534.370019292159 0 0 87 (C1) n - 1
REM
REM in /home/nfs/bkarasulu/CARBON/AIRSS/Generating-Clusters/TERSOFF/Only-C1/FIRE-HFTN
REM
REM
REM
REM
REM
REM ./C.cell (11c1c37f851c82e70ff6c80c92926a4b)
REM AIRSS Version 0.9.1 bugfix July 2018 build 013d7b7c2542+ Fri, 06 Jul 2018 19:26:36 +0100
REM compiler GCC version 9.2.1 20190827 (Red Hat 9.2.1-1)
REM options -cpp -mtune=generic -march=x86-64 -g -O0 -fpre-include=/usr/include/finclude/math-vector-fortran.h
REM seed -412060218 622777152 1759541556 1272400944 -1338727221 332405155 -2093907947 -1266801445 1404878306 1406267412 -1068421424 1496204219 380294708 1025053318 -1423678459 526426122 -332267533 -1583754566 1542049655 1987797073 1360329767 1731146611 1674363598 1066322634 -1594739626 302931821 -2038116198 1325149094 -366533748 -665973881 -543166864 -1040575682 -1793415423
REM
CELL 1.54180   50.00000   50.00000   50.00000   90.00000   90.00000   90.00000
LATT -1
SFAC C  
C      1  0.4228450000000  0.4866670000000  0.4883830000000 1.0
C      1  0.5082500000000  0.4248850000000  0.4888420000000 1.0
C      1  0.4973600000000  0.5846220000000  0.4703930000000 1.0
C      1  0.5711510000000  0.4647760000000  0.5425310000000 1.0
C      1  0.4857430000000  0.4985790000000  0.5354750000000 1.0
C      1  0.4925460000000  0.4233830000000  0.5427040000000 1.0
C      1  0.5775230000000  0.5482560000000  0.5034380000000 1.0
C      1  0.4966580000000  0.4637030000000  0.4277860000000 1.0
C      1  0.4624980000000  0.4204910000000  0.4752510000000 1.0
C      1  0.4783670000000  0.4890110000000  0.4637850000000 1.0
C      1  0.4552030000000  0.5017930000000  0.5721040000000 1.0
C      1  0.4271230000000  0.5084240000000  0.5083500000000 1.0
C      1  0.5791110000000  0.5033880000000  0.4786640000000 1.0
C      1  0.5859940000000  0.4870830000000  0.5016000000000 1.0
C      1  0.5183180000000  0.5653270000000  0.4731770000000 1.0
C      1  0.5679250000000  0.5027370000000  0.5746320000000 1.0
C      1  0.5088830000000  0.5495040000000  0.5665260000000 1.0
C      1  0.4465080000000  0.4593080000000  0.3407990000000 1.0
C      1  0.4725380000000  0.5262520000000  0.4253310000000 1.0
C      1  0.4186420000000  0.5086440000000  0.5363660000000 1.0
C      1  0.4461420000000  0.4269230000000  0.5310500000000 1.0
C      1  0.5531390000000  0.4456560000000  0.4999530000000 1.0
C      1  0.5259490000000  0.5187480000000  0.4929690000000 1.0
C      1  0.5685010000000  0.4886250000000  0.4563880000000 1.0
C      1  0.5136380000000  0.4641750000000  0.5472180000000 1.0
C      1  0.4446200000000  0.5232930000000  0.4301580000000 1.0
C      1  0.5503940000000  0.5137690000000  0.5335300000000 1.0
C      1  0.4707400000000  0.5767000000000  0.4648110000000 1.0
C      1  0.4474460000000  0.5644580000000  0.5592830000000 1.0
C      1  0.5113590000000  0.5192130000000  0.4478010000000 1.0
C      1  0.5270360000000  0.4355330000000  0.5086700000000 1.0
C      1  0.5172630000000  0.5432140000000  0.4326110000000 1.0
C      1  0.4780120000000  0.4376000000000  0.5649430000000 1.0
C      1  0.5382220000000  0.5466600000000  0.5637170000000 1.0
C      1  0.4180770000000  0.4612710000000  0.5011330000000 1.0
C      1  0.5598720000000  0.4366050000000  0.4737460000000 1.0
C      1  0.6070650000000  0.4947370000000  0.5460140000000 1.0
C      1  0.4814580000000  0.4165400000000  0.4958170000000 1.0
C      1  0.4926800000000  0.5456600000000  0.4171340000000 1.0
C      1  0.4652740000000  0.4766670000000  0.4165490000000 1.0
C      1  0.5415870000000  0.4291150000000  0.4550390000000 1.0
C      1  0.4663010000000  0.5620260000000  0.5384650000000 1.0
C      1  0.4857650000000  0.5085990000000  0.4444990000000 1.0
C      1  0.4272970000000  0.4403770000000  0.5152430000000 1.0
C      1  0.4898330000000  0.4637300000000  0.5656050000000 1.0
C      1  0.5059100000000  0.5439220000000  0.6148110000000 1.0
C      1  0.5123070000000  0.4881000000000  0.5314200000000 1.0
C      1  0.4586300000000  0.4680530000000  0.4625970000000 1.0
C      1  0.5232740000000  0.4749980000000  0.4313790000000 1.0
C      1  0.5747690000000  0.5329020000000  0.4793210000000 1.0
C      1  0.5272940000000  0.5070260000000  0.4670440000000 1.0
C      1  0.5302790000000  0.5042810000000  0.5171660000000 1.0
C      1  0.4940210000000  0.5407340000000  0.5896490000000 1.0
C      1  0.4744950000000  0.4872370000000  0.5592090000000 1.0
C      1  0.5839660000000  0.4844130000000  0.5593610000000 1.0
C      1  0.4390390000000  0.4954630000000  0.4340950000000 1.0
C      1  0.4593060000000  0.4713190000000  0.3903430000000 1.0
C      1  0.4314490000000  0.5159020000000  0.5608940000000 1.0
C      1  0.4685240000000  0.5294370000000  0.5881760000000 1.0
C      1  0.4926970000000  0.4410510000000  0.4447900000000 1.0
C      1  0.5408000000000  0.4866800000000  0.4516550000000 1.0
C      1  0.5606890000000  0.5468740000000  0.4579700000000 1.0
C      1  0.5347140000000  0.5573180000000  0.4507400000000 1.0
C      1  0.4529510000000  0.4654480000000  0.3653030000000 1.0
C      1  0.4669860000000  0.4417680000000  0.4576300000000 1.0
C      1  0.6073680000000  0.4956010000000  0.5187340000000 1.0
C      1  0.5032080000000  0.6112400000000  0.4732830000000 1.0
C      1  0.5184570000000  0.5469740000000  0.4951680000000 1.0
C      1  0.4726420000000  0.4172700000000  0.5223950000000 1.0
C      1  0.5696220000000  0.4650680000000  0.5135240000000 1.0
C      1  0.5689180000000  0.5619890000000  0.5251210000000 1.0
C      1  0.5508240000000  0.5207640000000  0.5610130000000 1.0
C      1  0.4501820000000  0.4334960000000  0.5590140000000 1.0
C      1  0.4343910000000  0.5458340000000  0.4437250000000 1.0
C      1  0.4478000000000  0.5655310000000  0.4565200000000 1.0
C      1  0.4848730000000  0.4951440000000  0.4896410000000 1.0
C      1  0.5138170000000  0.4291900000000  0.4605540000000 1.0
C      1  0.5096520000000  0.5574360000000  0.5193820000000 1.0
C      1  0.4516910000000  0.5234500000000  0.5078370000000 1.0
C      1  0.4740850000000  0.5070480000000  0.5118810000000 1.0
C      1  0.4553180000000  0.5504770000000  0.5147740000000 1.0
C      1  0.5536750000000  0.5650700000000  0.5475180000000 1.0
C      1  0.4945380000000  0.5583830000000  0.5429040000000 1.0
C      1  0.4377870000000  0.5419300000000  0.5719070000000 1.0
C      1  0.5179380000000  0.5465460000000  0.6377810000000 1.0
C      1  0.5161170000000  0.4384830000000  0.5346130000000 1.0
C      1  0.4341350000000  0.4834260000000  0.4606770000000 1.0
END
