TITL C-599894-471-108 116901.895437156 125000 -1187.25489855597 0 0 191 (C1) n - 1
REM
REM in /home/nfs/bkarasulu/CARBON/AIRSS/Generating-Clusters/TERSOFF/Only-C1/FIRE-HFTN
REM
REM
REM
REM
REM
REM ./C.cell (11c1c37f851c82e70ff6c80c92926a4b)
REM AIRSS Version 0.9.1 bugfix July 2018 build 013d7b7c2542+ Fri, 06 Jul 2018 19:26:36 +0100
REM compiler GCC version 9.2.1 20190827 (Red Hat 9.2.1-1)
REM options -cpp -mtune=generic -march=x86-64 -g -O0 -fpre-include=/usr/include/finclude/math-vector-fortran.h
REM seed -1725022697 161374720 377148714 196467299 1187443658 -817592002 -490638907 -128833024 -1105058439 -392713714 -312418605 946723645 -498750719 832232113 -1328661877 -430077647 -2006565023 -1974291064 1193378204 754308355 506568781 2049018848 779647403 -926225400 -1629840217 -568014015 -2108033501 1157324137 -521827717 -1530853465 -1280475658 -1546080111 -742688246
REM
CELL 1.54180   50.00000   50.00000   50.00000   90.00000   90.00000   90.00000
LATT -1
SFAC C  
C      1  0.5345540000000  0.3864420000000  0.4774300000000 1.0
C      1  0.3906950000000  0.5036630000000  0.5663360000000 1.0
C      1  0.5411490000000  0.4144700000000  0.5144210000000 1.0
C      1  0.5352660000000  0.5969140000000  0.6115240000000 1.0
C      1  0.5140710000000  0.5366550000000  0.5628680000000 1.0
C      1  0.4285260000000  0.4352240000000  0.4059960000000 1.0
C      1  0.4601630000000  0.6225550000000  0.5558840000000 1.0
C      1  0.5597910000000  0.3985640000000  0.4235560000000 1.0
C      1  0.4866580000000  0.3694440000000  0.5273110000000 1.0
C      1  0.4403140000000  0.4648170000000  0.5244950000000 1.0
C      1  0.5337820000000  0.5682660000000  0.4821290000000 1.0
C      1  0.5168030000000  0.4858410000000  0.4428760000000 1.0
C      1  0.5266760000000  0.4367790000000  0.4283550000000 1.0
C      1  0.5157510000000  0.4850480000000  0.5430810000000 1.0
C      1  0.4495930000000  0.5759420000000  0.4046230000000 1.0
C      1  0.5219590000000  0.5776120000000  0.5053110000000 1.0
C      1  0.4709750000000  0.4677310000000  0.3799550000000 1.0
C      1  0.4677760000000  0.5177540000000  0.3712100000000 1.0
C      1  0.5943800000000  0.4568150000000  0.5870580000000 1.0
C      1  0.4759940000000  0.4309810000000  0.5282020000000 1.0
C      1  0.5906760000000  0.4203760000000  0.5054990000000 1.0
C      1  0.4803500000000  0.5176430000000  0.4399090000000 1.0
C      1  0.5240400000000  0.3907100000000  0.5046030000000 1.0
C      1  0.5623210000000  0.4200290000000  0.4941700000000 1.0
C      1  0.5019900000000  0.4412540000000  0.5365140000000 1.0
C      1  0.4529390000000  0.4435820000000  0.5385310000000 1.0
C      1  0.4394450000000  0.4604000000000  0.4957110000000 1.0
C      1  0.6320350000000  0.4793390000000  0.5024710000000 1.0
C      1  0.3795310000000  0.4726260000000  0.5312610000000 1.0
C      1  0.5459040000000  0.4509350000000  0.4535270000000 1.0
C      1  0.6210870000000  0.5238240000000  0.4860140000000 1.0
C      1  0.3962980000000  0.4674630000000  0.4199470000000 1.0
C      1  0.5704920000000  0.4215260000000  0.5517810000000 1.0
C      1  0.4616330000000  0.4712120000000  0.4063640000000 1.0
C      1  0.4433920000000  0.5189520000000  0.3829870000000 1.0
C      1  0.4492020000000  0.4305810000000  0.5889850000000 1.0
C      1  0.4802520000000  0.5669160000000  0.4532910000000 1.0
C      1  0.5079110000000  0.5095660000000  0.4300890000000 1.0
C      1  0.4530370000000  0.5769060000000  0.5510920000000 1.0
C      1  0.3851920000000  0.5133610000000  0.4653400000000 1.0
C      1  0.4795250000000  0.5167240000000  0.5344640000000 1.0
C      1  0.4949000000000  0.4426670000000  0.4377770000000 1.0
C      1  0.4195990000000  0.5099330000000  0.5305210000000 1.0
C      1  0.4446970000000  0.4812700000000  0.4493060000000 1.0
C      1  0.5028420000000  0.4630930000000  0.5549620000000 1.0
C      1  0.5384920000000  0.4601110000000  0.5022190000000 1.0
C      1  0.5177260000000  0.4680320000000  0.3816430000000 1.0
C      1  0.5522030000000  0.4033310000000  0.5396160000000 1.0
C      1  0.4830910000000  0.5192530000000  0.4708750000000 1.0
C      1  0.5475040000000  0.5838090000000  0.4232400000000 1.0
C      1  0.4080910000000  0.5821190000000  0.4415280000000 1.0
C      1  0.4257960000000  0.4428090000000  0.5827240000000 1.0
C      1  0.4492280000000  0.4345120000000  0.4862810000000 1.0
C      1  0.5682280000000  0.5613530000000  0.4218230000000 1.0
C      1  0.6483860000000  0.4942680000000  0.4598690000000 1.0
C      1  0.4087090000000  0.4424820000000  0.4246160000000 1.0
C      1  0.3969120000000  0.5316810000000  0.4457110000000 1.0
C      1  0.4445580000000  0.4296860000000  0.4581570000000 1.0
C      1  0.3893640000000  0.4761010000000  0.5580050000000 1.0
C      1  0.5616930000000  0.3951720000000  0.4767800000000 1.0
C      1  0.5431480000000  0.4790350000000  0.4510380000000 1.0
C      1  0.4384780000000  0.4815740000000  0.4763030000000 1.0
C      1  0.3958410000000  0.4371160000000  0.4709240000000 1.0
C      1  0.3995990000000  0.4937900000000  0.4158350000000 1.0
C      1  0.5837950000000  0.3942330000000  0.4357950000000 1.0
C      1  0.5580540000000  0.5583020000000  0.5905810000000 1.0
C      1  0.4941540000000  0.5122760000000  0.3696510000000 1.0
C      1  0.5326710000000  0.6157490000000  0.5481730000000 1.0
C      1  0.5216490000000  0.5805610000000  0.4095710000000 1.0
C      1  0.5118900000000  0.3822130000000  0.5303140000000 1.0
C      1  0.6264530000000  0.4621070000000  0.5219420000000 1.0
C      1  0.4275220000000  0.5674950000000  0.5423900000000 1.0
C      1  0.3804320000000  0.4767960000000  0.5028670000000 1.0
C      1  0.4092910000000  0.5199340000000  0.4219600000000 1.0
C      1  0.3819390000000  0.4538150000000  0.4865070000000 1.0
C      1  0.4267320000000  0.6009550000000  0.4360780000000 1.0
C      1  0.5346350000000  0.5677290000000  0.5276670000000 1.0
C      1  0.5708120000000  0.5269240000000  0.4512050000000 1.0
C      1  0.4615170000000  0.6260480000000  0.5287840000000 1.0
C      1  0.5283880000000  0.5304540000000  0.4228020000000 1.0
C      1  0.5278630000000  0.3942390000000  0.5533520000000 1.0
C      1  0.5929360000000  0.5619160000000  0.4742530000000 1.0
C      1  0.4361340000000  0.5078160000000  0.4861200000000 1.0
C      1  0.5389350000000  0.4994540000000  0.5494310000000 1.0
C      1  0.4262920000000  0.3653460000000  0.5779750000000 1.0
C      1  0.4652370000000  0.5313190000000  0.5129150000000 1.0
C      1  0.5269920000000  0.4145570000000  0.5758130000000 1.0
C      1  0.5532600000000  0.4801210000000  0.5993540000000 1.0
C      1  0.5796090000000  0.5859690000000  0.4813050000000 1.0
C      1  0.4239170000000  0.5523290000000  0.5873690000000 1.0
C      1  0.5273160000000  0.5431850000000  0.4718140000000 1.0
C      1  0.4156540000000  0.5483330000000  0.5604310000000 1.0
C      1  0.5257550000000  0.4401560000000  0.5196930000000 1.0
C      1  0.5838560000000  0.5192230000000  0.5803570000000 1.0
C      1  0.4367750000000  0.5943490000000  0.5029740000000 1.0
C      1  0.5333420000000  0.4065100000000  0.4316980000000 1.0
C      1  0.5515570000000  0.4439370000000  0.4802480000000 1.0
C      1  0.5145200000000  0.5532230000000  0.4090600000000 1.0
C      1  0.4567290000000  0.5981910000000  0.5700150000000 1.0
C      1  0.5376730000000  0.5273270000000  0.5511690000000 1.0
C      1  0.6030520000000  0.5080150000000  0.5627440000000 1.0
C      1  0.5906650000000  0.6062160000000  0.4956360000000 1.0
C      1  0.4486060000000  0.5593660000000  0.5988830000000 1.0
C      1  0.5835360000000  0.5527090000000  0.4476210000000 1.0
C      1  0.4773540000000  0.6064480000000  0.4284150000000 1.0
C      1  0.4764950000000  0.5631650000000  0.5460350000000 1.0
C      1  0.4609140000000  0.4901410000000  0.4283510000000 1.0
C      1  0.5660660000000  0.4564790000000  0.5878550000000 1.0
C      1  0.4867500000000  0.4778110000000  0.5024810000000 1.0
C      1  0.4795590000000  0.3690320000000  0.4742020000000 1.0
C      1  0.4882150000000  0.5830020000000  0.6082950000000 1.0
C      1  0.5013810000000  0.4172330000000  0.5883060000000 1.0
C      1  0.5611060000000  0.5088450000000  0.5970460000000 1.0
C      1  0.6104370000000  0.5187680000000  0.5386990000000 1.0
C      1  0.5980420000000  0.5411590000000  0.5248180000000 1.0
C      1  0.4777650000000  0.3648790000000  0.5006840000000 1.0
C      1  0.4718860000000  0.4932860000000  0.5783360000000 1.0
C      1  0.4615740000000  0.4999930000000  0.5522640000000 1.0
C      1  0.4540880000000  0.4439430000000  0.4133100000000 1.0
C      1  0.5446680000000  0.5346830000000  0.6038560000000 1.0
C      1  0.4598610000000  0.5225130000000  0.4872370000000 1.0
C      1  0.5043320000000  0.4657160000000  0.6030540000000 1.0
C      1  0.4745900000000  0.4211240000000  0.5906610000000 1.0
C      1  0.4691180000000  0.5399190000000  0.6039730000000 1.0
C      1  0.5789280000000  0.5475240000000  0.5730980000000 1.0
C      1  0.5490250000000  0.5855530000000  0.5896030000000 1.0
C      1  0.5404780000000  0.4885730000000  0.4974780000000 1.0
C      1  0.4495240000000  0.5504250000000  0.4165930000000 1.0
C      1  0.4618340000000  0.5862410000000  0.5958010000000 1.0
C      1  0.5466430000000  0.6011930000000  0.5659810000000 1.0
C      1  0.5923270000000  0.4287570000000  0.5333200000000 1.0
C      1  0.4993090000000  0.4974830000000  0.5215010000000 1.0
C      1  0.5782810000000  0.5514950000000  0.5436480000000 1.0
C      1  0.3953700000000  0.5699290000000  0.5043730000000 1.0
C      1  0.6339890000000  0.4991290000000  0.4826310000000 1.0
C      1  0.5169730000000  0.6076260000000  0.4533420000000 1.0
C      1  0.4726740000000  0.4248160000000  0.5002660000000 1.0
C      1  0.5816190000000  0.5064030000000  0.4349160000000 1.0
C      1  0.5510260000000  0.5476960000000  0.5370840000000 1.0
C      1  0.4051010000000  0.4566630000000  0.5719880000000 1.0
C      1  0.4833980000000  0.6048820000000  0.4889950000000 1.0
C      1  0.5000410000000  0.5999830000000  0.4101150000000 1.0
C      1  0.4897850000000  0.4702960000000  0.5792860000000 1.0
C      1  0.4391040000000  0.4901400000000  0.5377250000000 1.0
C      1  0.4875240000000  0.5975440000000  0.4570030000000 1.0
C      1  0.4506120000000  0.5991750000000  0.4209780000000 1.0
C      1  0.5286940000000  0.4731810000000  0.6115400000000 1.0
C      1  0.4064120000000  0.5227170000000  0.5521890000000 1.0
C      1  0.4137840000000  0.5115620000000  0.5031030000000 1.0
C      1  0.6050860000000  0.4063740000000  0.4839640000000 1.0
C      1  0.5088500000000  0.6003070000000  0.6155000000000 1.0
C      1  0.6124690000000  0.4472880000000  0.5411200000000 1.0
C      1  0.4982130000000  0.4669890000000  0.4531830000000 1.0
C      1  0.4698540000000  0.3643180000000  0.5488860000000 1.0
C      1  0.4663620000000  0.4338800000000  0.4371670000000 1.0
C      1  0.5579420000000  0.4780010000000  0.4037310000000 1.0
C      1  0.4942920000000  0.4618540000000  0.4804020000000 1.0
C      1  0.4488960000000  0.3636010000000  0.5651060000000 1.0
C      1  0.6134090000000  0.4534920000000  0.5684960000000 1.0
C      1  0.5540470000000  0.4927890000000  0.4732190000000 1.0
C      1  0.5558030000000  0.5313450000000  0.4070680000000 1.0
C      1  0.5069560000000  0.6015420000000  0.5061410000000 1.0
C      1  0.4156270000000  0.4334430000000  0.4510980000000 1.0
C      1  0.5020260000000  0.5107600000000  0.6131010000000 1.0
C      1  0.4189740000000  0.5773870000000  0.5171970000000 1.0
C      1  0.4758360000000  0.5121350000000  0.5996700000000 1.0
C      1  0.5198790000000  0.5079070000000  0.5027410000000 1.0
C      1  0.5356870000000  0.4596050000000  0.4019690000000 1.0
C      1  0.4947620000000  0.4338160000000  0.4855990000000 1.0
C      1  0.3866960000000  0.5642170000000  0.4798260000000 1.0
C      1  0.5533320000000  0.5858340000000  0.4712690000000 1.0
C      1  0.4596220000000  0.6108070000000  0.5043350000000 1.0
C      1  0.4901320000000  0.5395130000000  0.5498380000000 1.0
C      1  0.5162440000000  0.6186120000000  0.5269080000000 1.0
C      1  0.3965030000000  0.5594360000000  0.4537240000000 1.0
C      1  0.5538220000000  0.4326300000000  0.5749400000000 1.0
C      1  0.4701400000000  0.5457620000000  0.4355170000000 1.0
C      1  0.5200540000000  0.3902910000000  0.4526780000000 1.0
C      1  0.4940970000000  0.3792530000000  0.4538770000000 1.0
C      1  0.5432950000000  0.5980150000000  0.4481600000000 1.0
C      1  0.4946060000000  0.5548320000000  0.6105470000000 1.0
C      1  0.4941170000000  0.4550400000000  0.3738220000000 1.0
C      1  0.4322880000000  0.5299530000000  0.4069110000000 1.0
C      1  0.6034370000000  0.5440340000000  0.4956400000000 1.0
C      1  0.5420060000000  0.5329670000000  0.4506470000000 1.0
C      1  0.3894610000000  0.5020260000000  0.4913640000000 1.0
C      1  0.5090900000000  0.5249310000000  0.4827750000000 1.0
C      1  0.5152930000000  0.4958420000000  0.3741840000000 1.0
C      1  0.5874290000000  0.3942040000000  0.4637640000000 1.0
C      1  0.5170160000000  0.5356010000000  0.6125910000000 1.0
C      1  0.5683330000000  0.5042110000000  0.4094550000000 1.0
END
