TITL C-599893-4344-1263 0.135993390474151 125000 -886.069270396504 0 0 145 (C1) n - 1
REM
REM in /home/nfs/bkarasulu/CARBON/AIRSS/Generating-Clusters/TERSOFF/Only-C1/FIRE-HFTN
REM
REM
REM
REM
REM
REM ./C.cell (11c1c37f851c82e70ff6c80c92926a4b)
REM AIRSS Version 0.9.1 bugfix July 2018 build 013d7b7c2542+ Fri, 06 Jul 2018 19:26:36 +0100
REM compiler GCC version 9.2.1 20190827 (Red Hat 9.2.1-1)
REM options -cpp -mtune=generic -march=x86-64 -g -O0 -fpre-include=/usr/include/finclude/math-vector-fortran.h
REM seed 1496627555 -837190888 1696046669 -337860658 1516953044 -1147073864 -1686002576 60048920 -7021954 -1469291048 -899636767 -530532442 487435973 927198933 1081238487 1839450127 1251911733 1315324560 1707956248 449131062 -2020442382 -1658822578 672125867 671239213 213391953 -1638533176 -1223561517 1715304603 599419328 -1379110574 2118465836 -1924398175 799098460
REM
CELL 1.54180   50.00000   50.00000   50.00000   90.00000   90.00000   90.00000
LATT -1
SFAC C  
C      1  0.4988510000000  0.5663940000000  0.5994730000000 1.0
C      1  0.5167410000000  0.4317900000000  0.5149740000000 1.0
C      1  0.5078500000000  0.5100090000000  0.5112830000000 1.0
C      1  0.4981410000000  0.3808740000000  0.4854560000000 1.0
C      1  0.4437330000000  0.5476250000000  0.5564200000000 1.0
C      1  0.4897660000000  0.4936290000000  0.5505060000000 1.0
C      1  0.4016850000000  0.4695660000000  0.4780790000000 1.0
C      1  0.5937980000000  0.4716440000000  0.5485880000000 1.0
C      1  0.4947960000000  0.4532220000000  0.4773330000000 1.0
C      1  0.4271530000000  0.4658260000000  0.4659480000000 1.0
C      1  0.5420070000000  0.5187830000000  0.5481280000000 1.0
C      1  0.3818570000000  0.4794680000000  0.6432740000000 1.0
C      1  0.5245830000000  0.5701100000000  0.5891090000000 1.0
C      1  0.5856770000000  0.4030590000000  0.5275850000000 1.0
C      1  0.5696520000000  0.4962880000000  0.5013200000000 1.0
C      1  0.5814340000000  0.4292150000000  0.5357150000000 1.0
C      1  0.5192030000000  0.3878720000000  0.5312380000000 1.0
C      1  0.5366670000000  0.4270060000000  0.5590070000000 1.0
C      1  0.5168110000000  0.6096090000000  0.5290760000000 1.0
C      1  0.4175670000000  0.4145790000000  0.4717870000000 1.0
C      1  0.5226110000000  0.5916000000000  0.4679420000000 1.0
C      1  0.4425790000000  0.4167510000000  0.4576510000000 1.0
C      1  0.4444520000000  0.6219630000000  0.5005830000000 1.0
C      1  0.4959110000000  0.5468280000000  0.4022050000000 1.0
C      1  0.5268620000000  0.4943860000000  0.4529060000000 1.0
C      1  0.4379420000000  0.5264790000000  0.4189240000000 1.0
C      1  0.4091970000000  0.4133230000000  0.5224810000000 1.0
C      1  0.4123340000000  0.4597310000000  0.5285320000000 1.0
C      1  0.5045500000000  0.5350210000000  0.4266570000000 1.0
C      1  0.4490700000000  0.5771630000000  0.4304530000000 1.0
C      1  0.6020930000000  0.4569940000000  0.4983890000000 1.0
C      1  0.5372490000000  0.5233510000000  0.5762860000000 1.0
C      1  0.5708730000000  0.5560030000000  0.5873730000000 1.0
C      1  0.5230860000000  0.4891520000000  0.5028030000000 1.0
C      1  0.5490490000000  0.6001870000000  0.4716400000000 1.0
C      1  0.3591010000000  0.4933020000000  0.4709100000000 1.0
C      1  0.5635170000000  0.4402840000000  0.4389000000000 1.0
C      1  0.4738430000000  0.5956610000000  0.4711930000000 1.0
C      1  0.4995100000000  0.5938050000000  0.4851610000000 1.0
C      1  0.4979750000000  0.5158690000000  0.5366840000000 1.0
C      1  0.4970390000000  0.4816110000000  0.3894070000000 1.0
C      1  0.5971540000000  0.5127230000000  0.4413110000000 1.0
C      1  0.5650860000000  0.4406490000000  0.4676120000000 1.0
C      1  0.3937550000000  0.4337180000000  0.5867610000000 1.0
C      1  0.4767920000000  0.4460380000000  0.4336010000000 1.0
C      1  0.4666920000000  0.5025570000000  0.6165790000000 1.0
C      1  0.5079870000000  0.4836520000000  0.5953250000000 1.0
C      1  0.4958580000000  0.4269730000000  0.4236690000000 1.0
C      1  0.5336980000000  0.4975140000000  0.5899640000000 1.0
C      1  0.4483580000000  0.5082530000000  0.6348690000000 1.0
C      1  0.4726370000000  0.5650110000000  0.5949840000000 1.0
C      1  0.5086570000000  0.5344340000000  0.4965520000000 1.0
C      1  0.4157330000000  0.4297590000000  0.5698920000000 1.0
C      1  0.5502690000000  0.5406690000000  0.4494780000000 1.0
C      1  0.5756900000000  0.5194400000000  0.5169110000000 1.0
C      1  0.4530330000000  0.5092550000000  0.4021070000000 1.0
C      1  0.5089430000000  0.3758600000000  0.5094350000000 1.0
C      1  0.4935830000000  0.5741020000000  0.4021290000000 1.0
C      1  0.4442910000000  0.4843250000000  0.5038910000000 1.0
C      1  0.5655040000000  0.5259330000000  0.4035560000000 1.0
C      1  0.4883610000000  0.5186790000000  0.4441650000000 1.0
C      1  0.6024840000000  0.5446220000000  0.5498160000000 1.0
C      1  0.4448810000000  0.4985710000000  0.5496340000000 1.0
C      1  0.5106810000000  0.4552390000000  0.5947980000000 1.0
C      1  0.4673110000000  0.4917450000000  0.5677420000000 1.0
C      1  0.5410190000000  0.4912990000000  0.5430410000000 1.0
C      1  0.5481880000000  0.4790090000000  0.4952180000000 1.0
C      1  0.4983470000000  0.4046290000000  0.4411960000000 1.0
C      1  0.5451050000000  0.4743610000000  0.4023560000000 1.0
C      1  0.5557550000000  0.4649830000000  0.4273810000000 1.0
C      1  0.5521270000000  0.5442560000000  0.4772490000000 1.0
C      1  0.6165410000000  0.6001280000000  0.4398650000000 1.0
C      1  0.4956100000000  0.5868560000000  0.4276510000000 1.0
C      1  0.4483630000000  0.4631140000000  0.4856850000000 1.0
C      1  0.5273490000000  0.6093340000000  0.5537440000000 1.0
C      1  0.4799140000000  0.4927760000000  0.5941020000000 1.0
C      1  0.4523960000000  0.5599110000000  0.5784350000000 1.0
C      1  0.5886570000000  0.3785220000000  0.5193270000000 1.0
C      1  0.4006370000000  0.5061630000000  0.4477260000000 1.0
C      1  0.5568320000000  0.4795510000000  0.5855190000000 1.0
C      1  0.4803880000000  0.5383060000000  0.4907990000000 1.0
C      1  0.4128510000000  0.4339310000000  0.5423210000000 1.0
C      1  0.4872310000000  0.3990940000000  0.4671590000000 1.0
C      1  0.4653270000000  0.4161630000000  0.4752340000000 1.0
C      1  0.5630590000000  0.4374410000000  0.5565960000000 1.0
C      1  0.4250380000000  0.5067730000000  0.6474810000000 1.0
C      1  0.4490930000000  0.4370520000000  0.4367660000000 1.0
C      1  0.4893010000000  0.4659070000000  0.4515120000000 1.0
C      1  0.4003530000000  0.4530730000000  0.5012580000000 1.0
C      1  0.6094770000000  0.4812560000000  0.4847790000000 1.0
C      1  0.5546640000000  0.5005240000000  0.3962200000000 1.0
C      1  0.5896100000000  0.5607650000000  0.4332740000000 1.0
C      1  0.5189540000000  0.4642830000000  0.3953050000000 1.0
C      1  0.5507880000000  0.4850790000000  0.4464360000000 1.0
C      1  0.4714330000000  0.5897690000000  0.4427400000000 1.0
C      1  0.4313880000000  0.5776260000000  0.4846470000000 1.0
C      1  0.4480640000000  0.5264120000000  0.5385340000000 1.0
C      1  0.4496260000000  0.5989030000000  0.4858960000000 1.0
C      1  0.4712280000000  0.5310350000000  0.4634160000000 1.0
C      1  0.4399290000000  0.4222760000000  0.5802590000000 1.0
C      1  0.5899520000000  0.4381560000000  0.4807170000000 1.0
C      1  0.5178520000000  0.5779270000000  0.4434000000000 1.0
C      1  0.5720070000000  0.4635640000000  0.5671780000000 1.0
C      1  0.5678350000000  0.5451810000000  0.3840850000000 1.0
C      1  0.5693480000000  0.4180440000000  0.4242560000000 1.0
C      1  0.5257680000000  0.5505160000000  0.4387310000000 1.0
C      1  0.3741010000000  0.4601500000000  0.6267330000000 1.0
C      1  0.5747670000000  0.5337650000000  0.4324530000000 1.0
C      1  0.4310050000000  0.4584580000000  0.4393290000000 1.0
C      1  0.4583210000000  0.5293470000000  0.5110390000000 1.0
C      1  0.4407650000000  0.5263750000000  0.4676300000000 1.0
C      1  0.4736810000000  0.4946930000000  0.3926670000000 1.0
C      1  0.5210440000000  0.4347780000000  0.5810600000000 1.0
C      1  0.5510190000000  0.5335550000000  0.5244560000000 1.0
C      1  0.3861530000000  0.4897200000000  0.4657900000000 1.0
C      1  0.5966180000000  0.4525240000000  0.5264370000000 1.0
C      1  0.4991860000000  0.4925700000000  0.4487380000000 1.0
C      1  0.6029310000000  0.5001830000000  0.4663170000000 1.0
C      1  0.3337800000000  0.4963670000000  0.4762560000000 1.0
C      1  0.5925320000000  0.5563480000000  0.5717160000000 1.0
C      1  0.5186560000000  0.4433880000000  0.4894770000000 1.0
C      1  0.4694050000000  0.4430150000000  0.4859770000000 1.0
C      1  0.4007160000000  0.4966060000000  0.6508740000000 1.0
C      1  0.4941300000000  0.5681660000000  0.5293680000000 1.0
C      1  0.5975080000000  0.5212110000000  0.5351860000000 1.0
C      1  0.5737040000000  0.5971260000000  0.4616700000000 1.0
C      1  0.5241540000000  0.4151220000000  0.5363090000000 1.0
C      1  0.5435480000000  0.5489620000000  0.5869990000000 1.0
C      1  0.5447750000000  0.4532430000000  0.4831590000000 1.0
C      1  0.5935520000000  0.5861790000000  0.4448780000000 1.0
C      1  0.3789370000000  0.4439160000000  0.6062670000000 1.0
C      1  0.6145610000000  0.5061020000000  0.4208430000000 1.0
C      1  0.4051940000000  0.4239010000000  0.4958340000000 1.0
C      1  0.4263350000000  0.5169180000000  0.4433450000000 1.0
C      1  0.4278510000000  0.5525470000000  0.4764090000000 1.0
C      1  0.6055160000000  0.4968000000000  0.5465450000000 1.0
C      1  0.4331290000000  0.4798300000000  0.5301200000000 1.0
C      1  0.5021770000000  0.5908210000000  0.5138540000000 1.0
C      1  0.4954830000000  0.5440180000000  0.5416840000000 1.0
C      1  0.4411540000000  0.6432390000000  0.5152660000000 1.0
C      1  0.4402720000000  0.5548760000000  0.4180180000000 1.0
C      1  0.5299700000000  0.5943670000000  0.5757190000000 1.0
C      1  0.4429950000000  0.5106550000000  0.4939770000000 1.0
C      1  0.5122980000000  0.4375860000000  0.4033270000000 1.0
C      1  0.5364240000000  0.5428710000000  0.5006260000000 1.0
END
