TITL C-599891-72-540 7.286710555175e-05 125000 -348.289484196775 0 0 57 (C1) n - 1
REM
REM in /home/nfs/bkarasulu/CARBON/AIRSS/Generating-Clusters/TERSOFF/Only-C1/FIRE-HFTN
REM
REM
REM
REM
REM
REM ./C.cell (11c1c37f851c82e70ff6c80c92926a4b)
REM AIRSS Version 0.9.1 bugfix July 2018 build 013d7b7c2542+ Fri, 06 Jul 2018 19:26:36 +0100
REM compiler GCC version 9.2.1 20190827 (Red Hat 9.2.1-1)
REM options -cpp -mtune=generic -march=x86-64 -g -O0 -fpre-include=/usr/include/finclude/math-vector-fortran.h
REM seed 892937314 454332881 -32344745 1865297696 1955658733 -619726826 923861613 891345040 1115674138 -1664723686 -1162612533 -483600559 -700919274 -1198822305 -775327993 369743899 -185095211 -1823229130 -1601048778 -735828788 -1850542347 -1168179066 -1297093197 252802470 -421289005 -1418213888 -1466386221 -1958213635 -513581381 -2019697484 1927121374 1011067641 212670729
REM
CELL 1.54180   50.00000   50.00000   50.00000   90.00000   90.00000   90.00000
LATT -1
SFAC C  
C      1  0.5515690000000  0.4719690000000  0.5667710000000 1.0
C      1  0.4576670000000  0.5095830000000  0.5334940000000 1.0
C      1  0.5288300000000  0.5578140000000  0.5670380000000 1.0
C      1  0.5731800000000  0.5373550000000  0.5644880000000 1.0
C      1  0.4653970000000  0.5733940000000  0.5007880000000 1.0
C      1  0.5112890000000  0.5595770000000  0.4506460000000 1.0
C      1  0.5403910000000  0.4889110000000  0.5842760000000 1.0
C      1  0.4926530000000  0.5648280000000  0.5007240000000 1.0
C      1  0.5046620000000  0.5206830000000  0.4173600000000 1.0
C      1  0.4651380000000  0.4647790000000  0.5172180000000 1.0
C      1  0.5601480000000  0.4573910000000  0.5209130000000 1.0
C      1  0.4498110000000  0.5302190000000  0.4640460000000 1.0
C      1  0.4958080000000  0.4957660000000  0.4270890000000 1.0
C      1  0.4621970000000  0.5245800000000  0.5100290000000 1.0
C      1  0.4801870000000  0.4406440000000  0.5160530000000 1.0
C      1  0.4406200000000  0.5679420000000  0.4910560000000 1.0
C      1  0.5811940000000  0.4963300000000  0.4520000000000 1.0
C      1  0.4826410000000  0.4964450000000  0.4712190000000 1.0
C      1  0.4077120000000  0.5288120000000  0.4826940000000 1.0
C      1  0.4236730000000  0.4906500000000  0.4555840000000 1.0
C      1  0.4280930000000  0.4625080000000  0.4552230000000 1.0
C      1  0.5877970000000  0.5192110000000  0.5511510000000 1.0
C      1  0.5630000000000  0.4292600000000  0.5199180000000 1.0
C      1  0.5411670000000  0.5221120000000  0.5071170000000 1.0
C      1  0.5157480000000  0.5232950000000  0.5189510000000 1.0
C      1  0.5060000000000  0.4793110000000  0.4700730000000 1.0
C      1  0.5789800000000  0.5128020000000  0.4728570000000 1.0
C      1  0.5385740000000  0.5152880000000  0.5888220000000 1.0
C      1  0.4717700000000  0.4189260000000  0.5305040000000 1.0
C      1  0.4113950000000  0.5002490000000  0.4807320000000 1.0
C      1  0.5198640000000  0.4158670000000  0.5015560000000 1.0
C      1  0.5104970000000  0.5442770000000  0.4287620000000 1.0
C      1  0.4184040000000  0.4848160000000  0.5044810000000 1.0
C      1  0.5061790000000  0.5663700000000  0.4759410000000 1.0
C      1  0.5422060000000  0.4679290000000  0.5016800000000 1.0
C      1  0.4713810000000  0.4962950000000  0.4427030000000 1.0
C      1  0.4764860000000  0.4879890000000  0.5306240000000 1.0
C      1  0.4297340000000  0.5460480000000  0.4766790000000 1.0
C      1  0.5406400000000  0.4732420000000  0.4337550000000 1.0
C      1  0.4321990000000  0.5067700000000  0.5447040000000 1.0
C      1  0.5630070000000  0.5220470000000  0.4920190000000 1.0
C      1  0.5662170000000  0.4801850000000  0.4368930000000 1.0
C      1  0.5474360000000  0.5388770000000  0.5760580000000 1.0
C      1  0.5448160000000  0.4114640000000  0.5108160000000 1.0
C      1  0.5050440000000  0.5501810000000  0.5222850000000 1.0
C      1  0.4379770000000  0.4504750000000  0.4776080000000 1.0
C      1  0.5027190000000  0.4993760000000  0.5281010000000 1.0
C      1  0.4127350000000  0.4945730000000  0.5303700000000 1.0
C      1  0.5149570000000  0.4796840000000  0.4421860000000 1.0
C      1  0.4448650000000  0.5076750000000  0.4457670000000 1.0
C      1  0.5675190000000  0.4727390000000  0.5434360000000 1.0
C      1  0.5119630000000  0.5623360000000  0.5467310000000 1.0
C      1  0.4401100000000  0.4652530000000  0.5019840000000 1.0
C      1  0.5038350000000  0.4392450000000  0.5003210000000 1.0
C      1  0.5168660000000  0.4628160000000  0.4901150000000 1.0
C      1  0.5860990000000  0.4939250000000  0.5422850000000 1.0
C      1  0.4689560000000  0.5189130000000  0.4833050000000 1.0
END
