TITL C-599893-4344-1132 7.76342375784365e-05 125000 -614.2269998849 0 0 100 (C1) n - 1
REM
REM in /home/nfs/bkarasulu/CARBON/AIRSS/Generating-Clusters/TERSOFF/Only-C1/FIRE-HFTN
REM
REM
REM
REM
REM
REM ./C.cell (11c1c37f851c82e70ff6c80c92926a4b)
REM AIRSS Version 0.9.1 bugfix July 2018 build 013d7b7c2542+ Fri, 06 Jul 2018 19:26:36 +0100
REM compiler GCC version 9.2.1 20190827 (Red Hat 9.2.1-1)
REM options -cpp -mtune=generic -march=x86-64 -g -O0 -fpre-include=/usr/include/finclude/math-vector-fortran.h
REM seed -1441331616 113365520 -437775517 -1674274184 -2092255432 372055585 1227108332 95878411 -427525700 -89153785 -1352592277 -383309188 -1735205831 -1620812179 2067799414 -519130067 1244609209 -1950842295 835015346 788361589 304624780 1614856481 -671838275 531326962 -705608934 -348142595 -434250046 2142656943 -1753038032 -1925351233 -1756384475 -418046641 1836790862
REM
CELL 1.54180   50.00000   50.00000   50.00000   90.00000   90.00000   90.00000
LATT -1
SFAC C  
C      1  0.4474060000000  0.5342530000000  0.5865510000000 1.0
C      1  0.4989760000000  0.5671260000000  0.5709780000000 1.0
C      1  0.4900490000000  0.6307540000000  0.4314570000000 1.0
C      1  0.5481830000000  0.4673110000000  0.4900270000000 1.0
C      1  0.4595280000000  0.5645220000000  0.5444220000000 1.0
C      1  0.5622920000000  0.4630970000000  0.3682390000000 1.0
C      1  0.5122160000000  0.5389340000000  0.4547040000000 1.0
C      1  0.5255800000000  0.3598620000000  0.5547360000000 1.0
C      1  0.3946130000000  0.5284800000000  0.5283720000000 1.0
C      1  0.4067900000000  0.5521500000000  0.5241280000000 1.0
C      1  0.5591850000000  0.5420260000000  0.4522370000000 1.0
C      1  0.5160450000000  0.5505780000000  0.5858840000000 1.0
C      1  0.5170920000000  0.4937780000000  0.5751980000000 1.0
C      1  0.4925710000000  0.5291820000000  0.5077600000000 1.0
C      1  0.4326200000000  0.4567150000000  0.5255040000000 1.0
C      1  0.5674570000000  0.4593050000000  0.5322360000000 1.0
C      1  0.5436320000000  0.4746400000000  0.3844320000000 1.0
C      1  0.4289450000000  0.5586910000000  0.5079960000000 1.0
C      1  0.5222550000000  0.4380030000000  0.5123850000000 1.0
C      1  0.4963490000000  0.5315820000000  0.5368700000000 1.0
C      1  0.4836530000000  0.4861460000000  0.5178330000000 1.0
C      1  0.5118730000000  0.5303940000000  0.4852450000000 1.0
C      1  0.4724090000000  0.5224240000000  0.5958660000000 1.0
C      1  0.5698900000000  0.4811130000000  0.4253090000000 1.0
C      1  0.5483530000000  0.5637470000000  0.4952120000000 1.0
C      1  0.5295390000000  0.4135040000000  0.5529370000000 1.0
C      1  0.5510950000000  0.4570420000000  0.4637060000000 1.0
C      1  0.4528440000000  0.5713640000000  0.5182500000000 1.0
C      1  0.5189580000000  0.5687750000000  0.4575390000000 1.0
C      1  0.5794760000000  0.5238240000000  0.4611880000000 1.0
C      1  0.4924680000000  0.6083590000000  0.4445600000000 1.0
C      1  0.5467830000000  0.5660870000000  0.4666890000000 1.0
C      1  0.4519190000000  0.4084220000000  0.5128030000000 1.0
C      1  0.3991350000000  0.5040500000000  0.5179230000000 1.0
C      1  0.5091220000000  0.4188720000000  0.4615810000000 1.0
C      1  0.4872460000000  0.4589520000000  0.4728850000000 1.0
C      1  0.5506670000000  0.4905330000000  0.4072810000000 1.0
C      1  0.4826140000000  0.4838200000000  0.4615410000000 1.0
C      1  0.4690530000000  0.4835120000000  0.3957270000000 1.0
C      1  0.5709960000000  0.4756240000000  0.4527840000000 1.0
C      1  0.5862240000000  0.4926490000000  0.5002110000000 1.0
C      1  0.4874260000000  0.5347900000000  0.4398270000000 1.0
C      1  0.5162930000000  0.5069680000000  0.6003230000000 1.0
C      1  0.4658120000000  0.4407290000000  0.4700660000000 1.0
C      1  0.5363180000000  0.5175940000000  0.4929050000000 1.0
C      1  0.4764320000000  0.5789460000000  0.5028980000000 1.0
C      1  0.5763580000000  0.4874850000000  0.5281730000000 1.0
C      1  0.4893920000000  0.5317150000000  0.4123840000000 1.0
C      1  0.5553170000000  0.5362030000000  0.5024360000000 1.0
C      1  0.4765100000000  0.4313300000000  0.5698210000000 1.0
C      1  0.4462560000000  0.4878320000000  0.4091220000000 1.0
C      1  0.5279070000000  0.3858090000000  0.5541280000000 1.0
C      1  0.4291760000000  0.4973840000000  0.4273860000000 1.0
C      1  0.5047510000000  0.4537280000000  0.4952050000000 1.0
C      1  0.4317290000000  0.5439000000000  0.4836720000000 1.0
C      1  0.4284350000000  0.4687020000000  0.4988660000000 1.0
C      1  0.5157940000000  0.4721900000000  0.3796920000000 1.0
C      1  0.4667640000000  0.5292440000000  0.4571110000000 1.0
C      1  0.5331170000000  0.5117860000000  0.4154510000000 1.0
C      1  0.5683680000000  0.5114180000000  0.5446010000000 1.0
C      1  0.4961600000000  0.4889990000000  0.3906930000000 1.0
C      1  0.4164180000000  0.4953810000000  0.4970980000000 1.0
C      1  0.5366530000000  0.5285760000000  0.4386030000000 1.0
C      1  0.5409360000000  0.5446670000000  0.5712030000000 1.0
C      1  0.5818820000000  0.4966480000000  0.4712450000000 1.0
C      1  0.4753130000000  0.4676610000000  0.5377600000000 1.0
C      1  0.5492510000000  0.4287150000000  0.5672490000000 1.0
C      1  0.5320380000000  0.4350160000000  0.4571700000000 1.0
C      1  0.4733700000000  0.5740210000000  0.4748080000000 1.0
C      1  0.4325820000000  0.5166950000000  0.5704190000000 1.0
C      1  0.5617000000000  0.5351660000000  0.5295130000000 1.0
C      1  0.5316210000000  0.5721520000000  0.5193410000000 1.0
C      1  0.5071620000000  0.5124790000000  0.4026000000000 1.0
C      1  0.5587010000000  0.5201300000000  0.5712130000000 1.0
C      1  0.5082870000000  0.5096470000000  0.5524460000000 1.0
C      1  0.5115670000000  0.4295420000000  0.5370770000000 1.0
C      1  0.4214200000000  0.5164540000000  0.4772640000000 1.0
C      1  0.4405990000000  0.4525210000000  0.4777570000000 1.0
C      1  0.4806510000000  0.4154050000000  0.4717390000000 1.0
C      1  0.4198770000000  0.5083630000000  0.4499850000000 1.0
C      1  0.4881690000000  0.4431490000000  0.5476250000000 1.0
C      1  0.5442770000000  0.5558270000000  0.5431290000000 1.0
C      1  0.5331790000000  0.4904740000000  0.4968170000000 1.0
C      1  0.5003930000000  0.5301470000000  0.6001230000000 1.0
C      1  0.4452550000000  0.4905210000000  0.5674600000000 1.0
C      1  0.4735600000000  0.5082300000000  0.5017610000000 1.0
C      1  0.5087340000000  0.4802070000000  0.5065330000000 1.0
C      1  0.4373940000000  0.4282330000000  0.5243780000000 1.0
C      1  0.5239310000000  0.4673490000000  0.5782720000000 1.0
C      1  0.4950270000000  0.5844450000000  0.4585380000000 1.0
C      1  0.4844580000000  0.5540370000000  0.5508340000000 1.0
C      1  0.5376230000000  0.4458710000000  0.5861220000000 1.0
C      1  0.4696050000000  0.4005850000000  0.4935510000000 1.0
C      1  0.4672520000000  0.4935960000000  0.5876070000000 1.0
C      1  0.5040590000000  0.5810130000000  0.5138590000000 1.0
C      1  0.4476620000000  0.4718970000000  0.5457760000000 1.0
C      1  0.4698960000000  0.5058810000000  0.4732340000000 1.0
C      1  0.5708680000000  0.4409200000000  0.5533480000000 1.0
C      1  0.5493810000000  0.4494680000000  0.5119780000000 1.0
C      1  0.4548350000000  0.5519560000000  0.4686200000000 1.0
END
