TITL C-599897-7526-1310 67.2042089964732 125000 -362.960826114457 0 0 63 (C1) n - 1
REM
REM in /home/nfs/bkarasulu/CARBON/AIRSS/Generating-Clusters/TERSOFF/Only-C1/FIRE-HFTN
REM
REM
REM
REM
REM
REM ./C.cell (11c1c37f851c82e70ff6c80c92926a4b)
REM AIRSS Version 0.9.1 bugfix July 2018 build 013d7b7c2542+ Fri, 06 Jul 2018 19:26:36 +0100
REM compiler GCC version 9.2.1 20190827 (Red Hat 9.2.1-1)
REM options -cpp -mtune=generic -march=x86-64 -g -O0 -fpre-include=/usr/include/finclude/math-vector-fortran.h
REM seed -61793303 -1036931005 -2123896664 93400609 -285681983 -1429444759 804693819 1883103876 -18982254 -1676019354 1898415853 67954924 -577089927 2056478208 -1940078374 448629183 -417720811 -1056631337 -1760161385 784583570 -870528732 502402897 -2100942180 1428181848 282991315 -1299897042 -1647549291 855239847 -262763321 -1320391174 -1926771163 1515346574 807964146
REM
CELL 1.54180   50.00000   50.00000   50.00000   90.00000   90.00000   90.00000
LATT -1
SFAC C  
C      1  0.5309110000000  0.4920890000000  0.4498250000000 1.0
C      1  0.4825200000000  0.4737640000000  0.5548260000000 1.0
C      1  0.5198810000000  0.5388300000000  0.5725670000000 1.0
C      1  0.5568330000000  0.5275690000000  0.5301690000000 1.0
C      1  0.4926930000000  0.5579310000000  0.3985540000000 1.0
C      1  0.4840160000000  0.4418590000000  0.4887880000000 1.0
C      1  0.4628280000000  0.4059430000000  0.4286400000000 1.0
C      1  0.5030490000000  0.5542340000000  0.4221880000000 1.0
C      1  0.4688440000000  0.5050320000000  0.5228730000000 1.0
C      1  0.5096090000000  0.5321360000000  0.5204810000000 1.0
C      1  0.5354410000000  0.4590510000000  0.5958830000000 1.0
C      1  0.4470910000000  0.5722570000000  0.4903440000000 1.0
C      1  0.5388890000000  0.4475580000000  0.5487450000000 1.0
C      1  0.4554870000000  0.3860290000000  0.4127740000000 1.0
C      1  0.5280030000000  0.4633310000000  0.5698820000000 1.0
C      1  0.4852920000000  0.5905450000000  0.5230490000000 1.0
C      1  0.4796180000000  0.4620940000000  0.5076880000000 1.0
C      1  0.4242860000000  0.5134350000000  0.4864300000000 1.0
C      1  0.4634870000000  0.5503240000000  0.5280310000000 1.0
C      1  0.4610770000000  0.5755900000000  0.5162600000000 1.0
C      1  0.4481530000000  0.3661070000000  0.3969020000000 1.0
C      1  0.5136580000000  0.5858580000000  0.5151300000000 1.0
C      1  0.4841850000000  0.4897200000000  0.5029660000000 1.0
C      1  0.5340480000000  0.5616850000000  0.5585770000000 1.0
C      1  0.5124930000000  0.5500630000000  0.4465980000000 1.0
C      1  0.5348930000000  0.4198810000000  0.5490930000000 1.0
C      1  0.4409430000000  0.3465120000000  0.3812910000000 1.0
C      1  0.5089740000000  0.5291870000000  0.4918090000000 1.0
C      1  0.4795680000000  0.4733910000000  0.4504590000000 1.0
C      1  0.5645900000000  0.5493490000000  0.4891030000000 1.0
C      1  0.4780220000000  0.4468030000000  0.4612240000000 1.0
C      1  0.4275440000000  0.5481980000000  0.4871150000000 1.0
C      1  0.4702120000000  0.4258070000000  0.4445270000000 1.0
C      1  0.4655400000000  0.5272810000000  0.4846280000000 1.0
C      1  0.5360320000000  0.5710780000000  0.5296570000000 1.0
C      1  0.5533100000000  0.4591040000000  0.5276460000000 1.0
C      1  0.5091500000000  0.4841550000000  0.5634740000000 1.0
C      1  0.4943930000000  0.4177260000000  0.4964930000000 1.0
C      1  0.5644680000000  0.4862670000000  0.4841370000000 1.0
C      1  0.5304640000000  0.3937900000000  0.5503000000000 1.0
C      1  0.4552080000000  0.4884270000000  0.4503640000000 1.0
C      1  0.4637430000000  0.5834810000000  0.4697540000000 1.0
C      1  0.4568090000000  0.5284270000000  0.5126170000000 1.0
C      1  0.4888160000000  0.5442850000000  0.5386040000000 1.0
C      1  0.5506090000000  0.5320630000000  0.4711520000000 1.0
C      1  0.4242360000000  0.4941860000000  0.5095790000000 1.0
C      1  0.5220340000000  0.5108490000000  0.5611320000000 1.0
C      1  0.5057120000000  0.4835610000000  0.4449040000000 1.0
C      1  0.4891310000000  0.5106310000000  0.4838900000000 1.0
C      1  0.4344250000000  0.5012080000000  0.4622450000000 1.0
C      1  0.6019070000000  0.5067060000000  0.5507760000000 1.0
C      1  0.5520450000000  0.5035440000000  0.4658010000000 1.0
C      1  0.5627370000000  0.4703290000000  0.5054360000000 1.0
C      1  0.5559980000000  0.5530560000000  0.5161130000000 1.0
C      1  0.5122660000000  0.5907890000000  0.4865240000000 1.0
C      1  0.4371750000000  0.4753220000000  0.5260940000000 1.0
C      1  0.4924870000000  0.5452420000000  0.5665800000000 1.0
C      1  0.5305860000000  0.5175170000000  0.5343000000000 1.0
C      1  0.5802410000000  0.5165000000000  0.5401110000000 1.0
C      1  0.5256170000000  0.3681870000000  0.5510930000000 1.0
C      1  0.4900570000000  0.5908000000000  0.4704770000000 1.0
C      1  0.5233490000000  0.5400640000000  0.4701640000000 1.0
C      1  0.4643200000000  0.4632620000000  0.5331630000000 1.0
END
