TITL C-599897-7526-1164 0.0121819967757613 125000 -481.503108563721 0 0 81 (C1) n - 1
REM
REM in /home/nfs/bkarasulu/CARBON/AIRSS/Generating-Clusters/TERSOFF/Only-C1/FIRE-HFTN
REM
REM
REM
REM
REM
REM ./C.cell (11c1c37f851c82e70ff6c80c92926a4b)
REM AIRSS Version 0.9.1 bugfix July 2018 build 013d7b7c2542+ Fri, 06 Jul 2018 19:26:36 +0100
REM compiler GCC version 9.2.1 20190827 (Red Hat 9.2.1-1)
REM options -cpp -mtune=generic -march=x86-64 -g -O0 -fpre-include=/usr/include/finclude/math-vector-fortran.h
REM seed -2103187690 1838129893 -1504862689 797148699 1678422810 484692630 1199339561 96503642 -966779095 -1803168260 -107519727 1128229525 -1263306630 -1285148220 2107821204 1810646297 -1641197381 -1047666977 676561702 1299814862 728004119 618862458 1286750450 652303853 -574056205 392649394 217319062 1339385294 512372738 949813397 -580314795 1131738140 1628156278
REM
CELL 1.54180   50.00000   50.00000   50.00000   90.00000   90.00000   90.00000
LATT -1
SFAC C  
C      1  0.4785410000000  0.5549000000000  0.5541360000000 1.0
C      1  0.4873950000000  0.4615620000000  0.4306310000000 1.0
C      1  0.5548840000000  0.5647810000000  0.4953690000000 1.0
C      1  0.4869490000000  0.5652930000000  0.4868720000000 1.0
C      1  0.4710980000000  0.4398640000000  0.5601040000000 1.0
C      1  0.5098120000000  0.4803090000000  0.4298610000000 1.0
C      1  0.5240690000000  0.4407810000000  0.5603470000000 1.0
C      1  0.4271680000000  0.4937810000000  0.5486880000000 1.0
C      1  0.4610930000000  0.5417110000000  0.4252090000000 1.0
C      1  0.4803450000000  0.5813230000000  0.5597570000000 1.0
C      1  0.4546950000000  0.4309380000000  0.5153540000000 1.0
C      1  0.5241730000000  0.5243420000000  0.5446620000000 1.0
C      1  0.5007690000000  0.5124850000000  0.5569110000000 1.0
C      1  0.5666450000000  0.4952910000000  0.4909830000000 1.0
C      1  0.5060790000000  0.5794840000000  0.5030640000000 1.0
C      1  0.5137850000000  0.4804750000000  0.4732460000000 1.0
C      1  0.5240040000000  0.4095750000000  0.5170920000000 1.0
C      1  0.4869530000000  0.4924910000000  0.5428810000000 1.0
C      1  0.5711170000000  0.4749240000000  0.4716630000000 1.0
C      1  0.4249690000000  0.5023140000000  0.4353560000000 1.0
C      1  0.5664300000000  0.5337790000000  0.5684810000000 1.0
C      1  0.4737730000000  0.5443490000000  0.5297370000000 1.0
C      1  0.5275470000000  0.5306060000000  0.4256830000000 1.0
C      1  0.4012020000000  0.4915530000000  0.4759630000000 1.0
C      1  0.5740730000000  0.5227110000000  0.4831370000000 1.0
C      1  0.5131600000000  0.5096120000000  0.4387860000000 1.0
C      1  0.4477100000000  0.4604860000000  0.4587410000000 1.0
C      1  0.4451600000000  0.4686450000000  0.4872460000000 1.0
C      1  0.4927020000000  0.4751590000000  0.5214180000000 1.0
C      1  0.4450920000000  0.5931550000000  0.5315350000000 1.0
C      1  0.4717280000000  0.4468860000000  0.4509710000000 1.0
C      1  0.5950060000000  0.5478370000000  0.5215320000000 1.0
C      1  0.4365290000000  0.4766140000000  0.4382100000000 1.0
C      1  0.4514250000000  0.4451950000000  0.5402970000000 1.0
C      1  0.5809360000000  0.5504390000000  0.5823220000000 1.0
C      1  0.5625860000000  0.4967310000000  0.4298360000000 1.0
C      1  0.5677410000000  0.3960120000000  0.4983970000000 1.0
C      1  0.4246850000000  0.4888630000000  0.4918560000000 1.0
C      1  0.4280000000000  0.5723040000000  0.5357430000000 1.0
C      1  0.5651100000000  0.5365790000000  0.4574370000000 1.0
C      1  0.4967810000000  0.4398940000000  0.5677300000000 1.0
C      1  0.4737820000000  0.5083370000000  0.4710200000000 1.0
C      1  0.5196840000000  0.5096780000000  0.4687460000000 1.0
C      1  0.5321480000000  0.4218790000000  0.5409640000000 1.0
C      1  0.4861540000000  0.4835520000000  0.4779920000000 1.0
C      1  0.4725880000000  0.4716100000000  0.4999290000000 1.0
C      1  0.5243830000000  0.5362850000000  0.5178690000000 1.0
C      1  0.5266220000000  0.5174430000000  0.4962700000000 1.0
C      1  0.4953480000000  0.5166330000000  0.5840520000000 1.0
C      1  0.4355950000000  0.5140680000000  0.4985300000000 1.0
C      1  0.5410980000000  0.4031880000000  0.4951500000000 1.0
C      1  0.4844530000000  0.5559950000000  0.4331750000000 1.0
C      1  0.4348850000000  0.4681930000000  0.5444040000000 1.0
C      1  0.5560240000000  0.5629070000000  0.4663650000000 1.0
C      1  0.4215600000000  0.5469720000000  0.5429320000000 1.0
C      1  0.5754230000000  0.5445880000000  0.5029680000000 1.0
C      1  0.4750520000000  0.4212700000000  0.4973950000000 1.0
C      1  0.5559370000000  0.4748840000000  0.4475720000000 1.0
C      1  0.5553800000000  0.5245240000000  0.4333170000000 1.0
C      1  0.4225650000000  0.5204530000000  0.5483280000000 1.0
C      1  0.5218020000000  0.4740190000000  0.5159310000000 1.0
C      1  0.5287470000000  0.4048040000000  0.4697900000000 1.0
C      1  0.5099960000000  0.5520910000000  0.4205060000000 1.0
C      1  0.5928720000000  0.3900160000000  0.5018070000000 1.0
C      1  0.4847890000000  0.5675100000000  0.4590240000000 1.0
C      1  0.5403660000000  0.4629260000000  0.5666320000000 1.0
C      1  0.4406320000000  0.5241930000000  0.4264720000000 1.0
C      1  0.5296030000000  0.5635650000000  0.5090620000000 1.0
C      1  0.4727210000000  0.5979850000000  0.5379050000000 1.0
C      1  0.4016730000000  0.5041240000000  0.4516570000000 1.0
C      1  0.4720220000000  0.5459170000000  0.5015970000000 1.0
C      1  0.5412710000000  0.4929980000000  0.5056590000000 1.0
C      1  0.5497030000000  0.4879380000000  0.5643640000000 1.0
C      1  0.5481930000000  0.5155580000000  0.5579890000000 1.0
C      1  0.5278390000000  0.4687810000000  0.4505310000000 1.0
C      1  0.4815000000000  0.4261960000000  0.4687790000000 1.0
C      1  0.4963820000000  0.4085370000000  0.5114320000000 1.0
C      1  0.4937590000000  0.6001420000000  0.5185540000000 1.0
C      1  0.4591290000000  0.5251240000000  0.4882720000000 1.0
C      1  0.4914620000000  0.5185450000000  0.6097500000000 1.0
C      1  0.5049390000000  0.4125400000000  0.4600650000000 1.0
END
