TITL C-599893-4344-591 -0.00634492407258109 125000 -758.599326964171 0 0 126 (C1) n - 1
REM
REM in /home/nfs/bkarasulu/CARBON/AIRSS/Generating-Clusters/TERSOFF/Only-C1/FIRE-HFTN
REM
REM
REM
REM
REM
REM ./C.cell (11c1c37f851c82e70ff6c80c92926a4b)
REM AIRSS Version 0.9.1 bugfix July 2018 build 013d7b7c2542+ Fri, 06 Jul 2018 19:26:36 +0100
REM compiler GCC version 9.2.1 20190827 (Red Hat 9.2.1-1)
REM options -cpp -mtune=generic -march=x86-64 -g -O0 -fpre-include=/usr/include/finclude/math-vector-fortran.h
REM seed -1360788951 1230737361 -329263443 1406334496 -991572 -749039219 -213808443 -1639303146 1972991877 -2098723851 883332275 -2100157765 1140719368 1872883493 -604091476 2028049315 905292377 484705715 1530970163 894516453 -1025855574 573541060 32534265 203216163 -1889279443 -1362064976 828759626 -1531459765 1653246254 1127419568 -1751775379 -633546957 -1298844807
REM
CELL 1.54180   50.00000   50.00000   50.00000   90.00000   90.00000   90.00000
LATT -1
SFAC C  
C      1  0.4221500000000  0.4766880000000  0.5584150000000 1.0
C      1  0.5814170000000  0.4325020000000  0.5154190000000 1.0
C      1  0.5274210000000  0.5675100000000  0.5031870000000 1.0
C      1  0.5151790000000  0.4472200000000  0.5619130000000 1.0
C      1  0.5975760000000  0.5255560000000  0.5475680000000 1.0
C      1  0.6166760000000  0.5230240000000  0.5018720000000 1.0
C      1  0.5105770000000  0.4080490000000  0.5321520000000 1.0
C      1  0.4334770000000  0.4153990000000  0.4736050000000 1.0
C      1  0.4673350000000  0.3937150000000  0.4983320000000 1.0
C      1  0.4793460000000  0.4984460000000  0.4696890000000 1.0
C      1  0.5222910000000  0.4513700000000  0.4223390000000 1.0
C      1  0.4765860000000  0.5190060000000  0.4910620000000 1.0
C      1  0.5040420000000  0.4780230000000  0.4303000000000 1.0
C      1  0.4199140000000  0.5874310000000  0.5614650000000 1.0
C      1  0.4199430000000  0.4405020000000  0.4754750000000 1.0
C      1  0.5873130000000  0.5601320000000  0.5129170000000 1.0
C      1  0.4558490000000  0.5419990000000  0.4991800000000 1.0
C      1  0.4166950000000  0.4655700000000  0.4596840000000 1.0
C      1  0.3953340000000  0.5225000000000  0.5282910000000 1.0
C      1  0.5398870000000  0.5454210000000  0.4221500000000 1.0
C      1  0.5508170000000  0.5268100000000  0.4824930000000 1.0
C      1  0.5441220000000  0.5771630000000  0.5461930000000 1.0
C      1  0.3911700000000  0.5685910000000  0.5197680000000 1.0
C      1  0.6168120000000  0.4805300000000  0.4832610000000 1.0
C      1  0.5665210000000  0.4520700000000  0.5592380000000 1.0
C      1  0.3893680000000  0.5425140000000  0.5090780000000 1.0
C      1  0.5543020000000  0.5153560000000  0.5943500000000 1.0
C      1  0.5244100000000  0.5242060000000  0.4351960000000 1.0
C      1  0.4784360000000  0.4723140000000  0.5483710000000 1.0
C      1  0.5156840000000  0.4900590000000  0.5848140000000 1.0
C      1  0.4781000000000  0.4695220000000  0.4159320000000 1.0
C      1  0.5088710000000  0.5402260000000  0.3857810000000 1.0
C      1  0.4242190000000  0.4520720000000  0.5014700000000 1.0
C      1  0.5399230000000  0.4727370000000  0.5913980000000 1.0
C      1  0.5256830000000  0.5181700000000  0.5876330000000 1.0
C      1  0.4169000000000  0.4392640000000  0.5256900000000 1.0
C      1  0.4741570000000  0.5859060000000  0.5220970000000 1.0
C      1  0.3840010000000  0.4758110000000  0.5249560000000 1.0
C      1  0.5714940000000  0.5379750000000  0.5512530000000 1.0
C      1  0.5078480000000  0.4099630000000  0.4701740000000 1.0
C      1  0.5322210000000  0.5296610000000  0.5263730000000 1.0
C      1  0.4570020000000  0.5278010000000  0.4373940000000 1.0
C      1  0.4255390000000  0.4122270000000  0.5236890000000 1.0
C      1  0.5689950000000  0.5642580000000  0.5376580000000 1.0
C      1  0.4858450000000  0.5099960000000  0.5197540000000 1.0
C      1  0.5322480000000  0.4215690000000  0.4681160000000 1.0
C      1  0.5643040000000  0.4579290000000  0.4448240000000 1.0
C      1  0.5028930000000  0.4335130000000  0.5398440000000 1.0
C      1  0.6156580000000  0.4525480000000  0.4843770000000 1.0
C      1  0.5158850000000  0.5836260000000  0.4460160000000 1.0
C      1  0.5261900000000  0.5856540000000  0.5253230000000 1.0
C      1  0.5069960000000  0.4880330000000  0.5173850000000 1.0
C      1  0.5225230000000  0.3846960000000  0.5283690000000 1.0
C      1  0.4819110000000  0.4503340000000  0.5279940000000 1.0
C      1  0.5029700000000  0.4837050000000  0.4605760000000 1.0
C      1  0.5647420000000  0.4490660000000  0.5305240000000 1.0
C      1  0.4990650000000  0.5689840000000  0.4255630000000 1.0
C      1  0.5652120000000  0.4954890000000  0.5309630000000 1.0
C      1  0.5844840000000  0.5543100000000  0.4812340000000 1.0
C      1  0.4990780000000  0.5949030000000  0.5291190000000 1.0
C      1  0.4395340000000  0.4024830000000  0.5005010000000 1.0
C      1  0.4309300000000  0.5043200000000  0.5039170000000 1.0
C      1  0.5151450000000  0.5440300000000  0.5806460000000 1.0
C      1  0.3928610000000  0.5374590000000  0.4807250000000 1.0
C      1  0.5079610000000  0.5133290000000  0.3911280000000 1.0
C      1  0.5531130000000  0.4726720000000  0.5187520000000 1.0
C      1  0.5488030000000  0.4615740000000  0.4212820000000 1.0
C      1  0.4660500000000  0.4971000000000  0.5405480000000 1.0
C      1  0.4819670000000  0.5458110000000  0.4361670000000 1.0
C      1  0.3962620000000  0.5122770000000  0.4645920000000 1.0
C      1  0.4743480000000  0.4518310000000  0.5000460000000 1.0
C      1  0.4376100000000  0.4991730000000  0.5474880000000 1.0
C      1  0.5996290000000  0.5261680000000  0.4769570000000 1.0
C      1  0.5648120000000  0.4887630000000  0.5905000000000 1.0
C      1  0.4874230000000  0.5489570000000  0.5822950000000 1.0
C      1  0.4807960000000  0.4024810000000  0.4737210000000 1.0
C      1  0.5200570000000  0.5009730000000  0.4158300000000 1.0
C      1  0.5458770000000  0.5037260000000  0.4703720000000 1.0
C      1  0.5314060000000  0.5650240000000  0.5693180000000 1.0
C      1  0.4235750000000  0.4705010000000  0.5851130000000 1.0
C      1  0.5521310000000  0.5187100000000  0.5417010000000 1.0
C      1  0.3825950000000  0.4749370000000  0.4958680000000 1.0
C      1  0.5817880000000  0.4765440000000  0.5697160000000 1.0
C      1  0.5535450000000  0.4371620000000  0.4615540000000 1.0
C      1  0.5412300000000  0.4496210000000  0.5734950000000 1.0
C      1  0.5405380000000  0.5825190000000  0.4593100000000 1.0
C      1  0.5988890000000  0.4968090000000  0.4663510000000 1.0
C      1  0.6014560000000  0.4341310000000  0.4977240000000 1.0
C      1  0.4300130000000  0.5374010000000  0.4357460000000 1.0
C      1  0.6073330000000  0.5393120000000  0.5231810000000 1.0
C      1  0.4225900000000  0.5149170000000  0.5287690000000 1.0
C      1  0.4995100000000  0.4721140000000  0.5682710000000 1.0
C      1  0.6234380000000  0.4954720000000  0.5065220000000 1.0
C      1  0.4636530000000  0.4582550000000  0.4752300000000 1.0
C      1  0.4627120000000  0.5577090000000  0.5774170000000 1.0
C      1  0.3775630000000  0.5016730000000  0.5350780000000 1.0
C      1  0.4583460000000  0.5666250000000  0.5109460000000 1.0
C      1  0.5465570000000  0.4875180000000  0.4095560000000 1.0
C      1  0.6161100000000  0.4847610000000  0.5317080000000 1.0
C      1  0.4158580000000  0.6103540000000  0.5759100000000 1.0
C      1  0.4094560000000  0.5175940000000  0.4393230000000 1.0
C      1  0.4799320000000  0.4441780000000  0.4049990000000 1.0
C      1  0.5643330000000  0.5530010000000  0.4340570000000 1.0
C      1  0.5020940000000  0.5540450000000  0.5022020000000 1.0
C      1  0.3957500000000  0.4839490000000  0.4715100000000 1.0
C      1  0.4580320000000  0.5003130000000  0.4503950000000 1.0
C      1  0.4402660000000  0.5695940000000  0.5692890000000 1.0
C      1  0.4341170000000  0.4780460000000  0.5016180000000 1.0
C      1  0.4974040000000  0.5379050000000  0.4795840000000 1.0
C      1  0.5441960000000  0.5437430000000  0.5034640000000 1.0
C      1  0.5286690000000  0.4765820000000  0.5038940000000 1.0
C      1  0.4447440000000  0.4744170000000  0.4561120000000 1.0
C      1  0.4047200000000  0.4610810000000  0.5404790000000 1.0
C      1  0.5029990000000  0.5334070000000  0.4524630000000 1.0
C      1  0.5273890000000  0.4835220000000  0.4761920000000 1.0
C      1  0.4037190000000  0.5821820000000  0.5390670000000 1.0
C      1  0.4020680000000  0.5608050000000  0.4662560000000 1.0
C      1  0.5036450000000  0.5341550000000  0.5253920000000 1.0
C      1  0.5922140000000  0.4943250000000  0.5468310000000 1.0
C      1  0.5348030000000  0.3622960000000  0.5231800000000 1.0
C      1  0.4576260000000  0.4106710000000  0.4576530000000 1.0
C      1  0.5656710000000  0.5660900000000  0.4600620000000 1.0
C      1  0.5049060000000  0.4333250000000  0.4089650000000 1.0
C      1  0.5817790000000  0.4797350000000  0.4512640000000 1.0
C      1  0.4212350000000  0.5619470000000  0.4469080000000 1.0
C      1  0.5186090000000  0.5582750000000  0.4056350000000 1.0
END
