TITL C-599895-9959-239 7345.17338433618 125000 -444.269369211153 0 0 75 (C1) n - 1
REM
REM in /home/nfs/bkarasulu/CARBON/AIRSS/Generating-Clusters/TERSOFF/Only-C1/FIRE-HFTN
REM
REM
REM
REM
REM
REM ./C.cell (11c1c37f851c82e70ff6c80c92926a4b)
REM AIRSS Version 0.9.1 bugfix July 2018 build 013d7b7c2542+ Fri, 06 Jul 2018 19:26:36 +0100
REM compiler GCC version 9.2.1 20190827 (Red Hat 9.2.1-1)
REM options -cpp -mtune=generic -march=x86-64 -g -O0 -fpre-include=/usr/include/finclude/math-vector-fortran.h
REM seed -1078588587 1787799824 -1863969907 -430790424 -1551369974 -76044295 274710706 -761372115 -163427902 -1724324875 -1324521109 -943704956 -304970593 2120053645 1752803594 -2135305428 -743986459 2054919884 -1762468619 -2125610123 1568520069 -933839477 -2014050617 1731475822 1679612373 2132534831 -59791721 1181805666 -462186193 574755316 -1482951645 1099519158 -1148071281
REM
CELL 1.54180   50.00000   50.00000   50.00000   90.00000   90.00000   90.00000
LATT -1
SFAC C  
C      1  0.4898800000000  0.5562260000000  0.4946210000000 1.0
C      1  0.4965630000000  0.5354400000000  0.5133180000000 1.0
C      1  0.4398590000000  0.4840690000000  0.4507140000000 1.0
C      1  0.4722030000000  0.6469920000000  0.5392590000000 1.0
C      1  0.3959330000000  0.4849360000000  0.4779590000000 1.0
C      1  0.4532450000000  0.4314760000000  0.5208340000000 1.0
C      1  0.4806180000000  0.5177580000000  0.5281620000000 1.0
C      1  0.4144130000000  0.4838180000000  0.4586640000000 1.0
C      1  0.5608110000000  0.5650840000000  0.5241830000000 1.0
C      1  0.4721040000000  0.4067440000000  0.4684130000000 1.0
C      1  0.4554760000000  0.5418620000000  0.4451630000000 1.0
C      1  0.5599630000000  0.5460720000000  0.4761900000000 1.0
C      1  0.4488060000000  0.5548450000000  0.5458310000000 1.0
C      1  0.4302930000000  0.5162060000000  0.5185310000000 1.0
C      1  0.6010810000000  0.4647580000000  0.4594680000000 1.0
C      1  0.4502310000000  0.4553670000000  0.5345200000000 1.0
C      1  0.4797560000000  0.4050410000000  0.5234310000000 1.0
C      1  0.4264430000000  0.4705990000000  0.5349790000000 1.0
C      1  0.5301720000000  0.5814620000000  0.4918870000000 1.0
C      1  0.4679870000000  0.4271570000000  0.4498500000000 1.0
C      1  0.4741880000000  0.4523160000000  0.4442540000000 1.0
C      1  0.4676270000000  0.4786100000000  0.4501810000000 1.0
C      1  0.5352720000000  0.4396150000000  0.5058050000000 1.0
C      1  0.4377830000000  0.5569910000000  0.4587530000000 1.0
C      1  0.5543540000000  0.5660790000000  0.4965760000000 1.0
C      1  0.5462700000000  0.5672280000000  0.5468950000000 1.0
C      1  0.5960890000000  0.4796010000000  0.4812600000000 1.0
C      1  0.5310650000000  0.3943730000000  0.4933620000000 1.0
C      1  0.4720250000000  0.5676720000000  0.5516010000000 1.0
C      1  0.5468990000000  0.4598900000000  0.5223010000000 1.0
C      1  0.4393100000000  0.5669590000000  0.4850850000000 1.0
C      1  0.4730540000000  0.4679140000000  0.5466810000000 1.0
C      1  0.5788770000000  0.4517270000000  0.5954530000000 1.0
C      1  0.4555800000000  0.6670080000000  0.5408790000000 1.0
C      1  0.4761430000000  0.5248310000000  0.4466430000000 1.0
C      1  0.4658510000000  0.5703260000000  0.4937290000000 1.0
C      1  0.5290180000000  0.4509050000000  0.4799180000000 1.0
C      1  0.5838300000000  0.4551550000000  0.4411250000000 1.0
C      1  0.5354910000000  0.5083230000000  0.4492030000000 1.0
C      1  0.4613420000000  0.4089430000000  0.4936550000000 1.0
C      1  0.5474730000000  0.4860510000000  0.5062960000000 1.0
C      1  0.5415520000000  0.5354470000000  0.4563130000000 1.0
C      1  0.5489620000000  0.4876330000000  0.4351530000000 1.0
C      1  0.5104260000000  0.5664910000000  0.4776900000000 1.0
C      1  0.4298320000000  0.5436120000000  0.5274140000000 1.0
C      1  0.4138430000000  0.4933660000000  0.5239130000000 1.0
C      1  0.5202260000000  0.6002350000000  0.5104030000000 1.0
C      1  0.4774650000000  0.4951600000000  0.5419530000000 1.0
C      1  0.5559660000000  0.4601700000000  0.4400360000000 1.0
C      1  0.4469610000000  0.5118570000000  0.4967680000000 1.0
C      1  0.5262320000000  0.4139900000000  0.5130350000000 1.0
C      1  0.5054030000000  0.4291710000000  0.5546520000000 1.0
C      1  0.5686150000000  0.4545370000000  0.5716540000000 1.0
C      1  0.5220900000000  0.3964190000000  0.4665870000000 1.0
C      1  0.5217440000000  0.5684680000000  0.5612920000000 1.0
C      1  0.5448370000000  0.4040020000000  0.4243260000000 1.0
C      1  0.5021810000000  0.6023590000000  0.5320940000000 1.0
C      1  0.5206780000000  0.5592620000000  0.5870810000000 1.0
C      1  0.5579600000000  0.4571110000000  0.5475380000000 1.0
C      1  0.5048610000000  0.4125890000000  0.5318190000000 1.0
C      1  0.4980400000000  0.5794510000000  0.5490310000000 1.0
C      1  0.5256290000000  0.4796680000000  0.4842670000000 1.0
C      1  0.5403060000000  0.5098880000000  0.5213410000000 1.0
C      1  0.5388420000000  0.4416870000000  0.4547670000000 1.0
C      1  0.5751250000000  0.4885750000000  0.4951020000000 1.0
C      1  0.5355300000000  0.4139080000000  0.4481110000000 1.0
C      1  0.4946900000000  0.3907100000000  0.4631140000000 1.0
C      1  0.4865810000000  0.4996400000000  0.4545590000000 1.0
C      1  0.5136290000000  0.4966650000000  0.4646330000000 1.0
C      1  0.5235560000000  0.5301360000000  0.5180180000000 1.0
C      1  0.4920010000000  0.4518630000000  0.5597630000000 1.0
C      1  0.5193520000000  0.5534680000000  0.4543220000000 1.0
C      1  0.4881980000000  0.6260230000000  0.5367360000000 1.0
C      1  0.4215430000000  0.5613560000000  0.5063790000000 1.0
C      1  0.3937620000000  0.4886580000000  0.5045050000000 1.0
END
