TITL C-599894-471-583 0.00368761313009784 125000 -291.944198211221 0 0 48 (C1) n - 1
REM
REM in /home/nfs/bkarasulu/CARBON/AIRSS/Generating-Clusters/TERSOFF/Only-C1/FIRE-HFTN
REM
REM
REM
REM
REM
REM ./C.cell (11c1c37f851c82e70ff6c80c92926a4b)
REM AIRSS Version 0.9.1 bugfix July 2018 build 013d7b7c2542+ Fri, 06 Jul 2018 19:26:36 +0100
REM compiler GCC version 9.2.1 20190827 (Red Hat 9.2.1-1)
REM options -cpp -mtune=generic -march=x86-64 -g -O0 -fpre-include=/usr/include/finclude/math-vector-fortran.h
REM seed 324650460 103730544 1614462665 713567775 1723758866 1813136346 1541501122 -1549485806 1633725001 1711522116 -1450784020 816353782 -406021782 1619687588 89512084 -497614190 -333146659 -2006386223 1681874865 -1880019903 368910491 519346754 1786423254 -1443678223 -783112557 -2031584 354188041 13971720 357987221 768462209 1152646459 44315844 -1125137165
REM
CELL 1.54180   50.00000   50.00000   50.00000   90.00000   90.00000   90.00000
LATT -1
SFAC C  
C      1  0.5527680000000  0.5659290000000  0.4757180000000 1.0
C      1  0.4601610000000  0.4468360000000  0.4224030000000 1.0
C      1  0.5680680000000  0.4683920000000  0.5005560000000 1.0
C      1  0.4807370000000  0.5207900000000  0.4267300000000 1.0
C      1  0.5973640000000  0.5106700000000  0.4944330000000 1.0
C      1  0.5507890000000  0.4700150000000  0.5713670000000 1.0
C      1  0.4254140000000  0.4361170000000  0.5070570000000 1.0
C      1  0.4035970000000  0.4916730000000  0.5087820000000 1.0
C      1  0.5371720000000  0.5771270000000  0.4968860000000 1.0
C      1  0.5647170000000  0.4924440000000  0.5684560000000 1.0
C      1  0.3986740000000  0.4439180000000  0.5115160000000 1.0
C      1  0.4674200000000  0.4713720000000  0.4153440000000 1.0
C      1  0.4838180000000  0.5102270000000  0.5296740000000 1.0
C      1  0.5621600000000  0.5414570000000  0.5521030000000 1.0
C      1  0.4761660000000  0.5499680000000  0.4661820000000 1.0
C      1  0.5173990000000  0.5495560000000  0.4405670000000 1.0
C      1  0.5072460000000  0.4413450000000  0.5652830000000 1.0
C      1  0.4958920000000  0.5314870000000  0.5398630000000 1.0
C      1  0.5437540000000  0.4579640000000  0.4987450000000 1.0
C      1  0.5420700000000  0.5573690000000  0.5408590000000 1.0
C      1  0.4875250000000  0.5705050000000  0.4816340000000 1.0
C      1  0.4980920000000  0.4734770000000  0.5014650000000 1.0
C      1  0.3892610000000  0.4691700000000  0.5121140000000 1.0
C      1  0.4614470000000  0.4399930000000  0.5401840000000 1.0
C      1  0.5079410000000  0.4307200000000  0.4820320000000 1.0
C      1  0.5874450000000  0.4864780000000  0.4991310000000 1.0
C      1  0.5156100000000  0.5487140000000  0.5440600000000 1.0
C      1  0.4306930000000  0.4970450000000  0.5033860000000 1.0
C      1  0.5785780000000  0.5563470000000  0.4804740000000 1.0
C      1  0.5693610000000  0.5177440000000  0.5617720000000 1.0
C      1  0.5943730000000  0.5361530000000  0.4874980000000 1.0
C      1  0.4415710000000  0.4173120000000  0.4607520000000 1.0
C      1  0.4909800000000  0.5405130000000  0.4436040000000 1.0
C      1  0.5165130000000  0.4538140000000  0.4939170000000 1.0
C      1  0.4777610000000  0.4877550000000  0.5142700000000 1.0
C      1  0.5096680000000  0.5807840000000  0.4923580000000 1.0
C      1  0.4507830000000  0.4786760000000  0.5124540000000 1.0
C      1  0.4455620000000  0.4515110000000  0.5201920000000 1.0
C      1  0.5307110000000  0.4526660000000  0.5703990000000 1.0
C      1  0.5618460000000  0.6008260000000  0.5314570000000 1.0
C      1  0.4737330000000  0.4970850000000  0.4171120000000 1.0
C      1  0.4513390000000  0.4273990000000  0.4381980000000 1.0
C      1  0.5395230000000  0.5591750000000  0.4518770000000 1.0
C      1  0.4531990000000  0.5367330000000  0.4750000000000 1.0
C      1  0.4323740000000  0.4197230000000  0.4855700000000 1.0
C      1  0.4830600000000  0.4368250000000  0.5552920000000 1.0
C      1  0.4380910000000  0.5191900000000  0.4879760000000 1.0
C      1  0.5475740000000  0.5790110000000  0.5232950000000 1.0
END
