TITL C-599892-9790-1336 -0.0133722437214301 125000 -357.462801829714 0 0 60 (C1) n - 1
REM
REM in /home/nfs/bkarasulu/CARBON/AIRSS/Generating-Clusters/TERSOFF/Only-C1/FIRE-HFTN
REM
REM
REM
REM
REM
REM ./C.cell (11c1c37f851c82e70ff6c80c92926a4b)
REM AIRSS Version 0.9.1 bugfix July 2018 build 013d7b7c2542+ Fri, 06 Jul 2018 19:26:36 +0100
REM compiler GCC version 9.2.1 20190827 (Red Hat 9.2.1-1)
REM options -cpp -mtune=generic -march=x86-64 -g -O0 -fpre-include=/usr/include/finclude/math-vector-fortran.h
REM seed -2131241514 -1101393538 -1221780868 2054410457 -2056243902 1975142956 -1284935071 1250016492 -783875729 -1882300918 -952741543 -282788688 -689095977 -1282848418 292209945 1440478399 -1636896157 -1389028441 -442492414 -153916449 879713920 -209352036 186404746 319929624 -713639182 -1742241314 -1638552353 1160197957 -1977262955 -1466268000 1042593625 -848973660 -1994126225
REM
CELL 1.54180   50.00000   50.00000   50.00000   90.00000   90.00000   90.00000
LATT -1
SFAC C  
C      1  0.4577600000000  0.5685200000000  0.5068080000000 1.0
C      1  0.4867960000000  0.4238760000000  0.4957310000000 1.0
C      1  0.5101770000000  0.5634160000000  0.4526660000000 1.0
C      1  0.5044760000000  0.5027950000000  0.5590780000000 1.0
C      1  0.4675240000000  0.5087780000000  0.5270770000000 1.0
C      1  0.5550400000000  0.4618310000000  0.4745400000000 1.0
C      1  0.5051650000000  0.5879090000000  0.4978450000000 1.0
C      1  0.4824320000000  0.5023600000000  0.5770320000000 1.0
C      1  0.5269940000000  0.4458360000000  0.5151610000000 1.0
C      1  0.4808390000000  0.5125550000000  0.4813320000000 1.0
C      1  0.5091090000000  0.4873640000000  0.4179620000000 1.0
C      1  0.4625840000000  0.4830090000000  0.5689110000000 1.0
C      1  0.4709480000000  0.4562760000000  0.5766720000000 1.0
C      1  0.4956930000000  0.5070010000000  0.5323060000000 1.0
C      1  0.5205000000000  0.5961600000000  0.5619060000000 1.0
C      1  0.5824310000000  0.4918310000000  0.5292230000000 1.0
C      1  0.5617240000000  0.5524600000000  0.4949830000000 1.0
C      1  0.5300540000000  0.4726210000000  0.5292270000000 1.0
C      1  0.4952630000000  0.4555350000000  0.5921000000000 1.0
C      1  0.5350770000000  0.5222420000000  0.4393900000000 1.0
C      1  0.5639410000000  0.5328350000000  0.4771740000000 1.0
C      1  0.4896670000000  0.4260410000000  0.5422140000000 1.0
C      1  0.4626100000000  0.5210750000000  0.5016170000000 1.0
C      1  0.4296000000000  0.4544570000000  0.5099430000000 1.0
C      1  0.5128680000000  0.4547400000000  0.3808230000000 1.0
C      1  0.3965390000000  0.4186620000000  0.4564080000000 1.0
C      1  0.4701730000000  0.4348340000000  0.5584750000000 1.0
C      1  0.5030310000000  0.4302220000000  0.5178630000000 1.0
C      1  0.5305440000000  0.5058830000000  0.4164720000000 1.0
C      1  0.5280970000000  0.5889100000000  0.5146100000000 1.0
C      1  0.4931420000000  0.4917850000000  0.4415320000000 1.0
C      1  0.4517340000000  0.4896890000000  0.5425400000000 1.0
C      1  0.5154720000000  0.4494440000000  0.3554390000000 1.0
C      1  0.5095920000000  0.4899510000000  0.5135540000000 1.0
C      1  0.5290000000000  0.6060440000000  0.5371670000000 1.0
C      1  0.4970890000000  0.4725610000000  0.4636280000000 1.0
C      1  0.5113330000000  0.5833430000000  0.5832060000000 1.0
C      1  0.4461320000000  0.5439720000000  0.4997300000000 1.0
C      1  0.5111440000000  0.5360500000000  0.4481520000000 1.0
C      1  0.5221640000000  0.4793210000000  0.5587730000000 1.0
C      1  0.4614510000000  0.4257770000000  0.4875270000000 1.0
C      1  0.4342540000000  0.4727620000000  0.5286940000000 1.0
C      1  0.4967360000000  0.4878690000000  0.4882320000000 1.0
C      1  0.5082310000000  0.4410060000000  0.4281030000000 1.0
C      1  0.5028140000000  0.4467370000000  0.4540620000000 1.0
C      1  0.5580800000000  0.4828200000000  0.5271360000000 1.0
C      1  0.5439370000000  0.4446890000000  0.4921640000000 1.0
C      1  0.5494870000000  0.5717660000000  0.5085790000000 1.0
C      1  0.5540800000000  0.5137740000000  0.4591410000000 1.0
C      1  0.5193430000000  0.4623070000000  0.5811720000000 1.0
C      1  0.5584660000000  0.4861940000000  0.4638410000000 1.0
C      1  0.4895570000000  0.5181450000000  0.4540800000000 1.0
C      1  0.5102490000000  0.4607410000000  0.4077800000000 1.0
C      1  0.5088190000000  0.5831550000000  0.4704270000000 1.0
C      1  0.4201950000000  0.5422180000000  0.4914220000000 1.0
C      1  0.4352740000000  0.4356040000000  0.4899300000000 1.0
C      1  0.4792730000000  0.5841860000000  0.5078500000000 1.0
C      1  0.4152170000000  0.4268280000000  0.4726460000000 1.0
C      1  0.5380070000000  0.6317460000000  0.5346920000000 1.0
C      1  0.5020720000000  0.5694830000000  0.6032510000000 1.0
END
