TITL C-599896-8500-718 0.000446830506196502 125000 -79.1228740216156 0 0 14 (C2v) n - 1
REM
REM in /home/nfs/bkarasulu/CARBON/AIRSS/Generating-Clusters/TERSOFF/Only-C1/FIRE-HFTN
REM
REM
REM
REM
REM
REM ./C.cell (11c1c37f851c82e70ff6c80c92926a4b)
REM AIRSS Version 0.9.1 bugfix July 2018 build 013d7b7c2542+ Fri, 06 Jul 2018 19:26:36 +0100
REM compiler GCC version 9.2.1 20190827 (Red Hat 9.2.1-1)
REM options -cpp -mtune=generic -march=x86-64 -g -O0 -fpre-include=/usr/include/finclude/math-vector-fortran.h
REM seed -1302361778 -132596470 722815763 -76166703 189444010 -1092387857 634530388 228418913 -1374821782 -1712047420 837371606 -1291864657 1576626260 -1686096988 -1945291368 546526463 153939951 2007052113 -1565526805 -456261866 -707141475 -830974786 1101890680 -880106873 -429193883 -1737752960 -646099946 249056460 -935615708 785207793 -467759883 -1401933357 1976818223
REM
CELL 1.54180   50.00000   50.00000   50.00000   90.00000   90.00000   90.00000
LATT -1
SFAC C  
C      1  0.5149220000000  0.4569430000000  0.4199170000000 1.0
C      1  0.5016930000000  0.4726140000000  0.5521750000000 1.0
C      1  0.4963610000000  0.5217190000000  0.4889920000000 1.0
C      1  0.4909160000000  0.5173130000000  0.5730120000000 1.0
C      1  0.4877490000000  0.5475080000000  0.5326810000000 1.0
C      1  0.5090720000000  0.4827110000000  0.4270900000000 1.0
C      1  0.5064750000000  0.5022790000000  0.4081160000000 1.0
C      1  0.5023620000000  0.4954990000000  0.4810200000000 1.0
C      1  0.4911400000000  0.5403830000000  0.5072280000000 1.0
C      1  0.4964610000000  0.4912950000000  0.5705060000000 1.0
C      1  0.5048940000000  0.4758890000000  0.5009210000000 1.0
C      1  0.5047020000000  0.4675410000000  0.5261880000000 1.0
C      1  0.4875440000000  0.5391870000000  0.5580400000000 1.0
C      1  0.5057090000000  0.4891190000000  0.4541160000000 1.0
END
