TITL C-599892-9790-929 0.000341594761479043 125000 -740.843168234592 0 0 121 (C1) n - 1
REM
REM in /home/nfs/bkarasulu/CARBON/AIRSS/Generating-Clusters/TERSOFF/Only-C1/FIRE-HFTN
REM
REM
REM
REM
REM
REM ./C.cell (11c1c37f851c82e70ff6c80c92926a4b)
REM AIRSS Version 0.9.1 bugfix July 2018 build 013d7b7c2542+ Fri, 06 Jul 2018 19:26:36 +0100
REM compiler GCC version 9.2.1 20190827 (Red Hat 9.2.1-1)
REM options -cpp -mtune=generic -march=x86-64 -g -O0 -fpre-include=/usr/include/finclude/math-vector-fortran.h
REM seed 2146448123 1525175550 1287709309 -1274127026 -1880509508 904645611 -1427917284 1122335637 765848234 2059954534 -1611203431 -1885176986 1477714103 1760114695 241232266 -502522570 1303443771 1994543195 -1335629872 1799252880 -309353758 1763806923 1294167790 1653636510 2141802975 860439144 -105297760 1418458683 -446932860 831189687 -37202085 1793214322 -764970534
REM
CELL 1.54180   50.00000   50.00000   50.00000   90.00000   90.00000   90.00000
LATT -1
SFAC C  
C      1  0.4468940000000  0.4627600000000  0.4668750000000 1.0
C      1  0.5530900000000  0.4580930000000  0.4061920000000 1.0
C      1  0.5083390000000  0.4923670000000  0.5049610000000 1.0
C      1  0.4913850000000  0.5552560000000  0.5874850000000 1.0
C      1  0.4618360000000  0.4084020000000  0.4885500000000 1.0
C      1  0.5252010000000  0.5058480000000  0.3865650000000 1.0
C      1  0.5827960000000  0.5161430000000  0.5710570000000 1.0
C      1  0.5170920000000  0.4871390000000  0.5503380000000 1.0
C      1  0.4971080000000  0.5870430000000  0.4507170000000 1.0
C      1  0.4925580000000  0.4998400000000  0.3514020000000 1.0
C      1  0.5852950000000  0.5648920000000  0.5136130000000 1.0
C      1  0.5210130000000  0.5870530000000  0.4344180000000 1.0
C      1  0.5037280000000  0.4917470000000  0.3749620000000 1.0
C      1  0.4733510000000  0.4879000000000  0.4294630000000 1.0
C      1  0.5367130000000  0.4568500000000  0.5124740000000 1.0
C      1  0.4952960000000  0.4268880000000  0.5258880000000 1.0
C      1  0.5169950000000  0.5480520000000  0.5503420000000 1.0
C      1  0.5358930000000  0.5717810000000  0.4965710000000 1.0
C      1  0.3775180000000  0.5784940000000  0.5104900000000 1.0
C      1  0.5477440000000  0.4703540000000  0.5875980000000 1.0
C      1  0.5419760000000  0.5215750000000  0.4031680000000 1.0
C      1  0.4989490000000  0.4332850000000  0.4971700000000 1.0
C      1  0.4747900000000  0.3830690000000  0.4882000000000 1.0
C      1  0.4340090000000  0.5167210000000  0.5518170000000 1.0
C      1  0.5251660000000  0.5014610000000  0.4632130000000 1.0
C      1  0.4093960000000  0.4578290000000  0.5109100000000 1.0
C      1  0.5567140000000  0.5230400000000  0.5619450000000 1.0
C      1  0.4625920000000  0.4859680000000  0.5050460000000 1.0
C      1  0.5311280000000  0.5005140000000  0.4913070000000 1.0
C      1  0.5271190000000  0.4383510000000  0.4888280000000 1.0
C      1  0.5625740000000  0.5079820000000  0.4189330000000 1.0
C      1  0.3983350000000  0.4825280000000  0.5530300000000 1.0
C      1  0.5665140000000  0.4252620000000  0.5239760000000 1.0
C      1  0.4818450000000  0.5810220000000  0.5796800000000 1.0
C      1  0.5353080000000  0.3864720000000  0.5261100000000 1.0
C      1  0.5863100000000  0.4810660000000  0.4765070000000 1.0
C      1  0.4810820000000  0.4108570000000  0.5817650000000 1.0
C      1  0.5676960000000  0.4115890000000  0.4981280000000 1.0
C      1  0.4788070000000  0.5309250000000  0.5091670000000 1.0
C      1  0.4144630000000  0.5800060000000  0.4813380000000 1.0
C      1  0.5011300000000  0.3771010000000  0.4905660000000 1.0
C      1  0.4318300000000  0.5673180000000  0.5003320000000 1.0
C      1  0.4793940000000  0.5265100000000  0.5380320000000 1.0
C      1  0.4713570000000  0.4492920000000  0.4572610000000 1.0
C      1  0.4940500000000  0.4690250000000  0.3886740000000 1.0
C      1  0.4649780000000  0.5134460000000  0.4225830000000 1.0
C      1  0.4825410000000  0.5333340000000  0.4303110000000 1.0
C      1  0.4791170000000  0.4290450000000  0.4765950000000 1.0
C      1  0.5184900000000  0.4274140000000  0.5438110000000 1.0
C      1  0.4137220000000  0.5059850000000  0.5057540000000 1.0
C      1  0.5189040000000  0.5096600000000  0.5994570000000 1.0
C      1  0.4206960000000  0.4756190000000  0.4654310000000 1.0
C      1  0.5026070000000  0.4550460000000  0.4119910000000 1.0
C      1  0.5900720000000  0.4947480000000  0.5857040000000 1.0
C      1  0.4199490000000  0.4959320000000  0.5656310000000 1.0
C      1  0.5818610000000  0.4607220000000  0.4575210000000 1.0
C      1  0.5883460000000  0.5081440000000  0.4661750000000 1.0
C      1  0.5324610000000  0.4529260000000  0.4632270000000 1.0
C      1  0.3955090000000  0.4628350000000  0.5348600000000 1.0
C      1  0.4828350000000  0.5603540000000  0.4959500000000 1.0
C      1  0.5159820000000  0.4412200000000  0.5684890000000 1.0
C      1  0.4892590000000  0.5640220000000  0.4660030000000 1.0
C      1  0.5407960000000  0.4101390000000  0.4872460000000 1.0
C      1  0.5227930000000  0.5305620000000  0.4606700000000 1.0
C      1  0.5780010000000  0.5486890000000  0.4403530000000 1.0
C      1  0.5820290000000  0.4717900000000  0.5036940000000 1.0
C      1  0.5293420000000  0.4458440000000  0.4098300000000 1.0
C      1  0.5529600000000  0.5231550000000  0.5320870000000 1.0
C      1  0.5194270000000  0.5502120000000  0.5790810000000 1.0
C      1  0.4401250000000  0.4322740000000  0.5736110000000 1.0
C      1  0.5364180000000  0.5272620000000  0.5842290000000 1.0
C      1  0.5162050000000  0.4751260000000  0.4539290000000 1.0
C      1  0.4621570000000  0.6041520000000  0.5086550000000 1.0
C      1  0.5183820000000  0.4753480000000  0.5245420000000 1.0
C      1  0.5065170000000  0.5203440000000  0.5462540000000 1.0
C      1  0.4511790000000  0.4629310000000  0.4957260000000 1.0
C      1  0.4606760000000  0.5255010000000  0.5597430000000 1.0
C      1  0.5662720000000  0.4809510000000  0.4113290000000 1.0
C      1  0.5424470000000  0.4123210000000  0.5374820000000 1.0
C      1  0.4352070000000  0.4544030000000  0.5876920000000 1.0
C      1  0.5023980000000  0.4262380000000  0.5880030000000 1.0
C      1  0.4925320000000  0.5888330000000  0.5544730000000 1.0
C      1  0.5374510000000  0.5437450000000  0.4841530000000 1.0
C      1  0.6012270000000  0.5266270000000  0.4835130000000 1.0
C      1  0.5252620000000  0.4681220000000  0.5709160000000 1.0
C      1  0.4908900000000  0.4655180000000  0.4388330000000 1.0
C      1  0.4583750000000  0.5769400000000  0.5026420000000 1.0
C      1  0.5358450000000  0.5490380000000  0.4033070000000 1.0
C      1  0.4647040000000  0.5961380000000  0.5943900000000 1.0
C      1  0.4158060000000  0.5047800000000  0.4231590000000 1.0
C      1  0.4684140000000  0.4196780000000  0.5349550000000 1.0
C      1  0.4096640000000  0.4808920000000  0.4923000000000 1.0
C      1  0.5260450000000  0.3873170000000  0.4985990000000 1.0
C      1  0.5600400000000  0.5739410000000  0.5149560000000 1.0
C      1  0.5079130000000  0.5718240000000  0.5377840000000 1.0
C      1  0.6004450000000  0.5469060000000  0.5008610000000 1.0
C      1  0.5677530000000  0.5734270000000  0.4420900000000 1.0
C      1  0.4227120000000  0.5245250000000  0.5258610000000 1.0
C      1  0.4382820000000  0.5169060000000  0.4149680000000 1.0
C      1  0.4099810000000  0.4872070000000  0.4424510000000 1.0
C      1  0.4979360000000  0.5408650000000  0.4521380000000 1.0
C      1  0.5086630000000  0.5719280000000  0.5097450000000 1.0
C      1  0.5409650000000  0.5932660000000  0.4768330000000 1.0
C      1  0.3885570000000  0.5864920000000  0.4868720000000 1.0
C      1  0.3920530000000  0.5627630000000  0.5273750000000 1.0
C      1  0.4176360000000  0.5519160000000  0.5204000000000 1.0
C      1  0.4911920000000  0.5099600000000  0.5985790000000 1.0
C      1  0.5734120000000  0.4750700000000  0.5933080000000 1.0
C      1  0.5648640000000  0.4540140000000  0.5184030000000 1.0
C      1  0.4492610000000  0.4192490000000  0.5130650000000 1.0
C      1  0.5453390000000  0.5890900000000  0.4494410000000 1.0
C      1  0.4347290000000  0.4437340000000  0.5095210000000 1.0
C      1  0.4613860000000  0.4177040000000  0.5626030000000 1.0
C      1  0.5447380000000  0.5226900000000  0.5037240000000 1.0
C      1  0.5236110000000  0.5716550000000  0.4109450000000 1.0
C      1  0.4644570000000  0.6299610000000  0.5114470000000 1.0
C      1  0.5768170000000  0.5200630000000  0.4414350000000 1.0
C      1  0.4831610000000  0.5038510000000  0.5004140000000 1.0
C      1  0.4314470000000  0.4808690000000  0.5863500000000 1.0
C      1  0.5583540000000  0.4487150000000  0.4529700000000 1.0
C      1  0.4750420000000  0.5304180000000  0.5855080000000 1.0
END
