TITL C-599890-3321-671 173.777673239166 125000 -967.323210505588 0 0 158 (C1) n - 1
REM
REM in /home/nfs/bkarasulu/CARBON/AIRSS/Generating-Clusters/TERSOFF/Only-C1/FIRE-HFTN
REM
REM
REM
REM
REM
REM ./C.cell (11c1c37f851c82e70ff6c80c92926a4b)
REM AIRSS Version 0.9.1 bugfix July 2018 build 013d7b7c2542+ Fri, 06 Jul 2018 19:26:36 +0100
REM compiler GCC version 9.2.1 20190827 (Red Hat 9.2.1-1)
REM options -cpp -mtune=generic -march=x86-64 -g -O0 -fpre-include=/usr/include/finclude/math-vector-fortran.h
REM seed 750559120 -2016336470 1951885015 -294529666 1344978694 -1374526213 377314380 -249709313 1421847510 985356667 -1974721652 -344633949 1421299550 -641352678 887254475 -1981218525 436782053 -1525921589 1374991656 -386195540 -72598879 1173650047 -681999891 1424196333 -1600141830 -1422288155 221084909 -1470268536 -1367247788 749020852 1998866038 -834347169 957025845
REM
CELL 1.54180   50.00000   50.00000   50.00000   90.00000   90.00000   90.00000
LATT -1
SFAC C  
C      1  0.4964470000000  0.5523760000000  0.6123360000000 1.0
C      1  0.6481580000000  0.4666910000000  0.5249710000000 1.0
C      1  0.4525880000000  0.3920810000000  0.5180460000000 1.0
C      1  0.4830050000000  0.4851340000000  0.3960570000000 1.0
C      1  0.4808670000000  0.4309820000000  0.5423370000000 1.0
C      1  0.4611820000000  0.5163540000000  0.5667280000000 1.0
C      1  0.4833220000000  0.5677740000000  0.5402520000000 1.0
C      1  0.5920440000000  0.5498200000000  0.4816710000000 1.0
C      1  0.4763770000000  0.5816850000000  0.4974220000000 1.0
C      1  0.5696740000000  0.5167640000000  0.5129270000000 1.0
C      1  0.5630880000000  0.4921110000000  0.4179340000000 1.0
C      1  0.4079750000000  0.4989080000000  0.5457110000000 1.0
C      1  0.5464320000000  0.4691990000000  0.4137570000000 1.0
C      1  0.4055820000000  0.4803860000000  0.4895240000000 1.0
C      1  0.4601650000000  0.4913060000000  0.4139280000000 1.0
C      1  0.5294940000000  0.6019990000000  0.4889680000000 1.0
C      1  0.5034140000000  0.6196720000000  0.4513320000000 1.0
C      1  0.6069620000000  0.4630770000000  0.5508580000000 1.0
C      1  0.5272900000000  0.4684130000000  0.4817940000000 1.0
C      1  0.5567560000000  0.5112910000000  0.5384420000000 1.0
C      1  0.5139020000000  0.6061540000000  0.5418220000000 1.0
C      1  0.4874570000000  0.4602140000000  0.4617430000000 1.0
C      1  0.6247250000000  0.5069790000000  0.5356970000000 1.0
C      1  0.6091450000000  0.4453160000000  0.4747780000000 1.0
C      1  0.4634510000000  0.5494010000000  0.5520780000000 1.0
C      1  0.4214840000000  0.4239860000000  0.4545890000000 1.0
C      1  0.5344700000000  0.5801130000000  0.4694760000000 1.0
C      1  0.4034390000000  0.4722060000000  0.5444760000000 1.0
C      1  0.5171180000000  0.5291070000000  0.5190080000000 1.0
C      1  0.5579270000000  0.5017710000000  0.4922250000000 1.0
C      1  0.4375540000000  0.5873280000000  0.4745080000000 1.0
C      1  0.5257640000000  0.5999500000000  0.5672690000000 1.0
C      1  0.5326140000000  0.5289810000000  0.5450330000000 1.0
C      1  0.4281320000000  0.4529360000000  0.4170400000000 1.0
C      1  0.4003240000000  0.5671360000000  0.5268450000000 1.0
C      1  0.4532780000000  0.4865880000000  0.5632830000000 1.0
C      1  0.5065650000000  0.4243900000000  0.5334360000000 1.0
C      1  0.5655990000000  0.5199280000000  0.4114760000000 1.0
C      1  0.4887470000000  0.4345160000000  0.4120460000000 1.0
C      1  0.5015840000000  0.3937320000000  0.4775470000000 1.0
C      1  0.4572490000000  0.5680080000000  0.4250350000000 1.0
C      1  0.4929290000000  0.5645480000000  0.5125350000000 1.0
C      1  0.4742680000000  0.4570000000000  0.5349610000000 1.0
C      1  0.6152720000000  0.5265590000000  0.5200610000000 1.0
C      1  0.4478430000000  0.4677210000000  0.5389520000000 1.0
C      1  0.4570050000000  0.5686010000000  0.4824280000000 1.0
C      1  0.4793280000000  0.4076440000000  0.4725700000000 1.0
C      1  0.4931570000000  0.4776870000000  0.5411730000000 1.0
C      1  0.5121900000000  0.5250570000000  0.4393470000000 1.0
C      1  0.4916650000000  0.4569680000000  0.3923060000000 1.0
C      1  0.4182480000000  0.5469410000000  0.5715170000000 1.0
C      1  0.5173610000000  0.3980050000000  0.5355920000000 1.0
C      1  0.4360900000000  0.4283100000000  0.4294070000000 1.0
C      1  0.5310350000000  0.5486800000000  0.4024170000000 1.0
C      1  0.5088660000000  0.4842550000000  0.5667220000000 1.0
C      1  0.5074280000000  0.5050350000000  0.6150710000000 1.0
C      1  0.4649840000000  0.4220970000000  0.5644300000000 1.0
C      1  0.5955800000000  0.4678160000000  0.5765520000000 1.0
C      1  0.5594160000000  0.4102220000000  0.5151500000000 1.0
C      1  0.5275450000000  0.4573990000000  0.4342510000000 1.0
C      1  0.4244620000000  0.5787690000000  0.5373200000000 1.0
C      1  0.4294990000000  0.5224690000000  0.4772890000000 1.0
C      1  0.5595270000000  0.4345220000000  0.4723920000000 1.0
C      1  0.5272870000000  0.3995880000000  0.4682970000000 1.0
C      1  0.4595610000000  0.5241440000000  0.5950480000000 1.0
C      1  0.5491870000000  0.5133460000000  0.4685430000000 1.0
C      1  0.6349040000000  0.4499850000000  0.4799370000000 1.0
C      1  0.5455510000000  0.4036030000000  0.5408140000000 1.0
C      1  0.5491170000000  0.4753320000000  0.5951900000000 1.0
C      1  0.4562710000000  0.5387180000000  0.4799920000000 1.0
C      1  0.5453100000000  0.5629490000000  0.4237940000000 1.0
C      1  0.4681770000000  0.5134940000000  0.4300630000000 1.0
C      1  0.5311690000000  0.5979340000000  0.5183030000000 1.0
C      1  0.4222460000000  0.4581400000000  0.5279540000000 1.0
C      1  0.4171870000000  0.5306250000000  0.5041350000000 1.0
C      1  0.5314360000000  0.4905400000000  0.6134480000000 1.0
C      1  0.5960150000000  0.4423410000000  0.5344650000000 1.0
C      1  0.5053150000000  0.5960170000000  0.4350090000000 1.0
C      1  0.4729490000000  0.6047520000000  0.5149860000000 1.0
C      1  0.4026100000000  0.5562440000000  0.5001820000000 1.0
C      1  0.4127730000000  0.4545900000000  0.5001830000000 1.0
C      1  0.5296250000000  0.5319000000000  0.4608790000000 1.0
C      1  0.5066270000000  0.4415710000000  0.5920500000000 1.0
C      1  0.5726140000000  0.4576210000000  0.5902250000000 1.0
C      1  0.5305920000000  0.5724520000000  0.5739400000000 1.0
C      1  0.4177990000000  0.5801580000000  0.4561120000000 1.0
C      1  0.5845630000000  0.4387100000000  0.4859470000000 1.0
C      1  0.4853880000000  0.5689520000000  0.6311030000000 1.0
C      1  0.5679900000000  0.5434480000000  0.4304450000000 1.0
C      1  0.5402900000000  0.4530710000000  0.4615120000000 1.0
C      1  0.3907360000000  0.5475680000000  0.5478300000000 1.0
C      1  0.4636340000000  0.4227930000000  0.4209640000000 1.0
C      1  0.5177960000000  0.5611230000000  0.5961100000000 1.0
C      1  0.4858370000000  0.5983640000000  0.5407450000000 1.0
C      1  0.3733420000000  0.5271760000000  0.5369930000000 1.0
C      1  0.5285950000000  0.5093480000000  0.3769590000000 1.0
C      1  0.3802420000000  0.4946240000000  0.4930050000000 1.0
C      1  0.5407400000000  0.4598290000000  0.3873800000000 1.0
C      1  0.5834220000000  0.5443310000000  0.4546680000000 1.0
C      1  0.4019090000000  0.5605990000000  0.4700920000000 1.0
C      1  0.3699480000000  0.5034160000000  0.4679310000000 1.0
C      1  0.6508960000000  0.4567880000000  0.5002530000000 1.0
C      1  0.5519010000000  0.4835090000000  0.5456870000000 1.0
C      1  0.6065650000000  0.6010860000000  0.4913440000000 1.0
C      1  0.5036210000000  0.5081850000000  0.3926770000000 1.0
C      1  0.5256480000000  0.4450230000000  0.5280660000000 1.0
C      1  0.4821000000000  0.5002260000000  0.5298670000000 1.0
C      1  0.5306010000000  0.5818590000000  0.4404960000000 1.0
C      1  0.5160350000000  0.4546480000000  0.3772630000000 1.0
C      1  0.5128630000000  0.5152040000000  0.5643710000000 1.0
C      1  0.4543290000000  0.4400320000000  0.5823980000000 1.0
C      1  0.5472320000000  0.4158980000000  0.5685480000000 1.0
C      1  0.5400750000000  0.5576100000000  0.5511260000000 1.0
C      1  0.5377780000000  0.4776980000000  0.5690340000000 1.0
C      1  0.5144710000000  0.4300050000000  0.4264370000000 1.0
C      1  0.5440560000000  0.4664050000000  0.5248130000000 1.0
C      1  0.4907130000000  0.5200010000000  0.5143100000000 1.0
C      1  0.4783320000000  0.5224940000000  0.4891840000000 1.0
C      1  0.4602740000000  0.4267920000000  0.4814360000000 1.0
C      1  0.4935650000000  0.4666350000000  0.5864170000000 1.0
C      1  0.5148520000000  0.6228710000000  0.4760020000000 1.0
C      1  0.4315100000000  0.5353930000000  0.5953410000000 1.0
C      1  0.6008800000000  0.5761450000000  0.4863670000000 1.0
C      1  0.5172250000000  0.5528960000000  0.5040440000000 1.0
C      1  0.4408970000000  0.4755150000000  0.4279790000000 1.0
C      1  0.4926930000000  0.5040580000000  0.4451810000000 1.0
C      1  0.5481450000000  0.5277900000000  0.3888180000000 1.0
C      1  0.5009560000000  0.4740530000000  0.4387680000000 1.0
C      1  0.5921830000000  0.5322690000000  0.5049530000000 1.0
C      1  0.3845700000000  0.5185970000000  0.4508840000000 1.0
C      1  0.4191870000000  0.5157700000000  0.5277750000000 1.0
C      1  0.5453180000000  0.5742380000000  0.5278980000000 1.0
C      1  0.4475250000000  0.4145650000000  0.5038980000000 1.0
C      1  0.4068230000000  0.5339500000000  0.4586820000000 1.0
C      1  0.4603090000000  0.5398990000000  0.4253960000000 1.0
C      1  0.4609190000000  0.4528610000000  0.4678350000000 1.0
C      1  0.5675340000000  0.4303270000000  0.5822890000000 1.0
C      1  0.3709140000000  0.5086350000000  0.5167100000000 1.0
C      1  0.5824110000000  0.4291990000000  0.5135400000000 1.0
C      1  0.6277760000000  0.4793240000000  0.5397910000000 1.0
C      1  0.5260520000000  0.4078440000000  0.4405170000000 1.0
C      1  0.4304530000000  0.5774620000000  0.4304790000000 1.0
C      1  0.4810910000000  0.5840160000000  0.4255730000000 1.0
C      1  0.5474010000000  0.4106090000000  0.4859290000000 1.0
C      1  0.4725050000000  0.3765210000000  0.5273560000000 1.0
C      1  0.5222300000000  0.4216280000000  0.5823820000000 1.0
C      1  0.4863350000000  0.5254190000000  0.6090390000000 1.0
C      1  0.4275370000000  0.4921770000000  0.4741260000000 1.0
C      1  0.4999890000000  0.4756870000000  0.4825390000000 1.0
C      1  0.4129260000000  0.4339780000000  0.4791280000000 1.0
C      1  0.4988200000000  0.3772040000000  0.5333610000000 1.0
C      1  0.4646240000000  0.4670260000000  0.5835860000000 1.0
C      1  0.5451190000000  0.4783560000000  0.4999620000000 1.0
C      1  0.5093760000000  0.5315260000000  0.4117180000000 1.0
C      1  0.4424690000000  0.4739320000000  0.4575400000000 1.0
C      1  0.4899490000000  0.5017970000000  0.4746690000000 1.0
C      1  0.5278820000000  0.5543020000000  0.4784920000000 1.0
C      1  0.4377590000000  0.5616020000000  0.5556470000000 1.0
END
