TITL C-599895-9959-82 0.12155297184926 125000 -109.387808110816 0 0 21 (C1) n - 1
REM
REM in /home/nfs/bkarasulu/CARBON/AIRSS/Generating-Clusters/TERSOFF/Only-C1/FIRE-HFTN
REM
REM
REM
REM
REM
REM ./C.cell (11c1c37f851c82e70ff6c80c92926a4b)
REM AIRSS Version 0.9.1 bugfix July 2018 build 013d7b7c2542+ Fri, 06 Jul 2018 19:26:36 +0100
REM compiler GCC version 9.2.1 20190827 (Red Hat 9.2.1-1)
REM options -cpp -mtune=generic -march=x86-64 -g -O0 -fpre-include=/usr/include/finclude/math-vector-fortran.h
REM seed -146074011 -1235693508 -1622643035 1877489406 1861069527 -1036198813 -696409378 -1812556074 -1534736859 1779322237 -1224445981 -2062933335 618725026 -1135085315 1770956499 1142831598 685996749 -947800749 -944746968 169027888 -1714513191 -1852648710 844080863 -452604269 951214241 2028718788 1566037183 2085792122 -1511392662 -438806531 -2120445657 -1975700996 -973244294
REM
CELL 1.54180   50.00000   50.00000   50.00000   90.00000   90.00000   90.00000
LATT -1
SFAC C  
C      1  0.4919860000000  0.4527300000000  0.4380420000000 1.0
C      1  0.4931620000000  0.5140870000000  0.5535200000000 1.0
C      1  0.5045950000000  0.5226710000000  0.5070080000000 1.0
C      1  0.5395070000000  0.5136160000000  0.5396140000000 1.0
C      1  0.4683060000000  0.4596750000000  0.5235790000000 1.0
C      1  0.5348740000000  0.5086740000000  0.4424890000000 1.0
C      1  0.5004220000000  0.5418210000000  0.4523080000000 1.0
C      1  0.4750850000000  0.5122240000000  0.5722000000000 1.0
C      1  0.4928770000000  0.5475020000000  0.5001740000000 1.0
C      1  0.5649060000000  0.5104160000000  0.5444900000000 1.0
C      1  0.4956790000000  0.5496710000000  0.4266360000000 1.0
C      1  0.5124250000000  0.5166210000000  0.5334450000000 1.0
C      1  0.4998340000000  0.4636800000000  0.4603340000000 1.0
C      1  0.5097650000000  0.5056360000000  0.4844170000000 1.0
C      1  0.4496100000000  0.4526090000000  0.5409880000000 1.0
C      1  0.5075910000000  0.4754910000000  0.4866200000000 1.0
C      1  0.4314080000000  0.4462770000000  0.5585430000000 1.0
C      1  0.4908460000000  0.5562500000000  0.4746780000000 1.0
C      1  0.5151150000000  0.5180430000000  0.4589590000000 1.0
C      1  0.4872580000000  0.4679720000000  0.5070590000000 1.0
C      1  0.5347480000000  0.4643350000000  0.4948970000000 1.0
END
