TITL C-599895-9959-743 0.000615752960402401 125000 -444.47176621825 0 0 74 (C1) n - 1
REM
REM in /home/nfs/bkarasulu/CARBON/AIRSS/Generating-Clusters/TERSOFF/Only-C1/FIRE-HFTN
REM
REM
REM
REM
REM
REM ./C.cell (11c1c37f851c82e70ff6c80c92926a4b)
REM AIRSS Version 0.9.1 bugfix July 2018 build 013d7b7c2542+ Fri, 06 Jul 2018 19:26:36 +0100
REM compiler GCC version 9.2.1 20190827 (Red Hat 9.2.1-1)
REM options -cpp -mtune=generic -march=x86-64 -g -O0 -fpre-include=/usr/include/finclude/math-vector-fortran.h
REM seed -469984255 -1525710754 -943194656 2102162228 -1766209033 326543725 177587005 708523697 -1475503554 1728053001 -747294786 -144558727 -68114792 -1994689452 -1450068490 206177089 1581628011 1541055485 -1293367075 474712727 -1388645623 -328137425 1949370227 -1445013683 1249988562 1493456177 -1305967880 1637223855 1632500880 1739449602 -1491376181 15462097 -1729054294
REM
CELL 1.54180   50.00000   50.00000   50.00000   90.00000   90.00000   90.00000
LATT -1
SFAC C  
C      1  0.4460660000000  0.5241420000000  0.4217880000000 1.0
C      1  0.4464160000000  0.4889110000000  0.5063360000000 1.0
C      1  0.4929670000000  0.4115080000000  0.4324340000000 1.0
C      1  0.4148330000000  0.5487940000000  0.4823490000000 1.0
C      1  0.4634040000000  0.4545310000000  0.5846430000000 1.0
C      1  0.4820470000000  0.4272890000000  0.5318850000000 1.0
C      1  0.5736980000000  0.4630190000000  0.5231020000000 1.0
C      1  0.3915430000000  0.5712910000000  0.5422440000000 1.0
C      1  0.5246710000000  0.5089520000000  0.4020250000000 1.0
C      1  0.5402000000000  0.5369380000000  0.4581530000000 1.0
C      1  0.5464700000000  0.4484960000000  0.4864050000000 1.0
C      1  0.4730670000000  0.5700660000000  0.4735440000000 1.0
C      1  0.5044060000000  0.5043580000000  0.4940930000000 1.0
C      1  0.5559600000000  0.5272760000000  0.5178570000000 1.0
C      1  0.3947090000000  0.5597550000000  0.4957210000000 1.0
C      1  0.5569010000000  0.4180720000000  0.5400680000000 1.0
C      1  0.5462340000000  0.4804270000000  0.5638200000000 1.0
C      1  0.4957270000000  0.3904380000000  0.4173350000000 1.0
C      1  0.4897330000000  0.5427690000000  0.4220510000000 1.0
C      1  0.5040750000000  0.5162270000000  0.5567760000000 1.0
C      1  0.5493080000000  0.4462870000000  0.4366180000000 1.0
C      1  0.5699380000000  0.4641000000000  0.4937910000000 1.0
C      1  0.5734560000000  0.4863020000000  0.4752660000000 1.0
C      1  0.5297400000000  0.4843610000000  0.6064180000000 1.0
C      1  0.5325170000000  0.5098390000000  0.4566510000000 1.0
C      1  0.4512040000000  0.4969500000000  0.4166350000000 1.0
C      1  0.4864340000000  0.5783360000000  0.5217690000000 1.0
C      1  0.4827340000000  0.5815680000000  0.4955340000000 1.0
C      1  0.4896900000000  0.4820180000000  0.4521360000000 1.0
C      1  0.4431270000000  0.5110940000000  0.4915550000000 1.0
C      1  0.5393740000000  0.4872800000000  0.4083020000000 1.0
C      1  0.4369410000000  0.5676190000000  0.5669150000000 1.0
C      1  0.5857710000000  0.5101020000000  0.4843340000000 1.0
C      1  0.4391470000000  0.5354790000000  0.4777880000000 1.0
C      1  0.5002120000000  0.4877850000000  0.5534240000000 1.0
C      1  0.5544610000000  0.5698960000000  0.5503990000000 1.0
C      1  0.5312150000000  0.4107610000000  0.5397150000000 1.0
C      1  0.5426520000000  0.5010470000000  0.5855990000000 1.0
C      1  0.5592700000000  0.5496770000000  0.4745740000000 1.0
C      1  0.4352630000000  0.4813950000000  0.4010200000000 1.0
C      1  0.5537860000000  0.4903560000000  0.4537320000000 1.0
C      1  0.5246700000000  0.4606930000000  0.4999680000000 1.0
C      1  0.4910600000000  0.4331390000000  0.4476190000000 1.0
C      1  0.5051080000000  0.4144980000000  0.5357580000000 1.0
C      1  0.4848260000000  0.4558180000000  0.4626580000000 1.0
C      1  0.4590340000000  0.5488570000000  0.4616730000000 1.0
C      1  0.3793260000000  0.5693250000000  0.5171040000000 1.0
C      1  0.4860360000000  0.4561750000000  0.5991060000000 1.0
C      1  0.4542230000000  0.4544360000000  0.5593850000000 1.0
C      1  0.4625850000000  0.5635330000000  0.5612120000000 1.0
C      1  0.4822610000000  0.5591270000000  0.5418980000000 1.0
C      1  0.5235180000000  0.4883010000000  0.5073610000000 1.0
C      1  0.5464310000000  0.4357030000000  0.4614030000000 1.0
C      1  0.5660980000000  0.5759120000000  0.4723060000000 1.0
C      1  0.4115270000000  0.5705010000000  0.5597110000000 1.0
C      1  0.5590060000000  0.4828100000000  0.5384990000000 1.0
C      1  0.5539020000000  0.5478070000000  0.5365630000000 1.0
C      1  0.4582550000000  0.4634710000000  0.5095370000000 1.0
C      1  0.4927740000000  0.5332520000000  0.5371180000000 1.0
C      1  0.5503750000000  0.4738070000000  0.4305670000000 1.0
C      1  0.5087410000000  0.5296600000000  0.4082660000000 1.0
C      1  0.4698610000000  0.4532630000000  0.4860360000000 1.0
C      1  0.4923890000000  0.5235310000000  0.5104380000000 1.0
C      1  0.4631360000000  0.4484050000000  0.5333560000000 1.0
C      1  0.4744270000000  0.4875130000000  0.4292790000000 1.0
C      1  0.5253390000000  0.5221100000000  0.5755570000000 1.0
C      1  0.4644030000000  0.5413700000000  0.4347260000000 1.0
C      1  0.5706330000000  0.5320410000000  0.4938800000000 1.0
C      1  0.5451550000000  0.5010990000000  0.5214390000000 1.0
C      1  0.3532140000000  0.5765150000000  0.5135440000000 1.0
C      1  0.5186170000000  0.4689310000000  0.5650990000000 1.0
C      1  0.5122000000000  0.4646760000000  0.5938890000000 1.0
C      1  0.5749370000000  0.4371370000000  0.5344700000000 1.0
C      1  0.5065650000000  0.5010730000000  0.4657690000000 1.0
END
