TITL C-599893-4344-1429 0.838614625195693 125000 -691.227603673904 0 0 113 (C1) n - 1
REM
REM in /home/nfs/bkarasulu/CARBON/AIRSS/Generating-Clusters/TERSOFF/Only-C1/FIRE-HFTN
REM
REM
REM
REM
REM
REM ./C.cell (11c1c37f851c82e70ff6c80c92926a4b)
REM AIRSS Version 0.9.1 bugfix July 2018 build 013d7b7c2542+ Fri, 06 Jul 2018 19:26:36 +0100
REM compiler GCC version 9.2.1 20190827 (Red Hat 9.2.1-1)
REM options -cpp -mtune=generic -march=x86-64 -g -O0 -fpre-include=/usr/include/finclude/math-vector-fortran.h
REM seed 644195599 433426463 1515918204 1526509380 -507043559 489340751 -416197234 250673440 1050288861 680096439 1392787332 -132804547 -1517031794 -255996309 1002731915 -338672494 606593491 1922897582 1296602913 -1024040534 -592083939 -1242499621 37562247 -1871412505 570235355 -761154088 -1579836567 1415776997 -873987309 1904158166 10107600 -229467823 -2085685205
REM
CELL 1.54180   50.00000   50.00000   50.00000   90.00000   90.00000   90.00000
LATT -1
SFAC C  
C      1  0.5422650000000  0.5386160000000  0.5031930000000 1.0
C      1  0.4986680000000  0.3966340000000  0.4649020000000 1.0
C      1  0.4400330000000  0.5763400000000  0.5113150000000 1.0
C      1  0.4212110000000  0.4733850000000  0.4537650000000 1.0
C      1  0.4977140000000  0.5651910000000  0.4315130000000 1.0
C      1  0.4421650000000  0.5743030000000  0.5409630000000 1.0
C      1  0.4582720000000  0.5428790000000  0.4083450000000 1.0
C      1  0.5260580000000  0.5182710000000  0.4319680000000 1.0
C      1  0.5351780000000  0.5447160000000  0.5705700000000 1.0
C      1  0.4729290000000  0.4023920000000  0.4549440000000 1.0
C      1  0.4532670000000  0.5527290000000  0.3831260000000 1.0
C      1  0.4358300000000  0.5343600000000  0.4237680000000 1.0
C      1  0.3796980000000  0.4561220000000  0.4655210000000 1.0
C      1  0.5346630000000  0.5389560000000  0.4750080000000 1.0
C      1  0.5691510000000  0.4865670000000  0.4641780000000 1.0
C      1  0.4375470000000  0.4514290000000  0.4583600000000 1.0
C      1  0.5160330000000  0.5887240000000  0.5699520000000 1.0
C      1  0.5002490000000  0.5991520000000  0.5905480000000 1.0
C      1  0.4858890000000  0.5420000000000  0.4168400000000 1.0
C      1  0.5159330000000  0.4732690000000  0.4275560000000 1.0
C      1  0.4975220000000  0.4880870000000  0.4085140000000 1.0
C      1  0.4845130000000  0.5890140000000  0.5204230000000 1.0
C      1  0.4609410000000  0.5337160000000  0.5091020000000 1.0
C      1  0.5106070000000  0.5781300000000  0.5165650000000 1.0
C      1  0.5615060000000  0.6073480000000  0.5142300000000 1.0
C      1  0.5021060000000  0.4963830000000  0.4663340000000 1.0
C      1  0.4781670000000  0.4692320000000  0.3985040000000 1.0
C      1  0.4292730000000  0.4760640000000  0.6080770000000 1.0
C      1  0.5160850000000  0.4454930000000  0.4343160000000 1.0
C      1  0.4287390000000  0.4977310000000  0.5312440000000 1.0
C      1  0.3924930000000  0.5045530000000  0.4398850000000 1.0
C      1  0.4493400000000  0.4776180000000  0.5257610000000 1.0
C      1  0.4900620000000  0.4427680000000  0.3945380000000 1.0
C      1  0.4823620000000  0.4604060000000  0.4923220000000 1.0
C      1  0.5242530000000  0.4538610000000  0.5472130000000 1.0
C      1  0.4701250000000  0.5891430000000  0.4716690000000 1.0
C      1  0.5400920000000  0.6138720000000  0.4386630000000 1.0
C      1  0.5545890000000  0.5859500000000  0.4973410000000 1.0
C      1  0.4370590000000  0.4438900000000  0.4865790000000 1.0
C      1  0.4490290000000  0.3927770000000  0.4667430000000 1.0
C      1  0.4731390000000  0.4854600000000  0.5395390000000 1.0
C      1  0.5358190000000  0.6049690000000  0.5581400000000 1.0
C      1  0.4896390000000  0.5211650000000  0.5973080000000 1.0
C      1  0.4960780000000  0.4303340000000  0.4198630000000 1.0
C      1  0.5365460000000  0.5403320000000  0.4459690000000 1.0
C      1  0.5172630000000  0.4980290000000  0.5252420000000 1.0
C      1  0.5152270000000  0.5123440000000  0.5984180000000 1.0
C      1  0.5365760000000  0.5669840000000  0.5101840000000 1.0
C      1  0.4546650000000  0.4635260000000  0.4142270000000 1.0
C      1  0.5646430000000  0.4039180000000  0.6181380000000 1.0
C      1  0.5954930000000  0.3447300000000  0.5781690000000 1.0
C      1  0.4339130000000  0.5484550000000  0.5540530000000 1.0
C      1  0.4924080000000  0.5211920000000  0.4763890000000 1.0
C      1  0.5718310000000  0.4988920000000  0.5518820000000 1.0
C      1  0.5245410000000  0.4079690000000  0.4653390000000 1.0
C      1  0.4563590000000  0.4973190000000  0.4716630000000 1.0
C      1  0.4198200000000  0.5171190000000  0.4392000000000 1.0
C      1  0.5806520000000  0.3963610000000  0.5730050000000 1.0
C      1  0.5526400000000  0.6131020000000  0.5389950000000 1.0
C      1  0.5568100000000  0.4700620000000  0.4837150000000 1.0
C      1  0.4379040000000  0.5493990000000  0.5038750000000 1.0
C      1  0.5424510000000  0.5878070000000  0.4481840000000 1.0
C      1  0.5884080000000  0.3696720000000  0.5755510000000 1.0
C      1  0.5368120000000  0.6383690000000  0.4304060000000 1.0
C      1  0.4666650000000  0.5192010000000  0.4861700000000 1.0
C      1  0.5188440000000  0.4691010000000  0.5245220000000 1.0
C      1  0.5643170000000  0.4974690000000  0.5246830000000 1.0
C      1  0.5022590000000  0.5180650000000  0.4136000000000 1.0
C      1  0.4807190000000  0.5322870000000  0.5315980000000 1.0
C      1  0.4849300000000  0.6072060000000  0.6100320000000 1.0
C      1  0.5598250000000  0.5042750000000  0.5753230000000 1.0
C      1  0.5382190000000  0.5199760000000  0.5837940000000 1.0
C      1  0.5269150000000  0.4358930000000  0.4590700000000 1.0
C      1  0.4983540000000  0.4452910000000  0.5869940000000 1.0
C      1  0.4528910000000  0.4440920000000  0.4357920000000 1.0
C      1  0.5612100000000  0.5812310000000  0.4696610000000 1.0
C      1  0.5104900000000  0.4573140000000  0.5000190000000 1.0
C      1  0.4679290000000  0.5878390000000  0.5449510000000 1.0
C      1  0.5266490000000  0.5661260000000  0.4373680000000 1.0
C      1  0.4346740000000  0.4980190000000  0.4549720000000 1.0
C      1  0.5918890000000  0.4316380000000  0.5343480000000 1.0
C      1  0.4725230000000  0.4232890000000  0.4354790000000 1.0
C      1  0.5690590000000  0.4733980000000  0.5096230000000 1.0
C      1  0.5619670000000  0.4077820000000  0.5911850000000 1.0
C      1  0.5846860000000  0.4527800000000  0.5201000000000 1.0
C      1  0.5213600000000  0.4408160000000  0.5717600000000 1.0
C      1  0.5469880000000  0.3928800000000  0.4719690000000 1.0
C      1  0.4517790000000  0.4636510000000  0.6037140000000 1.0
C      1  0.4747490000000  0.5376310000000  0.5798940000000 1.0
C      1  0.5813410000000  0.5617810000000  0.4640370000000 1.0
C      1  0.4890670000000  0.5467300000000  0.5561610000000 1.0
C      1  0.4639260000000  0.5888590000000  0.4991680000000 1.0
C      1  0.5216340000000  0.4937950000000  0.4465470000000 1.0
C      1  0.4473260000000  0.5436380000000  0.5789470000000 1.0
C      1  0.4808960000000  0.5809490000000  0.4484200000000 1.0
C      1  0.5410680000000  0.4233970000000  0.5810850000000 1.0
C      1  0.5685000000000  0.3805520000000  0.4799990000000 1.0
C      1  0.3928550000000  0.4770230000000  0.4513900000000 1.0
C      1  0.4552610000000  0.4573220000000  0.5045960000000 1.0
C      1  0.5067860000000  0.5438180000000  0.4780270000000 1.0
C      1  0.5323660000000  0.4539700000000  0.4807080000000 1.0
C      1  0.5907200000000  0.4121540000000  0.5522700000000 1.0
C      1  0.4246590000000  0.5232120000000  0.5415310000000 1.0
C      1  0.4259490000000  0.3989000000000  0.4796400000000 1.0
C      1  0.4916740000000  0.5059270000000  0.5333860000000 1.0
C      1  0.5135120000000  0.5610050000000  0.5629090000000 1.0
C      1  0.4157630000000  0.4242930000000  0.4874080000000 1.0
C      1  0.5876410000000  0.5358480000000  0.4604300000000 1.0
C      1  0.5409660000000  0.5133020000000  0.5177030000000 1.0
C      1  0.4751230000000  0.4529120000000  0.5971980000000 1.0
C      1  0.4795030000000  0.4789840000000  0.4707650000000 1.0
C      1  0.5822150000000  0.5095500000000  0.4591290000000 1.0
C      1  0.3901060000000  0.4352470000000  0.4801100000000 1.0
END
