TITL C-599897-7526-1186 -8.97832966869803 125000 -299.400116188056 0 0 51 (C1) n - 1
REM
REM in /home/nfs/bkarasulu/CARBON/AIRSS/Generating-Clusters/TERSOFF/Only-C1/FIRE-HFTN
REM
REM
REM
REM
REM
REM ./C.cell (11c1c37f851c82e70ff6c80c92926a4b)
REM AIRSS Version 0.9.1 bugfix July 2018 build 013d7b7c2542+ Fri, 06 Jul 2018 19:26:36 +0100
REM compiler GCC version 9.2.1 20190827 (Red Hat 9.2.1-1)
REM options -cpp -mtune=generic -march=x86-64 -g -O0 -fpre-include=/usr/include/finclude/math-vector-fortran.h
REM seed 227580125 1945403446 391912272 -1169979742 -198910185 771549586 -142138236 504662560 688008570 521533011 -1500136774 2088867339 -476639399 1417063818 -2135799522 -1157497082 -584006938 1131284681 -1615662825 -995510980 -27973235 1438549010 1786261809 1666750802 951011841 -934102442 -1186793858 -1080460642 -563314550 1884677509 1148737719 -147079568 1523183297
REM
CELL 1.54180   50.00000   50.00000   50.00000   90.00000   90.00000   90.00000
LATT -1
SFAC C  
C      1  0.5252330000000  0.5571270000000  0.4655830000000 1.0
C      1  0.4474610000000  0.4657890000000  0.5707770000000 1.0
C      1  0.4879840000000  0.5178900000000  0.5349630000000 1.0
C      1  0.4779080000000  0.4421750000000  0.4977230000000 1.0
C      1  0.5199690000000  0.4729600000000  0.4362310000000 1.0
C      1  0.5378970000000  0.5505480000000  0.5504690000000 1.0
C      1  0.4408190000000  0.5213110000000  0.5388400000000 1.0
C      1  0.4504440000000  0.5523630000000  0.5004050000000 1.0
C      1  0.5719020000000  0.5451680000000  0.4593430000000 1.0
C      1  0.5569280000000  0.5068320000000  0.5067770000000 1.0
C      1  0.4710920000000  0.4656640000000  0.4513940000000 1.0
C      1  0.4629860000000  0.5054820000000  0.5289790000000 1.0
C      1  0.4920560000000  0.5294130000000  0.5611250000000 1.0
C      1  0.5298200000000  0.3909220000000  0.4878530000000 1.0
C      1  0.4607460000000  0.4779100000000  0.5246860000000 1.0
C      1  0.4661370000000  0.5181640000000  0.4396590000000 1.0
C      1  0.4567460000000  0.5375370000000  0.4775220000000 1.0
C      1  0.6116180000000  0.5414390000000  0.4251210000000 1.0
C      1  0.5223790000000  0.5844650000000  0.4668280000000 1.0
C      1  0.4485820000000  0.5045400000000  0.4678930000000 1.0
C      1  0.5160980000000  0.4111650000000  0.4980230000000 1.0
C      1  0.5436100000000  0.3707290000000  0.4776240000000 1.0
C      1  0.5129750000000  0.5191520000000  0.4353300000000 1.0
C      1  0.5323860000000  0.4978170000000  0.4367330000000 1.0
C      1  0.5052120000000  0.5419050000000  0.4518500000000 1.0
C      1  0.4967010000000  0.5574970000000  0.5108050000000 1.0
C      1  0.5010120000000  0.5294750000000  0.5128760000000 1.0
C      1  0.4437450000000  0.5182610000000  0.5676990000000 1.0
C      1  0.5571750000000  0.3508690000000  0.4675620000000 1.0
C      1  0.5499310000000  0.4833790000000  0.5176060000000 1.0
C      1  0.4625620000000  0.4661090000000  0.4987640000000 1.0
C      1  0.4388960000000  0.4440980000000  0.5850170000000 1.0
C      1  0.5084480000000  0.5124050000000  0.4929780000000 1.0
C      1  0.5023040000000  0.4329430000000  0.5083330000000 1.0
C      1  0.4336560000000  0.5418160000000  0.5209190000000 1.0
C      1  0.5495510000000  0.5455350000000  0.4763680000000 1.0
C      1  0.4656860000000  0.4628840000000  0.5488960000000 1.0
C      1  0.5920260000000  0.5434370000000  0.4422030000000 1.0
C      1  0.5502960000000  0.5497310000000  0.5266490000000 1.0
C      1  0.4755050000000  0.5419320000000  0.4552870000000 1.0
C      1  0.5116940000000  0.4480280000000  0.5307990000000 1.0
C      1  0.4911780000000  0.4757610000000  0.4345690000000 1.0
C      1  0.4575980000000  0.4785460000000  0.4733990000000 1.0
C      1  0.5345610000000  0.4640850000000  0.5278950000000 1.0
C      1  0.4877560000000  0.5042310000000  0.4287610000000 1.0
C      1  0.4683330000000  0.5301220000000  0.5768950000000 1.0
C      1  0.4383640000000  0.4919970000000  0.5770470000000 1.0
C      1  0.4919320000000  0.4523610000000  0.5506990000000 1.0
C      1  0.5166820000000  0.5424460000000  0.5648720000000 1.0
C      1  0.5532690000000  0.5347080000000  0.5028490000000 1.0
C      1  0.4721510000000  0.5688770000000  0.5085260000000 1.0
END
