TITL C-599895-9959-1070 35.9393964186374 125000 -550.70496414415 0 0 91 (C1) n - 1
REM
REM in /home/nfs/bkarasulu/CARBON/AIRSS/Generating-Clusters/TERSOFF/Only-C1/FIRE-HFTN
REM
REM
REM
REM
REM
REM ./C.cell (11c1c37f851c82e70ff6c80c92926a4b)
REM AIRSS Version 0.9.1 bugfix July 2018 build 013d7b7c2542+ Fri, 06 Jul 2018 19:26:36 +0100
REM compiler GCC version 9.2.1 20190827 (Red Hat 9.2.1-1)
REM options -cpp -mtune=generic -march=x86-64 -g -O0 -fpre-include=/usr/include/finclude/math-vector-fortran.h
REM seed 102467764 2005594651 -1959702144 -770026587 1148570411 491799908 -1688577697 1946521472 1170181431 -2106501997 565914112 -689840638 2027311148 -980320144 879831886 1395982379 -724069298 -1874633329 -711388789 569392675 647866844 -300577878 2069132640 -1561470772 962348545 -52178682 -2139819892 756008167 625720968 -1609744145 -982850251 -438579497 -463804440
REM
CELL 1.54180   50.00000   50.00000   50.00000   90.00000   90.00000   90.00000
LATT -1
SFAC C  
C      1  0.4583480000000  0.4968100000000  0.5962280000000 1.0
C      1  0.5850260000000  0.4650720000000  0.5333670000000 1.0
C      1  0.5188230000000  0.5178650000000  0.4482400000000 1.0
C      1  0.5033810000000  0.4636630000000  0.5312220000000 1.0
C      1  0.5407210000000  0.4389960000000  0.5251330000000 1.0
C      1  0.4384740000000  0.4356590000000  0.5011600000000 1.0
C      1  0.5098360000000  0.5633580000000  0.4705080000000 1.0
C      1  0.5209110000000  0.4323640000000  0.5952350000000 1.0
C      1  0.5220780000000  0.4422210000000  0.4557800000000 1.0
C      1  0.5202790000000  0.4559340000000  0.4814590000000 1.0
C      1  0.4345660000000  0.4684540000000  0.4432420000000 1.0
C      1  0.5408370000000  0.5315110000000  0.4352110000000 1.0
C      1  0.4727330000000  0.5266860000000  0.4957350000000 1.0
C      1  0.4733960000000  0.4963750000000  0.4541460000000 1.0
C      1  0.4108990000000  0.4747340000000  0.5113300000000 1.0
C      1  0.6020100000000  0.4750000000000  0.5151320000000 1.0
C      1  0.4721320000000  0.4992730000000  0.4827630000000 1.0
C      1  0.5561050000000  0.4769350000000  0.4196080000000 1.0
C      1  0.5095120000000  0.5856820000000  0.5665200000000 1.0
C      1  0.4521100000000  0.5744580000000  0.5037920000000 1.0
C      1  0.4642010000000  0.4900730000000  0.5692220000000 1.0
C      1  0.4612230000000  0.5550960000000  0.4463820000000 1.0
C      1  0.4856940000000  0.5969840000000  0.5626820000000 1.0
C      1  0.5004950000000  0.5172620000000  0.6045420000000 1.0
C      1  0.5149160000000  0.4879640000000  0.5201710000000 1.0
C      1  0.5121790000000  0.5029020000000  0.5826590000000 1.0
C      1  0.5379170000000  0.5455280000000  0.4112440000000 1.0
C      1  0.5272760000000  0.4443120000000  0.5718200000000 1.0
C      1  0.4993250000000  0.4158610000000  0.5362430000000 1.0
C      1  0.4291540000000  0.5142470000000  0.4521260000000 1.0
C      1  0.4653230000000  0.6004120000000  0.5458590000000 1.0
C      1  0.5592450000000  0.4569630000000  0.5406140000000 1.0
C      1  0.4762610000000  0.5196870000000  0.5234840000000 1.0
C      1  0.5463810000000  0.4658070000000  0.5664820000000 1.0
C      1  0.5238460000000  0.4349810000000  0.5009210000000 1.0
C      1  0.4755190000000  0.4250460000000  0.4629650000000 1.0
C      1  0.5895600000000  0.5230020000000  0.4580410000000 1.0
C      1  0.4119770000000  0.4989630000000  0.4707900000000 1.0
C      1  0.4067230000000  0.5009750000000  0.4994440000000 1.0
C      1  0.5571960000000  0.4447280000000  0.3837160000000 1.0
C      1  0.5984820000000  0.4801770000000  0.4877670000000 1.0
C      1  0.5486980000000  0.4912630000000  0.3742860000000 1.0
C      1  0.5303240000000  0.5735490000000  0.5551490000000 1.0
C      1  0.4236750000000  0.4677420000000  0.5366400000000 1.0
C      1  0.4972330000000  0.4312690000000  0.4478570000000 1.0
C      1  0.4480090000000  0.4935850000000  0.4419830000000 1.0
C      1  0.5659730000000  0.5193250000000  0.4425160000000 1.0
C      1  0.5584670000000  0.4914890000000  0.4432480000000 1.0
C      1  0.4923630000000  0.4988660000000  0.5619920000000 1.0
C      1  0.4975840000000  0.4197360000000  0.5067430000000 1.0
C      1  0.4653670000000  0.4802700000000  0.5053930000000 1.0
C      1  0.4744140000000  0.4178020000000  0.5489550000000 1.0
C      1  0.4766330000000  0.4597880000000  0.5234470000000 1.0
C      1  0.5315570000000  0.5491650000000  0.5130240000000 1.0
C      1  0.6025590000000  0.5057010000000  0.4749620000000 1.0
C      1  0.4115860000000  0.5383440000000  0.5374090000000 1.0
C      1  0.4995200000000  0.5082490000000  0.5352420000000 1.0
C      1  0.4615370000000  0.4407840000000  0.5398910000000 1.0
C      1  0.5430190000000  0.5675870000000  0.5309640000000 1.0
C      1  0.5621730000000  0.5853620000000  0.5203780000000 1.0
C      1  0.4535240000000  0.5924470000000  0.5233520000000 1.0
C      1  0.4706750000000  0.4243060000000  0.4912030000000 1.0
C      1  0.4435060000000  0.4868870000000  0.5484150000000 1.0
C      1  0.4958840000000  0.5045690000000  0.4392890000000 1.0
C      1  0.4384250000000  0.5405410000000  0.4477580000000 1.0
C      1  0.4162520000000  0.4691280000000  0.4652050000000 1.0
C      1  0.4718120000000  0.5202850000000  0.6059970000000 1.0
C      1  0.4352790000000  0.4413450000000  0.5306070000000 1.0
C      1  0.5200660000000  0.5422900000000  0.4883910000000 1.0
C      1  0.5216590000000  0.5160570000000  0.4770050000000 1.0
C      1  0.5475690000000  0.5995940000000  0.4757500000000 1.0
C      1  0.5387040000000  0.5392700000000  0.3852170000000 1.0
C      1  0.4551510000000  0.4998660000000  0.5258080000000 1.0
C      1  0.4192840000000  0.4549100000000  0.4898860000000 1.0
C      1  0.5558130000000  0.4827080000000  0.4702270000000 1.0
C      1  0.5540700000000  0.4704460000000  0.3923560000000 1.0
C      1  0.5430170000000  0.5171070000000  0.3708690000000 1.0
C      1  0.5770950000000  0.4648890000000  0.4763190000000 1.0
C      1  0.5721910000000  0.4396470000000  0.4640940000000 1.0
C      1  0.4052310000000  0.5236190000000  0.5159220000000 1.0
C      1  0.4396170000000  0.5510760000000  0.5807190000000 1.0
C      1  0.5170970000000  0.4390520000000  0.5447790000000 1.0
C      1  0.5487790000000  0.4326660000000  0.4514100000000 1.0
C      1  0.4596940000000  0.5512250000000  0.4931920000000 1.0
C      1  0.5290900000000  0.4854360000000  0.4873980000000 1.0
C      1  0.5375840000000  0.4905590000000  0.5777690000000 1.0
C      1  0.5263520000000  0.5859370000000  0.4669500000000 1.0
C      1  0.5633230000000  0.5993150000000  0.4974550000000 1.0
C      1  0.4236600000000  0.5475810000000  0.5594690000000 1.0
C      1  0.4577760000000  0.5438970000000  0.5992850000000 1.0
C      1  0.4860680000000  0.5614530000000  0.4548370000000 1.0
END
