TITL C-599897-7526-1421 0.39689713244227 125000 -432.15190941819 0 0 73 (C1) n - 1
REM
REM in /home/nfs/bkarasulu/CARBON/AIRSS/Generating-Clusters/TERSOFF/Only-C1/FIRE-HFTN
REM
REM
REM
REM
REM
REM ./C.cell (11c1c37f851c82e70ff6c80c92926a4b)
REM AIRSS Version 0.9.1 bugfix July 2018 build 013d7b7c2542+ Fri, 06 Jul 2018 19:26:36 +0100
REM compiler GCC version 9.2.1 20190827 (Red Hat 9.2.1-1)
REM options -cpp -mtune=generic -march=x86-64 -g -O0 -fpre-include=/usr/include/finclude/math-vector-fortran.h
REM seed -988479203 -884408933 -1527116359 -1748719780 267746745 -56605388 609233072 1520478979 -288488827 -1907233190 1122928 -1932937561 2090037082 1832023390 1401276969 -105690378 2087474737 -589979802 705007134 -329840789 -1059488611 589945255 -736816171 1853598388 -345842027 971498339 643256637 963866294 1380791428 -738509239 2005395761 1754205442 160029364
REM
CELL 1.54180   50.00000   50.00000   50.00000   90.00000   90.00000   90.00000
LATT -1
SFAC C  
C      1  0.5755770000000  0.5559230000000  0.5049590000000 1.0
C      1  0.5246860000000  0.5179100000000  0.4635480000000 1.0
C      1  0.4199440000000  0.4838030000000  0.5300140000000 1.0
C      1  0.4549650000000  0.4322850000000  0.5023490000000 1.0
C      1  0.4547780000000  0.5313570000000  0.4644900000000 1.0
C      1  0.5294390000000  0.4257250000000  0.4852360000000 1.0
C      1  0.5281880000000  0.5216220000000  0.5196440000000 1.0
C      1  0.4781830000000  0.5345310000000  0.5180470000000 1.0
C      1  0.5172200000000  0.5832580000000  0.5218410000000 1.0
C      1  0.5864880000000  0.4685680000000  0.5184930000000 1.0
C      1  0.5087160000000  0.5624290000000  0.5393230000000 1.0
C      1  0.4680940000000  0.4611670000000  0.4670710000000 1.0
C      1  0.5107140000000  0.5072070000000  0.4150200000000 1.0
C      1  0.5293120000000  0.5005870000000  0.4375980000000 1.0
C      1  0.4669690000000  0.4811260000000  0.4194080000000 1.0
C      1  0.4591930000000  0.5531520000000  0.5120160000000 1.0
C      1  0.5206800000000  0.4672890000000  0.5186890000000 1.0
C      1  0.5710280000000  0.4769540000000  0.4406630000000 1.0
C      1  0.4960430000000  0.4733450000000  0.5303510000000 1.0
C      1  0.5188130000000  0.4739850000000  0.4467840000000 1.0
C      1  0.4554950000000  0.5248760000000  0.5670500000000 1.0
C      1  0.5536470000000  0.4930270000000  0.4918490000000 1.0
C      1  0.4817590000000  0.4846850000000  0.4804270000000 1.0
C      1  0.5589850000000  0.5021480000000  0.4340480000000 1.0
C      1  0.4703340000000  0.5474330000000  0.5695010000000 1.0
C      1  0.5438190000000  0.5627970000000  0.4666060000000 1.0
C      1  0.5110510000000  0.4766190000000  0.4740370000000 1.0
C      1  0.4610550000000  0.5722520000000  0.4909100000000 1.0
C      1  0.5665600000000  0.5298770000000  0.4331770000000 1.0
C      1  0.5533010000000  0.4359340000000  0.5312310000000 1.0
C      1  0.4793060000000  0.5939370000000  0.4947310000000 1.0
C      1  0.5665330000000  0.4606340000000  0.5372490000000 1.0
C      1  0.4947900000000  0.5564300000000  0.4612410000000 1.0
C      1  0.5059660000000  0.4449180000000  0.5689000000000 1.0
C      1  0.5534070000000  0.4834570000000  0.5488590000000 1.0
C      1  0.5382000000000  0.4233950000000  0.5123480000000 1.0
C      1  0.4046450000000  0.5069900000000  0.5314310000000 1.0
C      1  0.4293020000000  0.4442590000000  0.4966940000000 1.0
C      1  0.5797840000000  0.4850490000000  0.4980420000000 1.0
C      1  0.5141210000000  0.4234050000000  0.5811470000000 1.0
C      1  0.5507530000000  0.4352110000000  0.4671610000000 1.0
C      1  0.4559040000000  0.4965510000000  0.5646450000000 1.0
C      1  0.4782050000000  0.4836900000000  0.5106000000000 1.0
C      1  0.5656150000000  0.4530190000000  0.4527780000000 1.0
C      1  0.4993200000000  0.5282730000000  0.4636370000000 1.0
C      1  0.5413750000000  0.5207080000000  0.4908970000000 1.0
C      1  0.4399200000000  0.4775440000000  0.5496400000000 1.0
C      1  0.4941770000000  0.4679830000000  0.5581980000000 1.0
C      1  0.5016390000000  0.4253010000000  0.4735530000000 1.0
C      1  0.5165180000000  0.5728740000000  0.4717540000000 1.0
C      1  0.3804370000000  0.5820530000000  0.5308570000000 1.0
C      1  0.4654960000000  0.5587160000000  0.4660980000000 1.0
C      1  0.5054560000000  0.5373670000000  0.5253010000000 1.0
C      1  0.5076830000000  0.5883060000000  0.4952750000000 1.0
C      1  0.5548030000000  0.5475980000000  0.4885160000000 1.0
C      1  0.4912570000000  0.5631050000000  0.5618800000000 1.0
C      1  0.4749100000000  0.4362810000000  0.4817260000000 1.0
C      1  0.5136540000000  0.4498770000000  0.4330930000000 1.0
C      1  0.4859520000000  0.4975560000000  0.4096370000000 1.0
C      1  0.5307590000000  0.4755680000000  0.4941350000000 1.0
C      1  0.3942080000000  0.5313340000000  0.5316940000000 1.0
C      1  0.4757960000000  0.5119120000000  0.4685840000000 1.0
C      1  0.4876350000000  0.4898350000000  0.6012630000000 1.0
C      1  0.4589540000000  0.4321870000000  0.5305360000000 1.0
C      1  0.5942840000000  0.5625090000000  0.5218600000000 1.0
C      1  0.4490290000000  0.4501480000000  0.5485240000000 1.0
C      1  0.3867430000000  0.5567640000000  0.5314150000000 1.0
C      1  0.4796870000000  0.4849230000000  0.5756000000000 1.0
C      1  0.5045450000000  0.4269840000000  0.4447010000000 1.0
C      1  0.4171870000000  0.4654440000000  0.5084560000000 1.0
C      1  0.5412630000000  0.5063260000000  0.5404270000000 1.0
C      1  0.5560510000000  0.5537490000000  0.4420350000000 1.0
C      1  0.4596930000000  0.4659650000000  0.4404970000000 1.0
END
