TITL C-599893-4344-1054 0.00463888662014815 125000 -996.033814333721 0 0 164 (C1) n - 1
REM
REM in /home/nfs/bkarasulu/CARBON/AIRSS/Generating-Clusters/TERSOFF/Only-C1/FIRE-HFTN
REM
REM
REM
REM
REM
REM ./C.cell (11c1c37f851c82e70ff6c80c92926a4b)
REM AIRSS Version 0.9.1 bugfix July 2018 build 013d7b7c2542+ Fri, 06 Jul 2018 19:26:36 +0100
REM compiler GCC version 9.2.1 20190827 (Red Hat 9.2.1-1)
REM options -cpp -mtune=generic -march=x86-64 -g -O0 -fpre-include=/usr/include/finclude/math-vector-fortran.h
REM seed -438196649 -1289223858 969338727 -641528397 -1781597308 1161568619 1910818404 10703570 165094191 -1088219970 1927264049 1789338029 1714095744 -1065365985 -835890974 -507174350 1589161694 779755276 1111915065 -1929934629 -1030620317 713537662 451649587 525262595 -2041725693 -471924364 -317004802 -994535591 -253865884 -946781341 -1477305156 1071175640 -1296500108
REM
CELL 1.54180   50.00000   50.00000   50.00000   90.00000   90.00000   90.00000
LATT -1
SFAC C  
C      1  0.4962610000000  0.5564240000000  0.3852370000000 1.0
C      1  0.5326330000000  0.4184880000000  0.4242750000000 1.0
C      1  0.4647600000000  0.4646420000000  0.5563560000000 1.0
C      1  0.4244660000000  0.4051050000000  0.4907260000000 1.0
C      1  0.4841790000000  0.5246340000000  0.4237730000000 1.0
C      1  0.6370530000000  0.5888170000000  0.5123300000000 1.0
C      1  0.4345210000000  0.5314370000000  0.4121940000000 1.0
C      1  0.4936700000000  0.3769800000000  0.4595360000000 1.0
C      1  0.4778050000000  0.5148980000000  0.6126980000000 1.0
C      1  0.4661180000000  0.4687390000000  0.5847390000000 1.0
C      1  0.4505930000000  0.5128440000000  0.4545820000000 1.0
C      1  0.5192350000000  0.3950540000000  0.4217460000000 1.0
C      1  0.5033750000000  0.6172590000000  0.4679690000000 1.0
C      1  0.5690570000000  0.5529040000000  0.4708430000000 1.0
C      1  0.5687480000000  0.4771050000000  0.4862510000000 1.0
C      1  0.4528860000000  0.4794330000000  0.5327330000000 1.0
C      1  0.5669280000000  0.4150210000000  0.4705850000000 1.0
C      1  0.4878280000000  0.5292470000000  0.5616450000000 1.0
C      1  0.4046790000000  0.5536470000000  0.5027460000000 1.0
C      1  0.4737740000000  0.3904180000000  0.5357890000000 1.0
C      1  0.5699760000000  0.4563320000000  0.5043350000000 1.0
C      1  0.4420060000000  0.5338040000000  0.4677770000000 1.0
C      1  0.5510690000000  0.4046590000000  0.5466700000000 1.0
C      1  0.4792330000000  0.4196420000000  0.6009420000000 1.0
C      1  0.4797560000000  0.6269240000000  0.5122850000000 1.0
C      1  0.5791290000000  0.5527280000000  0.4176360000000 1.0
C      1  0.4591260000000  0.6328260000000  0.4672760000000 1.0
C      1  0.4290480000000  0.5433810000000  0.5980520000000 1.0
C      1  0.5760300000000  0.4350500000000  0.5191670000000 1.0
C      1  0.5084370000000  0.5329530000000  0.3778860000000 1.0
C      1  0.4592510000000  0.5915060000000  0.5467130000000 1.0
C      1  0.4552570000000  0.5123360000000  0.4247900000000 1.0
C      1  0.4570360000000  0.4356160000000  0.5194380000000 1.0
C      1  0.5470260000000  0.4128140000000  0.4921020000000 1.0
C      1  0.5631130000000  0.5216700000000  0.5133830000000 1.0
C      1  0.5989430000000  0.4721550000000  0.5561490000000 1.0
C      1  0.4744400000000  0.4109300000000  0.4288600000000 1.0
C      1  0.4818090000000  0.4125150000000  0.5537900000000 1.0
C      1  0.5324060000000  0.5505770000000  0.4341430000000 1.0
C      1  0.4899370000000  0.5640960000000  0.6088100000000 1.0
C      1  0.4983780000000  0.5390400000000  0.4679450000000 1.0
C      1  0.4369890000000  0.3647910000000  0.5565090000000 1.0
C      1  0.6128150000000  0.5799000000000  0.5158000000000 1.0
C      1  0.5143660000000  0.5954570000000  0.5760270000000 1.0
C      1  0.6176830000000  0.4824410000000  0.4832120000000 1.0
C      1  0.4101520000000  0.4545110000000  0.5073890000000 1.0
C      1  0.4603030000000  0.6027670000000  0.4245940000000 1.0
C      1  0.5831960000000  0.4673250000000  0.5795280000000 1.0
C      1  0.4712780000000  0.5743720000000  0.5660420000000 1.0
C      1  0.5469760000000  0.5534390000000  0.3864020000000 1.0
C      1  0.5142580000000  0.5245210000000  0.5759710000000 1.0
C      1  0.4918640000000  0.5802730000000  0.5850110000000 1.0
C      1  0.4048640000000  0.4785440000000  0.4881410000000 1.0
C      1  0.4396360000000  0.5584620000000  0.4068210000000 1.0
C      1  0.5749780000000  0.5209930000000  0.5822500000000 1.0
C      1  0.4461260000000  0.3803980000000  0.5359400000000 1.0
C      1  0.4523290000000  0.6224590000000  0.4432270000000 1.0
C      1  0.5321460000000  0.4984240000000  0.4221130000000 1.0
C      1  0.4823300000000  0.3942800000000  0.5081700000000 1.0
C      1  0.5692860000000  0.4419520000000  0.5788560000000 1.0
C      1  0.5683400000000  0.5701810000000  0.4946860000000 1.0
C      1  0.5490320000000  0.5073600000000  0.4000600000000 1.0
C      1  0.5487210000000  0.4232250000000  0.5693520000000 1.0
C      1  0.4067900000000  0.5238010000000  0.4127500000000 1.0
C      1  0.5892700000000  0.4903540000000  0.5388210000000 1.0
C      1  0.4491800000000  0.4116820000000  0.4770680000000 1.0
C      1  0.4380840000000  0.4575600000000  0.5182780000000 1.0
C      1  0.5269460000000  0.4987380000000  0.5767590000000 1.0
C      1  0.5731190000000  0.4557750000000  0.4386160000000 1.0
C      1  0.5901860000000  0.5268680000000  0.4228240000000 1.0
C      1  0.4287910000000  0.3875270000000  0.5136670000000 1.0
C      1  0.4122410000000  0.4747670000000  0.4606460000000 1.0
C      1  0.5308860000000  0.5879330000000  0.5241700000000 1.0
C      1  0.4968230000000  0.5295300000000  0.5340430000000 1.0
C      1  0.4406750000000  0.5794630000000  0.5276470000000 1.0
C      1  0.5213310000000  0.4467410000000  0.5332230000000 1.0
C      1  0.5636160000000  0.5419410000000  0.5649490000000 1.0
C      1  0.4197510000000  0.5414970000000  0.5496090000000 1.0
C      1  0.3760910000000  0.4765050000000  0.5378140000000 1.0
C      1  0.5064940000000  0.4714630000000  0.4965320000000 1.0
C      1  0.4257620000000  0.4731480000000  0.4371890000000 1.0
C      1  0.4819160000000  0.6279200000000  0.4837390000000 1.0
C      1  0.5459840000000  0.3775060000000  0.5512530000000 1.0
C      1  0.4865500000000  0.5168650000000  0.5114500000000 1.0
C      1  0.5920530000000  0.5359020000000  0.4724670000000 1.0
C      1  0.4940750000000  0.3898330000000  0.4338460000000 1.0
C      1  0.5869930000000  0.5692620000000  0.5184140000000 1.0
C      1  0.5363310000000  0.5270770000000  0.3825440000000 1.0
C      1  0.5236470000000  0.5384530000000  0.5349000000000 1.0
C      1  0.5254960000000  0.4808860000000  0.5990190000000 1.0
C      1  0.5485570000000  0.5373370000000  0.4550270000000 1.0
C      1  0.5153150000000  0.4470260000000  0.5066650000000 1.0
C      1  0.4095950000000  0.5747550000000  0.4838320000000 1.0
C      1  0.5787020000000  0.5576730000000  0.5446800000000 1.0
C      1  0.5414450000000  0.5411900000000  0.5142050000000 1.0
C      1  0.5921170000000  0.4924150000000  0.4874000000000 1.0
C      1  0.5219000000000  0.4271530000000  0.4880210000000 1.0
C      1  0.4452500000000  0.5482660000000  0.6192190000000 1.0
C      1  0.5092650000000  0.4336140000000  0.4630980000000 1.0
C      1  0.4367030000000  0.5798920000000  0.4788730000000 1.0
C      1  0.5635170000000  0.5023030000000  0.5353850000000 1.0
C      1  0.4731480000000  0.5425650000000  0.6179240000000 1.0
C      1  0.4690510000000  0.4938810000000  0.5137890000000 1.0
C      1  0.5781370000000  0.4945350000000  0.5901520000000 1.0
C      1  0.4922800000000  0.3788590000000  0.4865970000000 1.0
C      1  0.5458370000000  0.4608030000000  0.4483210000000 1.0
C      1  0.3878860000000  0.5316240000000  0.4624030000000 1.0
C      1  0.5223990000000  0.5948820000000  0.5487330000000 1.0
C      1  0.4664630000000  0.4448990000000  0.6003590000000 1.0
C      1  0.5205090000000  0.4929900000000  0.4849750000000 1.0
C      1  0.3922130000000  0.5288630000000  0.4362660000000 1.0
C      1  0.4522420000000  0.5855920000000  0.5023090000000 1.0
C      1  0.4717860000000  0.6151890000000  0.5356330000000 1.0
C      1  0.5580600000000  0.4130560000000  0.5199440000000 1.0
C      1  0.4705370000000  0.4930260000000  0.5986060000000 1.0
C      1  0.5292360000000  0.4902100000000  0.6245150000000 1.0
C      1  0.5352370000000  0.4650850000000  0.5457890000000 1.0
C      1  0.4698030000000  0.4373380000000  0.5453270000000 1.0
C      1  0.4429450000000  0.5841970000000  0.4128410000000 1.0
C      1  0.4822540000000  0.4335790000000  0.4116140000000 1.0
C      1  0.4795490000000  0.5774060000000  0.4977060000000 1.0
C      1  0.5447330000000  0.4851020000000  0.4685090000000 1.0
C      1  0.5345550000000  0.5407340000000  0.5616020000000 1.0
C      1  0.5860610000000  0.5188150000000  0.4944290000000 1.0
C      1  0.5110580000000  0.4793480000000  0.4160870000000 1.0
C      1  0.5419360000000  0.4912130000000  0.5525200000000 1.0
C      1  0.4625220000000  0.4199810000000  0.4534600000000 1.0
C      1  0.4198790000000  0.5585320000000  0.5273190000000 1.0
C      1  0.4662580000000  0.4170230000000  0.5001690000000 1.0
C      1  0.5038540000000  0.5176080000000  0.4868590000000 1.0
C      1  0.4951430000000  0.4578700000000  0.4099500000000 1.0
C      1  0.5829130000000  0.4765060000000  0.4212560000000 1.0
C      1  0.5438840000000  0.5079330000000  0.4484880000000 1.0
C      1  0.4072760000000  0.4275560000000  0.4937120000000 1.0
C      1  0.5427690000000  0.5690670000000  0.5069430000000 1.0
C      1  0.4884210000000  0.5965000000000  0.4219030000000 1.0
C      1  0.5046620000000  0.5390650000000  0.4393150000000 1.0
C      1  0.3949460000000  0.5125830000000  0.3908090000000 1.0
C      1  0.5771880000000  0.5033150000000  0.4106780000000 1.0
C      1  0.4650420000000  0.5459610000000  0.5660320000000 1.0
C      1  0.3778190000000  0.4993860000000  0.5236770000000 1.0
C      1  0.4440660000000  0.4844030000000  0.4199150000000 1.0
C      1  0.5224710000000  0.4283330000000  0.5809490000000 1.0
C      1  0.4374290000000  0.5400120000000  0.5712660000000 1.0
C      1  0.4755390000000  0.4012200000000  0.6206570000000 1.0
C      1  0.5280750000000  0.4394130000000  0.4429240000000 1.0
C      1  0.5385920000000  0.3528090000000  0.5550560000000 1.0
C      1  0.4808520000000  0.5598380000000  0.4754820000000 1.0
C      1  0.3905410000000  0.4549890000000  0.5303170000000 1.0
C      1  0.4693170000000  0.4641630000000  0.4708120000000 1.0
C      1  0.5283430000000  0.6108740000000  0.5938450000000 1.0
C      1  0.5515450000000  0.5596910000000  0.4135920000000 1.0
C      1  0.4787810000000  0.4758170000000  0.4938780000000 1.0
C      1  0.3935070000000  0.5030140000000  0.5002990000000 1.0
C      1  0.5214340000000  0.4533310000000  0.5948140000000 1.0
C      1  0.6031580000000  0.5264320000000  0.4481540000000 1.0
C      1  0.3949030000000  0.5294360000000  0.4898360000000 1.0
C      1  0.4952150000000  0.5786680000000  0.4007060000000 1.0
C      1  0.5800700000000  0.4309160000000  0.4521600000000 1.0
C      1  0.6409630000000  0.4715760000000  0.4788550000000 1.0
C      1  0.4813370000000  0.4409660000000  0.4608490000000 1.0
C      1  0.4528350000000  0.5592120000000  0.4668500000000 1.0
C      1  0.5047770000000  0.6057340000000  0.4433400000000 1.0
C      1  0.4966620000000  0.4151350000000  0.5782820000000 1.0
END
