TITL C-599892-9790-728 412.415218234538 125000 -1004.78431765251 0 0 164 (C1) n - 1
REM
REM in /home/nfs/bkarasulu/CARBON/AIRSS/Generating-Clusters/TERSOFF/Only-C1/FIRE-HFTN
REM
REM
REM
REM
REM
REM ./C.cell (11c1c37f851c82e70ff6c80c92926a4b)
REM AIRSS Version 0.9.1 bugfix July 2018 build 013d7b7c2542+ Fri, 06 Jul 2018 19:26:36 +0100
REM compiler GCC version 9.2.1 20190827 (Red Hat 9.2.1-1)
REM options -cpp -mtune=generic -march=x86-64 -g -O0 -fpre-include=/usr/include/finclude/math-vector-fortran.h
REM seed -729889508 -1139581169 1139831463 1293129365 -1040134900 1071084885 1865046750 1495270784 1144264332 1382626986 1768786175 625293397 629387195 -808136378 -344259662 1777460182 -180929378 -16155531 1888064042 -1770155721 104946307 1629376813 -1530917148 -1549709685 -1513766036 -1962259138 -170978448 -228204650 33900378 -1243621744 -1352551158 -970355819 1510927196
REM
CELL 1.54180   50.00000   50.00000   50.00000   90.00000   90.00000   90.00000
LATT -1
SFAC C  
C      1  0.4368220000000  0.4903930000000  0.6174990000000 1.0
C      1  0.5821320000000  0.4632310000000  0.5809920000000 1.0
C      1  0.5183720000000  0.4848470000000  0.3797360000000 1.0
C      1  0.4768660000000  0.4537870000000  0.4526350000000 1.0
C      1  0.5491790000000  0.4415060000000  0.4745130000000 1.0
C      1  0.5015470000000  0.4643190000000  0.3713360000000 1.0
C      1  0.4255930000000  0.4262780000000  0.5268230000000 1.0
C      1  0.5901430000000  0.4792310000000  0.5584900000000 1.0
C      1  0.5048240000000  0.4468600000000  0.4904130000000 1.0
C      1  0.4845320000000  0.5704770000000  0.4081610000000 1.0
C      1  0.5904340000000  0.4416010000000  0.4565470000000 1.0
C      1  0.4650350000000  0.5285790000000  0.3940820000000 1.0
C      1  0.5165350000000  0.4433710000000  0.5972830000000 1.0
C      1  0.5321320000000  0.5386430000000  0.6103650000000 1.0
C      1  0.4939280000000  0.4467050000000  0.5352850000000 1.0
C      1  0.5263560000000  0.5724790000000  0.5534330000000 1.0
C      1  0.4038570000000  0.4438510000000  0.4883840000000 1.0
C      1  0.5452810000000  0.5595130000000  0.5942350000000 1.0
C      1  0.5507410000000  0.4550370000000  0.4046650000000 1.0
C      1  0.4034540000000  0.5652380000000  0.5102410000000 1.0
C      1  0.4268880000000  0.4002430000000  0.5166400000000 1.0
C      1  0.4553170000000  0.4644580000000  0.4929760000000 1.0
C      1  0.4691750000000  0.4874200000000  0.5757480000000 1.0
C      1  0.5622750000000  0.4378230000000  0.4487750000000 1.0
C      1  0.5173100000000  0.5184950000000  0.5929630000000 1.0
C      1  0.4395800000000  0.5683060000000  0.4467680000000 1.0
C      1  0.4172690000000  0.4749780000000  0.5614580000000 1.0
C      1  0.5051780000000  0.5256290000000  0.4459330000000 1.0
C      1  0.5491330000000  0.5751230000000  0.5029680000000 1.0
C      1  0.4608160000000  0.5545370000000  0.4053850000000 1.0
C      1  0.5203620000000  0.6159180000000  0.4571570000000 1.0
C      1  0.5011480000000  0.6152200000000  0.5423380000000 1.0
C      1  0.5798610000000  0.5062240000000  0.5164500000000 1.0
C      1  0.4489110000000  0.5472360000000  0.5074860000000 1.0
C      1  0.4573900000000  0.4494260000000  0.5962780000000 1.0
C      1  0.4632740000000  0.3849570000000  0.4581650000000 1.0
C      1  0.4730410000000  0.5801940000000  0.5677100000000 1.0
C      1  0.5207390000000  0.4803910000000  0.4596240000000 1.0
C      1  0.5632300000000  0.5064780000000  0.5836830000000 1.0
C      1  0.4349190000000  0.4554560000000  0.5763710000000 1.0
C      1  0.4981670000000  0.4388600000000  0.3788090000000 1.0
C      1  0.4037460000000  0.5599930000000  0.4805250000000 1.0
C      1  0.4520010000000  0.4654090000000  0.5209170000000 1.0
C      1  0.5056720000000  0.4059750000000  0.4428900000000 1.0
C      1  0.6081340000000  0.4662190000000  0.5004730000000 1.0
C      1  0.6200140000000  0.4616260000000  0.5264630000000 1.0
C      1  0.4596570000000  0.5521820000000  0.4602960000000 1.0
C      1  0.4233400000000  0.5056000000000  0.5994750000000 1.0
C      1  0.5486250000000  0.4677100000000  0.5423480000000 1.0
C      1  0.5035340000000  0.5720090000000  0.4767740000000 1.0
C      1  0.4456750000000  0.5348200000000  0.4803590000000 1.0
C      1  0.4789850000000  0.4540380000000  0.4809220000000 1.0
C      1  0.5482170000000  0.4450850000000  0.5607540000000 1.0
C      1  0.4480150000000  0.5737230000000  0.5170840000000 1.0
C      1  0.5104420000000  0.4351450000000  0.5152860000000 1.0
C      1  0.6149160000000  0.4892140000000  0.5521620000000 1.0
C      1  0.5150170000000  0.4120600000000  0.5591700000000 1.0
C      1  0.5406820000000  0.6007310000000  0.5123140000000 1.0
C      1  0.4341620000000  0.4398190000000  0.4417560000000 1.0
C      1  0.6118750000000  0.5162680000000  0.5651320000000 1.0
C      1  0.4781830000000  0.4789200000000  0.4382330000000 1.0
C      1  0.4536440000000  0.5051290000000  0.4045150000000 1.0
C      1  0.4513890000000  0.5522100000000  0.5630500000000 1.0
C      1  0.5106880000000  0.5748650000000  0.4137350000000 1.0
C      1  0.5453630000000  0.5589340000000  0.4486250000000 1.0
C      1  0.5337690000000  0.5321970000000  0.4852790000000 1.0
C      1  0.4135960000000  0.4909370000000  0.4711250000000 1.0
C      1  0.3954300000000  0.5148720000000  0.5152270000000 1.0
C      1  0.5606750000000  0.4783700000000  0.5952120000000 1.0
C      1  0.4729830000000  0.5851840000000  0.5197430000000 1.0
C      1  0.5617500000000  0.4233730000000  0.5222840000000 1.0
C      1  0.4264760000000  0.6001750000000  0.4846810000000 1.0
C      1  0.5334690000000  0.3727340000000  0.4753190000000 1.0
C      1  0.5201720000000  0.3887930000000  0.4596850000000 1.0
C      1  0.4528650000000  0.4910910000000  0.5329370000000 1.0
C      1  0.5373580000000  0.6066660000000  0.4383980000000 1.0
C      1  0.4358590000000  0.3829310000000  0.4984750000000 1.0
C      1  0.5760910000000  0.5518220000000  0.4570050000000 1.0
C      1  0.4212100000000  0.5353060000000  0.5542210000000 1.0
C      1  0.4795350000000  0.5967960000000  0.5446050000000 1.0
C      1  0.5074130000000  0.4226920000000  0.3979090000000 1.0
C      1  0.5203620000000  0.4209530000000  0.4230280000000 1.0
C      1  0.4350620000000  0.4623720000000  0.4234010000000 1.0
C      1  0.5967100000000  0.4916620000000  0.4980190000000 1.0
C      1  0.5248160000000  0.4800900000000  0.5365150000000 1.0
C      1  0.4177250000000  0.5046380000000  0.5711660000000 1.0
C      1  0.5122660000000  0.5125080000000  0.3861250000000 1.0
C      1  0.4045340000000  0.5400080000000  0.5287350000000 1.0
C      1  0.4483860000000  0.6165840000000  0.4786920000000 1.0
C      1  0.4864880000000  0.4176480000000  0.5671490000000 1.0
C      1  0.5320520000000  0.4692080000000  0.6026810000000 1.0
C      1  0.4620370000000  0.4309540000000  0.4440030000000 1.0
C      1  0.4153350000000  0.4384250000000  0.4638560000000 1.0
C      1  0.4885050000000  0.5248650000000  0.3793380000000 1.0
C      1  0.4952860000000  0.4790880000000  0.5745750000000 1.0
C      1  0.5749610000000  0.4383400000000  0.5679900000000 1.0
C      1  0.4765660000000  0.4065590000000  0.4460040000000 1.0
C      1  0.4481460000000  0.3701600000000  0.4766480000000 1.0
C      1  0.5711390000000  0.4855110000000  0.5378570000000 1.0
C      1  0.3872570000000  0.4910470000000  0.5276520000000 1.0
C      1  0.4057270000000  0.4955940000000  0.4440340000000 1.0
C      1  0.5285450000000  0.5050390000000  0.5263300000000 1.0
C      1  0.4156180000000  0.5347040000000  0.4773200000000 1.0
C      1  0.4453880000000  0.3431190000000  0.4734010000000 1.0
C      1  0.4989820000000  0.6013280000000  0.4685650000000 1.0
C      1  0.6105360000000  0.5189780000000  0.4492470000000 1.0
C      1  0.5205590000000  0.5493740000000  0.5394280000000 1.0
C      1  0.5236850000000  0.5753830000000  0.5813420000000 1.0
C      1  0.5706310000000  0.5526150000000  0.5763870000000 1.0
C      1  0.5717820000000  0.5629990000000  0.5490020000000 1.0
C      1  0.5901210000000  0.5398520000000  0.4093470000000 1.0
C      1  0.5676200000000  0.4359440000000  0.4964960000000 1.0
C      1  0.5941720000000  0.4455030000000  0.4857250000000 1.0
C      1  0.4052650000000  0.5158900000000  0.4261390000000 1.0
C      1  0.5028120000000  0.4693670000000  0.5489050000000 1.0
C      1  0.4742550000000  0.6142280000000  0.4724070000000 1.0
C      1  0.5846770000000  0.4270370000000  0.5428710000000 1.0
C      1  0.4518580000000  0.4676260000000  0.6182930000000 1.0
C      1  0.4190720000000  0.5799530000000  0.4648510000000 1.0
C      1  0.4555200000000  0.4826350000000  0.4209060000000 1.0
C      1  0.5012020000000  0.5480580000000  0.5196520000000 1.0
C      1  0.4149990000000  0.5393980000000  0.4171120000000 1.0
C      1  0.4236920000000  0.5869660000000  0.5110020000000 1.0
C      1  0.5309960000000  0.4181740000000  0.5277290000000 1.0
C      1  0.5237870000000  0.6154060000000  0.5273990000000 1.0
C      1  0.5787700000000  0.5356370000000  0.5084920000000 1.0
C      1  0.5343140000000  0.5799890000000  0.4294610000000 1.0
C      1  0.4847540000000  0.4355860000000  0.5923590000000 1.0
C      1  0.4931170000000  0.5709390000000  0.5055100000000 1.0
C      1  0.4611150000000  0.5050950000000  0.5556590000000 1.0
C      1  0.5387710000000  0.5162590000000  0.5716660000000 1.0
C      1  0.5261220000000  0.4572560000000  0.4751540000000 1.0
C      1  0.5450930000000  0.4783210000000  0.3901470000000 1.0
C      1  0.5851740000000  0.5288990000000  0.4367780000000 1.0
C      1  0.4904140000000  0.5236150000000  0.5126000000000 1.0
C      1  0.4691090000000  0.5307300000000  0.5652370000000 1.0
C      1  0.5000300000000  0.4960660000000  0.4468030000000 1.0
C      1  0.4031360000000  0.5117790000000  0.4880420000000 1.0
C      1  0.5664780000000  0.5585040000000  0.5210470000000 1.0
C      1  0.4361430000000  0.5583310000000  0.4201460000000 1.0
C      1  0.5335010000000  0.5102770000000  0.4997610000000 1.0
C      1  0.4019040000000  0.4683970000000  0.5366810000000 1.0
C      1  0.5902250000000  0.5434200000000  0.4827490000000 1.0
C      1  0.5319090000000  0.5247370000000  0.5459550000000 1.0
C      1  0.5555780000000  0.5046210000000  0.3958630000000 1.0
C      1  0.5853970000000  0.5258090000000  0.5786900000000 1.0
C      1  0.4811460000000  0.5069630000000  0.4942890000000 1.0
C      1  0.5297700000000  0.4300340000000  0.5752510000000 1.0
C      1  0.4952610000000  0.5795090000000  0.5871460000000 1.0
C      1  0.4728710000000  0.4305370000000  0.5453220000000 1.0
C      1  0.6114440000000  0.4362500000000  0.5366510000000 1.0
C      1  0.5332730000000  0.5616890000000  0.4779550000000 1.0
C      1  0.5120860000000  0.4889940000000  0.5956860000000 1.0
C      1  0.5335390000000  0.5235400000000  0.4028800000000 1.0
C      1  0.4571370000000  0.5080760000000  0.4803130000000 1.0
C      1  0.4917060000000  0.5306480000000  0.5825220000000 1.0
C      1  0.4890760000000  0.5496670000000  0.4586030000000 1.0
C      1  0.4408630000000  0.4848580000000  0.4785070000000 1.0
C      1  0.4060440000000  0.4454840000000  0.5175880000000 1.0
C      1  0.5455240000000  0.4362320000000  0.4255440000000 1.0
C      1  0.5343300000000  0.5304160000000  0.4334290000000 1.0
C      1  0.6143040000000  0.5300360000000  0.4741260000000 1.0
C      1  0.4492740000000  0.4395690000000  0.5339140000000 1.0
C      1  0.5597890000000  0.5125000000000  0.4399820000000 1.0
END
