TITL C-599892-9790-761 6935.66597556493 125000 -842.394054675286 0 0 138 (C1) n - 1
REM
REM in /home/nfs/bkarasulu/CARBON/AIRSS/Generating-Clusters/TERSOFF/Only-C1/FIRE-HFTN
REM
REM
REM
REM
REM
REM ./C.cell (11c1c37f851c82e70ff6c80c92926a4b)
REM AIRSS Version 0.9.1 bugfix July 2018 build 013d7b7c2542+ Fri, 06 Jul 2018 19:26:36 +0100
REM compiler GCC version 9.2.1 20190827 (Red Hat 9.2.1-1)
REM options -cpp -mtune=generic -march=x86-64 -g -O0 -fpre-include=/usr/include/finclude/math-vector-fortran.h
REM seed 696171577 386450890 1856883300 -1298755594 -12393223 -103793572 -1756917916 779826982 -608045229 -843898908 -721655489 -1982559090 633267950 -2031923560 -1681319188 238583202 -776257343 -1274943586 -1900954511 -626502907 -819766959 369992345 944126702 468978805 -953957299 -1681630333 -1204598674 -1330121264 -1651121963 812186178 289388774 -459296903 107460523
REM
CELL 1.54180   50.00000   50.00000   50.00000   90.00000   90.00000   90.00000
LATT -1
SFAC C  
C      1  0.5665810000000  0.4832550000000  0.4565760000000 1.0
C      1  0.4596370000000  0.4571790000000  0.4277010000000 1.0
C      1  0.5198220000000  0.4959570000000  0.5091080000000 1.0
C      1  0.5417080000000  0.4534370000000  0.4893380000000 1.0
C      1  0.5304180000000  0.4268110000000  0.4291170000000 1.0
C      1  0.5162210000000  0.5820570000000  0.5278010000000 1.0
C      1  0.4494440000000  0.5006880000000  0.5121280000000 1.0
C      1  0.3979380000000  0.5081440000000  0.5090980000000 1.0
C      1  0.4478390000000  0.5599140000000  0.6211890000000 1.0
C      1  0.3901630000000  0.5063820000000  0.5364480000000 1.0
C      1  0.5048910000000  0.5504780000000  0.4924840000000 1.0
C      1  0.5131600000000  0.3853320000000  0.4641840000000 1.0
C      1  0.4395250000000  0.5396990000000  0.5756910000000 1.0
C      1  0.5390820000000  0.5409830000000  0.4595090000000 1.0
C      1  0.4024540000000  0.4585070000000  0.4832450000000 1.0
C      1  0.5604780000000  0.5225540000000  0.5048460000000 1.0
C      1  0.5326330000000  0.4980570000000  0.4087460000000 1.0
C      1  0.4143480000000  0.4232150000000  0.5206380000000 1.0
C      1  0.5130820000000  0.5406790000000  0.5963780000000 1.0
C      1  0.5503730000000  0.5458740000000  0.5216560000000 1.0
C      1  0.5062420000000  0.5401250000000  0.4082390000000 1.0
C      1  0.5606710000000  0.4696200000000  0.5586220000000 1.0
C      1  0.4772440000000  0.5603980000000  0.5062760000000 1.0
C      1  0.4946570000000  0.4986710000000  0.5656610000000 1.0
C      1  0.4401450000000  0.4460030000000  0.5664590000000 1.0
C      1  0.5925050000000  0.5336610000000  0.5428980000000 1.0
C      1  0.5695710000000  0.6450710000000  0.4262140000000 1.0
C      1  0.4001360000000  0.5134960000000  0.5602440000000 1.0
C      1  0.6218710000000  0.5623520000000  0.5129080000000 1.0
C      1  0.5102840000000  0.4343060000000  0.5427580000000 1.0
C      1  0.5181610000000  0.4079850000000  0.5353480000000 1.0
C      1  0.4550450000000  0.5422790000000  0.4859360000000 1.0
C      1  0.4679910000000  0.5897660000000  0.4556520000000 1.0
C      1  0.3982360000000  0.4364580000000  0.5008430000000 1.0
C      1  0.4660440000000  0.4395090000000  0.5555730000000 1.0
C      1  0.5993600000000  0.4817060000000  0.5173660000000 1.0
C      1  0.4240740000000  0.5806550000000  0.4852950000000 1.0
C      1  0.4490330000000  0.5933630000000  0.4756850000000 1.0
C      1  0.4902970000000  0.5448390000000  0.5540200000000 1.0
C      1  0.5893980000000  0.4394340000000  0.4806700000000 1.0
C      1  0.5084400000000  0.4392860000000  0.4188280000000 1.0
C      1  0.5068310000000  0.4512760000000  0.5197070000000 1.0
C      1  0.4479850000000  0.5130280000000  0.3959210000000 1.0
C      1  0.5645820000000  0.4562020000000  0.4210110000000 1.0
C      1  0.4697780000000  0.4630330000000  0.6010690000000 1.0
C      1  0.5263450000000  0.5789750000000  0.5547780000000 1.0
C      1  0.4972920000000  0.4440620000000  0.4709600000000 1.0
C      1  0.4022480000000  0.4788650000000  0.4399660000000 1.0
C      1  0.4906890000000  0.5176930000000  0.4205460000000 1.0
C      1  0.5591160000000  0.4468810000000  0.5732920000000 1.0
C      1  0.4634900000000  0.4342260000000  0.5280270000000 1.0
C      1  0.6037310000000  0.5423440000000  0.5180240000000 1.0
C      1  0.5340480000000  0.5276210000000  0.4100190000000 1.0
C      1  0.4671300000000  0.4992730000000  0.4686380000000 1.0
C      1  0.4612220000000  0.4998030000000  0.5362430000000 1.0
C      1  0.4396700000000  0.4466380000000  0.4477150000000 1.0
C      1  0.5462250000000  0.4987770000000  0.5206400000000 1.0
C      1  0.4392420000000  0.5736780000000  0.6415790000000 1.0
C      1  0.6546390000000  0.6020290000000  0.5021970000000 1.0
C      1  0.4427680000000  0.4020890000000  0.4804900000000 1.0
C      1  0.4994480000000  0.5219640000000  0.4495340000000 1.0
C      1  0.5041810000000  0.4901240000000  0.4131750000000 1.0
C      1  0.6046770000000  0.5003300000000  0.4964460000000 1.0
C      1  0.4871650000000  0.3949680000000  0.4618160000000 1.0
C      1  0.5282070000000  0.3928170000000  0.4873100000000 1.0
C      1  0.4190330000000  0.4349390000000  0.5482390000000 1.0
C      1  0.5557720000000  0.5113870000000  0.5826530000000 1.0
C      1  0.4436710000000  0.5531050000000  0.5493970000000 1.0
C      1  0.6108670000000  0.4938000000000  0.4699870000000 1.0
C      1  0.4517180000000  0.5054400000000  0.4446670000000 1.0
C      1  0.5266340000000  0.5594200000000  0.5115710000000 1.0
C      1  0.5666460000000  0.5502410000000  0.5496940000000 1.0
C      1  0.4338820000000  0.5431920000000  0.4644710000000 1.0
C      1  0.4694890000000  0.5510960000000  0.5358750000000 1.0
C      1  0.5616200000000  0.5381030000000  0.5766900000000 1.0
C      1  0.4356840000000  0.4773880000000  0.5066650000000 1.0
C      1  0.5106500000000  0.4863700000000  0.5857970000000 1.0
C      1  0.4143680000000  0.5629440000000  0.5076050000000 1.0
C      1  0.5534250000000  0.4733110000000  0.5317620000000 1.0
C      1  0.4609730000000  0.4067360000000  0.5215900000000 1.0
C      1  0.5685680000000  0.4250400000000  0.4646060000000 1.0
C      1  0.3982630000000  0.5716850000000  0.4428590000000 1.0
C      1  0.5053270000000  0.5673380000000  0.4201070000000 1.0
C      1  0.4136260000000  0.4582090000000  0.4559410000000 1.0
C      1  0.5485640000000  0.5463950000000  0.4308860000000 1.0
C      1  0.4971230000000  0.4963360000000  0.4646330000000 1.0
C      1  0.4439340000000  0.4654810000000  0.5877950000000 1.0
C      1  0.5105930000000  0.3939110000000  0.5115300000000 1.0
C      1  0.5246730000000  0.4974090000000  0.4793990000000 1.0
C      1  0.5149930000000  0.4442980000000  0.4934590000000 1.0
C      1  0.4344240000000  0.4057620000000  0.5084870000000 1.0
C      1  0.4621390000000  0.5119610000000  0.4191720000000 1.0
C      1  0.6384910000000  0.5822730000000  0.5075420000000 1.0
C      1  0.4803420000000  0.4231080000000  0.4614780000000 1.0
C      1  0.4827720000000  0.5226580000000  0.5710630000000 1.0
C      1  0.5914590000000  0.5188100000000  0.4334020000000 1.0
C      1  0.5530530000000  0.4054830000000  0.4801190000000 1.0
C      1  0.5127170000000  0.5581270000000  0.5697250000000 1.0
C      1  0.4232110000000  0.5154910000000  0.5762960000000 1.0
C      1  0.4048040000000  0.5057210000000  0.4422350000000 1.0
C      1  0.4845020000000  0.5800970000000  0.4358390000000 1.0
C      1  0.4593900000000  0.5147170000000  0.4908950000000 1.0
C      1  0.5569660000000  0.4340940000000  0.4382310000000 1.0
C      1  0.4935310000000  0.4421620000000  0.5652540000000 1.0
C      1  0.4235750000000  0.5657670000000  0.5342200000000 1.0
C      1  0.5457160000000  0.5210760000000  0.4784190000000 1.0
C      1  0.5579250000000  0.6217750000000  0.4250760000000 1.0
C      1  0.4837110000000  0.5343050000000  0.5974070000000 1.0
C      1  0.5598350000000  0.4548530000000  0.5116970000000 1.0
C      1  0.4973550000000  0.4678080000000  0.4550380000000 1.0
C      1  0.5774560000000  0.5411800000000  0.4281470000000 1.0
C      1  0.4960930000000  0.4604220000000  0.5885610000000 1.0
C      1  0.5917500000000  0.5033760000000  0.5462580000000 1.0
C      1  0.4318290000000  0.4910050000000  0.5877950000000 1.0
C      1  0.4857780000000  0.4889240000000  0.5420070000000 1.0
C      1  0.4165250000000  0.5653770000000  0.4617390000000 1.0
C      1  0.5023330000000  0.4788630000000  0.5226760000000 1.0
C      1  0.4568400000000  0.5452780000000  0.5993180000000 1.0
C      1  0.5909080000000  0.4963460000000  0.4502480000000 1.0
C      1  0.4912470000000  0.4637840000000  0.4252030000000 1.0
C      1  0.4507220000000  0.4250090000000  0.4630450000000 1.0
C      1  0.5437390000000  0.4753110000000  0.4711590000000 1.0
C      1  0.4686780000000  0.3855980000000  0.4820450000000 1.0
C      1  0.5879700000000  0.4560990000000  0.5054220000000 1.0
C      1  0.5104460000000  0.5435520000000  0.4650690000000 1.0
C      1  0.5904600000000  0.5245650000000  0.5001660000000 1.0
C      1  0.5529310000000  0.4781870000000  0.4097230000000 1.0
C      1  0.4508090000000  0.4539000000000  0.5115130000000 1.0
C      1  0.4896560000000  0.5880780000000  0.5157600000000 1.0
C      1  0.5553090000000  0.5781780000000  0.5558060000000 1.0
C      1  0.5729230000000  0.4935930000000  0.5671920000000 1.0
C      1  0.5460910000000  0.5980900000000  0.4242130000000 1.0
C      1  0.5290890000000  0.5088270000000  0.5934440000000 1.0
C      1  0.4811210000000  0.3902840000000  0.5086370000000 1.0
C      1  0.5338770000000  0.5732720000000  0.4248020000000 1.0
C      1  0.4278870000000  0.5194580000000  0.4502810000000 1.0
C      1  0.4088280000000  0.4828060000000  0.4980620000000 1.0
C      1  0.4027780000000  0.5361300000000  0.5017550000000 1.0
END
