TITL C-599892-9790-217 35.8182115614658 125000 -803.9540305622 0 0 130 (C1) n - 1
REM
REM in /home/nfs/bkarasulu/CARBON/AIRSS/Generating-Clusters/TERSOFF/Only-C1/FIRE-HFTN
REM
REM
REM
REM
REM
REM ./C.cell (11c1c37f851c82e70ff6c80c92926a4b)
REM AIRSS Version 0.9.1 bugfix July 2018 build 013d7b7c2542+ Fri, 06 Jul 2018 19:26:36 +0100
REM compiler GCC version 9.2.1 20190827 (Red Hat 9.2.1-1)
REM options -cpp -mtune=generic -march=x86-64 -g -O0 -fpre-include=/usr/include/finclude/math-vector-fortran.h
REM seed 1022519301 369537002 1268289925 1988535413 501314170 269339731 -1875952614 1127379282 -1506647316 -522706821 -1454131179 -1076861199 409695415 936252790 -25008804 -1608424871 -1191338630 -1846353598 1035286365 -864099527 1003623942 608502239 86127489 123176389 -1457983777 -906784191 -1036092803 563716741 1911888996 -2099329444 2018941054 -1713010444 1216736050
REM
CELL 1.54180   50.00000   50.00000   50.00000   90.00000   90.00000   90.00000
LATT -1
SFAC C  
C      1  0.4594590000000  0.4986470000000  0.5414860000000 1.0
C      1  0.5256200000000  0.5067400000000  0.5805430000000 1.0
C      1  0.4158430000000  0.5396590000000  0.4635660000000 1.0
C      1  0.5729070000000  0.6001760000000  0.5155790000000 1.0
C      1  0.5747500000000  0.4432550000000  0.5016470000000 1.0
C      1  0.5547780000000  0.6036330000000  0.4943730000000 1.0
C      1  0.3980550000000  0.4902450000000  0.4994130000000 1.0
C      1  0.4662160000000  0.4899930000000  0.5693560000000 1.0
C      1  0.4447990000000  0.5028670000000  0.4806900000000 1.0
C      1  0.5244150000000  0.4649580000000  0.5031800000000 1.0
C      1  0.5793530000000  0.4648180000000  0.5194600000000 1.0
C      1  0.4796330000000  0.5618530000000  0.4010800000000 1.0
C      1  0.4765560000000  0.5424950000000  0.4722370000000 1.0
C      1  0.5421980000000  0.4834420000000  0.5801260000000 1.0
C      1  0.6398240000000  0.5088110000000  0.5267490000000 1.0
C      1  0.5332550000000  0.5198280000000  0.5001970000000 1.0
C      1  0.5205470000000  0.4000590000000  0.4824090000000 1.0
C      1  0.4917630000000  0.5505820000000  0.3802600000000 1.0
C      1  0.5307200000000  0.5419670000000  0.5173520000000 1.0
C      1  0.5619140000000  0.4567710000000  0.4015190000000 1.0
C      1  0.5047290000000  0.4713760000000  0.4377440000000 1.0
C      1  0.4663750000000  0.4616300000000  0.5742880000000 1.0
C      1  0.4273330000000  0.4389010000000  0.5048680000000 1.0
C      1  0.5099230000000  0.4955380000000  0.5360720000000 1.0
C      1  0.4897760000000  0.4442730000000  0.5710320000000 1.0
C      1  0.4338630000000  0.5828890000000  0.4752200000000 1.0
C      1  0.5076940000000  0.5089640000000  0.4628780000000 1.0
C      1  0.5258340000000  0.4613830000000  0.4560380000000 1.0
C      1  0.5550560000000  0.4224700000000  0.5092760000000 1.0
C      1  0.5651920000000  0.4874330000000  0.5624680000000 1.0
C      1  0.5307520000000  0.4791430000000  0.5269490000000 1.0
C      1  0.5946120000000  0.5355320000000  0.4741100000000 1.0
C      1  0.5766030000000  0.5323170000000  0.4546350000000 1.0
C      1  0.4735670000000  0.5377500000000  0.4434220000000 1.0
C      1  0.4876320000000  0.4292500000000  0.5455750000000 1.0
C      1  0.4696660000000  0.3809010000000  0.4745060000000 1.0
C      1  0.4520010000000  0.4478350000000  0.5146930000000 1.0
C      1  0.5168850000000  0.5965850000000  0.5532880000000 1.0
C      1  0.5711180000000  0.6191090000000  0.4453980000000 1.0
C      1  0.4746170000000  0.4709780000000  0.5012470000000 1.0
C      1  0.4701890000000  0.4376070000000  0.4104190000000 1.0
C      1  0.4716770000000  0.5528720000000  0.5616160000000 1.0
C      1  0.5077750000000  0.5119030000000  0.4904830000000 1.0
C      1  0.4265250000000  0.4963340000000  0.5033660000000 1.0
C      1  0.4085710000000  0.4356900000000  0.4858730000000 1.0
C      1  0.5574540000000  0.4700510000000  0.5389880000000 1.0
C      1  0.4038900000000  0.5426030000000  0.4898570000000 1.0
C      1  0.4731190000000  0.5058450000000  0.5923450000000 1.0
C      1  0.5079850000000  0.4182440000000  0.5281300000000 1.0
C      1  0.5743410000000  0.4874390000000  0.4377170000000 1.0
C      1  0.5005220000000  0.5278510000000  0.3695710000000 1.0
C      1  0.4955390000000  0.5387680000000  0.5516840000000 1.0
C      1  0.3872740000000  0.4912810000000  0.5260700000000 1.0
C      1  0.5697050000000  0.5845970000000  0.5645850000000 1.0
C      1  0.5501610000000  0.4992940000000  0.4882740000000 1.0
C      1  0.4505410000000  0.5590210000000  0.5443150000000 1.0
C      1  0.4989060000000  0.4552180000000  0.5003790000000 1.0
C      1  0.5826940000000  0.4687620000000  0.4576940000000 1.0
C      1  0.5377450000000  0.4479810000000  0.4126480000000 1.0
C      1  0.5822660000000  0.5085700000000  0.5685760000000 1.0
C      1  0.4857900000000  0.5649880000000  0.5122590000000 1.0
C      1  0.4908560000000  0.5645570000000  0.4841240000000 1.0
C      1  0.5540570000000  0.5451960000000  0.5894530000000 1.0
C      1  0.5112460000000  0.5840770000000  0.4800090000000 1.0
C      1  0.5081030000000  0.4803690000000  0.3880940000000 1.0
C      1  0.5775230000000  0.5313260000000  0.5821210000000 1.0
C      1  0.5225580000000  0.5813530000000  0.5768610000000 1.0
C      1  0.4891580000000  0.3750620000000  0.4561640000000 1.0
C      1  0.4410560000000  0.5017160000000  0.4331020000000 1.0
C      1  0.4690350000000  0.5101050000000  0.4353350000000 1.0
C      1  0.4827120000000  0.4998160000000  0.5151510000000 1.0
C      1  0.4598550000000  0.4352400000000  0.5381250000000 1.0
C      1  0.4657120000000  0.5226210000000  0.4905890000000 1.0
C      1  0.5311820000000  0.5292990000000  0.5969960000000 1.0
C      1  0.4997980000000  0.4072260000000  0.5017020000000 1.0
C      1  0.4153940000000  0.5570260000000  0.5114880000000 1.0
C      1  0.4013450000000  0.5006270000000  0.5991800000000 1.0
C      1  0.4399680000000  0.5680110000000  0.4297860000000 1.0
C      1  0.4900700000000  0.4223490000000  0.4206990000000 1.0
C      1  0.6164850000000  0.5055300000000  0.5128710000000 1.0
C      1  0.5052510000000  0.5019070000000  0.3728610000000 1.0
C      1  0.5461850000000  0.4109240000000  0.4843110000000 1.0
C      1  0.5371150000000  0.4247600000000  0.5323810000000 1.0
C      1  0.5315710000000  0.5143770000000  0.4470150000000 1.0
C      1  0.5028240000000  0.5688870000000  0.5934660000000 1.0
C      1  0.4594600000000  0.5719200000000  0.5197320000000 1.0
C      1  0.5601960000000  0.5120190000000  0.4438190000000 1.0
C      1  0.4264200000000  0.5650850000000  0.4541120000000 1.0
C      1  0.4734450000000  0.4060220000000  0.4880560000000 1.0
C      1  0.5185940000000  0.6018960000000  0.5267880000000 1.0
C      1  0.4329830000000  0.4981540000000  0.5319290000000 1.0
C      1  0.5362170000000  0.4549990000000  0.5780100000000 1.0
C      1  0.6080550000000  0.5250640000000  0.4945630000000 1.0
C      1  0.4812560000000  0.5276890000000  0.6089460000000 1.0
C      1  0.4523880000000  0.4527750000000  0.4636820000000 1.0
C      1  0.5356920000000  0.4353620000000  0.4412830000000 1.0
C      1  0.4650030000000  0.4788190000000  0.4728710000000 1.0
C      1  0.5496150000000  0.5715730000000  0.5793010000000 1.0
C      1  0.4459590000000  0.4456820000000  0.5613850000000 1.0
C      1  0.4624960000000  0.5503910000000  0.6079890000000 1.0
C      1  0.5272560000000  0.5979850000000  0.4996240000000 1.0
C      1  0.4656020000000  0.5576880000000  0.4247210000000 1.0
C      1  0.4743600000000  0.5662240000000  0.5866500000000 1.0
C      1  0.3905820000000  0.4775970000000  0.4754360000000 1.0
C      1  0.5464720000000  0.4438840000000  0.5526080000000 1.0
C      1  0.6007790000000  0.4826060000000  0.5168550000000 1.0
C      1  0.4288200000000  0.5144260000000  0.4569340000000 1.0
C      1  0.5370480000000  0.4740070000000  0.4794880000000 1.0
C      1  0.4035250000000  0.4978690000000  0.5733590000000 1.0
C      1  0.5125240000000  0.4151100000000  0.4371940000000 1.0
C      1  0.4863410000000  0.4905000000000  0.4512380000000 1.0
C      1  0.4232450000000  0.5514710000000  0.5388050000000 1.0
C      1  0.4076460000000  0.4957680000000  0.5461150000000 1.0
C      1  0.5092120000000  0.5134230000000  0.5576460000000 1.0
C      1  0.5122030000000  0.4446050000000  0.5872300000000 1.0
C      1  0.5761390000000  0.4454570000000  0.4722960000000 1.0
C      1  0.5056500000000  0.5512780000000  0.5279880000000 1.0
C      1  0.4368010000000  0.5755280000000  0.5021810000000 1.0
C      1  0.4278030000000  0.4581720000000  0.4492250000000 1.0
C      1  0.5567490000000  0.4260430000000  0.4613710000000 1.0
C      1  0.4626910000000  0.4281840000000  0.4734040000000 1.0
C      1  0.4357600000000  0.4738380000000  0.4263430000000 1.0
C      1  0.5077180000000  0.5421510000000  0.6062500000000 1.0
C      1  0.5109880000000  0.3933710000000  0.4558820000000 1.0
C      1  0.5759670000000  0.4776270000000  0.4113000000000 1.0
C      1  0.5779520000000  0.5938170000000  0.5409640000000 1.0
C      1  0.4523780000000  0.4581100000000  0.4090230000000 1.0
C      1  0.5632890000000  0.6122150000000  0.4692800000000 1.0
C      1  0.4045930000000  0.4550260000000  0.4653790000000 1.0
C      1  0.5145690000000  0.4662340000000  0.4110830000000 1.0
END
