TITL C-599895-9959-484 -9.96175436450991e-05 125000 -608.231232944916 0 0 101 (C1) n - 1
REM
REM in /home/nfs/bkarasulu/CARBON/AIRSS/Generating-Clusters/TERSOFF/Only-C1/FIRE-HFTN
REM
REM
REM
REM
REM
REM ./C.cell (11c1c37f851c82e70ff6c80c92926a4b)
REM AIRSS Version 0.9.1 bugfix July 2018 build 013d7b7c2542+ Fri, 06 Jul 2018 19:26:36 +0100
REM compiler GCC version 9.2.1 20190827 (Red Hat 9.2.1-1)
REM options -cpp -mtune=generic -march=x86-64 -g -O0 -fpre-include=/usr/include/finclude/math-vector-fortran.h
REM seed 180379521 1011933355 -1316720022 -279002668 1938531685 1768635171 737905952 -1302766611 2078757217 288267755 1161372405 -228785089 648464862 -392820351 474352306 -657216141 -365300928 1262496411 1749641680 -444706604 -1382739102 1128767956 1335418825 -1951896542 1575994525 1250980266 1472711963 -782206952 634772070 1753304565 1398907540 1118307304 -285867099
REM
CELL 1.54180   50.00000   50.00000   50.00000   90.00000   90.00000   90.00000
LATT -1
SFAC C  
C      1  0.4243900000000  0.5560920000000  0.5810050000000 1.0
C      1  0.5624710000000  0.4484380000000  0.5529040000000 1.0
C      1  0.5000520000000  0.4788260000000  0.5322020000000 1.0
C      1  0.4226280000000  0.5390910000000  0.5077600000000 1.0
C      1  0.5490770000000  0.4705310000000  0.5134080000000 1.0
C      1  0.5974420000000  0.5190340000000  0.5171700000000 1.0
C      1  0.4873710000000  0.4908740000000  0.3952010000000 1.0
C      1  0.4395820000000  0.4346080000000  0.5696590000000 1.0
C      1  0.5895300000000  0.5104630000000  0.5432760000000 1.0
C      1  0.4223910000000  0.5088000000000  0.4708170000000 1.0
C      1  0.4810830000000  0.4020290000000  0.5206820000000 1.0
C      1  0.4609940000000  0.5151240000000  0.5303760000000 1.0
C      1  0.5158080000000  0.5700290000000  0.5639340000000 1.0
C      1  0.4016690000000  0.5269920000000  0.5234000000000 1.0
C      1  0.5582550000000  0.5789030000000  0.5959370000000 1.0
C      1  0.5372040000000  0.5190580000000  0.4084470000000 1.0
C      1  0.5501210000000  0.5655340000000  0.5032280000000 1.0
C      1  0.5083460000000  0.5432420000000  0.5576830000000 1.0
C      1  0.4225220000000  0.4697310000000  0.5023510000000 1.0
C      1  0.5705050000000  0.4626170000000  0.5991780000000 1.0
C      1  0.5718510000000  0.4674220000000  0.5723370000000 1.0
C      1  0.4692630000000  0.5442680000000  0.4836780000000 1.0
C      1  0.4592010000000  0.4014270000000  0.5358130000000 1.0
C      1  0.4255440000000  0.5369150000000  0.4772930000000 1.0
C      1  0.4489540000000  0.5510440000000  0.4646620000000 1.0
C      1  0.5208240000000  0.5295570000000  0.5358400000000 1.0
C      1  0.4853210000000  0.5962530000000  0.5314370000000 1.0
C      1  0.4692340000000  0.4640400000000  0.5955510000000 1.0
C      1  0.4602640000000  0.4752370000000  0.4455560000000 1.0
C      1  0.4916380000000  0.5757370000000  0.4597950000000 1.0
C      1  0.5550170000000  0.4718700000000  0.4052790000000 1.0
C      1  0.5246530000000  0.5562600000000  0.4943900000000 1.0
C      1  0.4816730000000  0.4879350000000  0.5988590000000 1.0
C      1  0.5142730000000  0.4530060000000  0.4223780000000 1.0
C      1  0.5358500000000  0.5067140000000  0.5424210000000 1.0
C      1  0.5402070000000  0.5534180000000  0.4489300000000 1.0
C      1  0.5010500000000  0.5906810000000  0.5521890000000 1.0
C      1  0.5980520000000  0.4643450000000  0.4689300000000 1.0
C      1  0.4671020000000  0.5354210000000  0.4010330000000 1.0
C      1  0.5827690000000  0.4919570000000  0.5618890000000 1.0
C      1  0.5373350000000  0.5752450000000  0.5808340000000 1.0
C      1  0.6163060000000  0.4605710000000  0.4483390000000 1.0
C      1  0.4007720000000  0.4659390000000  0.4605460000000 1.0
C      1  0.4872840000000  0.4267600000000  0.4641310000000 1.0
C      1  0.6059580000000  0.4719800000000  0.4951650000000 1.0
C      1  0.5726810000000  0.5543080000000  0.4899660000000 1.0
C      1  0.5948520000000  0.5452990000000  0.5056150000000 1.0
C      1  0.6098440000000  0.4990630000000  0.5014140000000 1.0
C      1  0.5957430000000  0.4557470000000  0.5159830000000 1.0
C      1  0.5437590000000  0.4515360000000  0.4227050000000 1.0
C      1  0.5239270000000  0.4201670000000  0.5329180000000 1.0
C      1  0.4251230000000  0.5809760000000  0.5887040000000 1.0
C      1  0.4034310000000  0.4931080000000  0.4562810000000 1.0
C      1  0.5060630000000  0.5111710000000  0.4894040000000 1.0
C      1  0.4159390000000  0.4515710000000  0.4805680000000 1.0
C      1  0.4463200000000  0.4598350000000  0.5792690000000 1.0
C      1  0.4762130000000  0.5841670000000  0.5080970000000 1.0
C      1  0.5411410000000  0.4296190000000  0.5516740000000 1.0
C      1  0.5660390000000  0.5513530000000  0.4622050000000 1.0
C      1  0.4440230000000  0.4136750000000  0.5538980000000 1.0
C      1  0.5180610000000  0.5623190000000  0.4657890000000 1.0
C      1  0.5092130000000  0.4592980000000  0.4902370000000 1.0
C      1  0.4416430000000  0.4942130000000  0.4045130000000 1.0
C      1  0.5168840000000  0.5316860000000  0.5074340000000 1.0
C      1  0.4345020000000  0.4313510000000  0.4737140000000 1.0
C      1  0.5090760000000  0.4780630000000  0.4070560000000 1.0
C      1  0.3893330000000  0.5023710000000  0.5138650000000 1.0
C      1  0.5037370000000  0.4167650000000  0.5129270000000 1.0
C      1  0.4899370000000  0.5301670000000  0.5748260000000 1.0
C      1  0.4838480000000  0.5930600000000  0.4819490000000 1.0
C      1  0.4665350000000  0.5574970000000  0.5085570000000 1.0
C      1  0.5699130000000  0.4608330000000  0.4659790000000 1.0
C      1  0.4424760000000  0.4777210000000  0.4257650000000 1.0
C      1  0.4989770000000  0.4360010000000  0.4393420000000 1.0
C      1  0.4721950000000  0.5116910000000  0.5864750000000 1.0
C      1  0.5699430000000  0.4563060000000  0.5268820000000 1.0
C      1  0.4095730000000  0.5188410000000  0.5505560000000 1.0
C      1  0.4365220000000  0.4917320000000  0.4896650000000 1.0
C      1  0.4141780000000  0.4886120000000  0.5496150000000 1.0
C      1  0.5790680000000  0.4715360000000  0.3928300000000 1.0
C      1  0.5368120000000  0.5404040000000  0.4243900000000 1.0
C      1  0.4672850000000  0.5557940000000  0.4183690000000 1.0
C      1  0.4486980000000  0.5397390000000  0.5217770000000 1.0
C      1  0.5285140000000  0.4823670000000  0.5300290000000 1.0
C      1  0.5019030000000  0.4322290000000  0.4886820000000 1.0
C      1  0.4591770000000  0.4231820000000  0.4666970000000 1.0
C      1  0.4813620000000  0.4819260000000  0.4602690000000 1.0
C      1  0.5534200000000  0.4725100000000  0.4857020000000 1.0
C      1  0.5012530000000  0.4841300000000  0.4805110000000 1.0
C      1  0.4444630000000  0.5099060000000  0.5795480000000 1.0
C      1  0.4259160000000  0.5303080000000  0.5712060000000 1.0
C      1  0.4872630000000  0.5260210000000  0.4745620000000 1.0
C      1  0.4649640000000  0.5078230000000  0.3963130000000 1.0
C      1  0.4340410000000  0.4836780000000  0.5699960000000 1.0
C      1  0.5584580000000  0.4456050000000  0.4456030000000 1.0
C      1  0.4054480000000  0.4791990000000  0.5232090000000 1.0
C      1  0.6345290000000  0.4565610000000  0.4301460000000 1.0
C      1  0.4771240000000  0.4934160000000  0.5320290000000 1.0
C      1  0.6153750000000  0.5631100000000  0.5100330000000 1.0
C      1  0.5345290000000  0.4918160000000  0.4033030000000 1.0
C      1  0.4669160000000  0.5645970000000  0.4450530000000 1.0
END
