TITL C-599896-8500-250 11.2289152210553 125000 -437.15943605217 0 0 74 (C1) n - 1
REM
REM in /home/nfs/bkarasulu/CARBON/AIRSS/Generating-Clusters/TERSOFF/Only-C1/FIRE-HFTN
REM
REM
REM
REM
REM
REM ./C.cell (11c1c37f851c82e70ff6c80c92926a4b)
REM AIRSS Version 0.9.1 bugfix July 2018 build 013d7b7c2542+ Fri, 06 Jul 2018 19:26:36 +0100
REM compiler GCC version 9.2.1 20190827 (Red Hat 9.2.1-1)
REM options -cpp -mtune=generic -march=x86-64 -g -O0 -fpre-include=/usr/include/finclude/math-vector-fortran.h
REM seed 1504016300 581522321 -729219668 2117640666 66173253 1298210627 -415558835 -812455982 630348916 -493914511 -1829534313 -520705715 -402983224 885249094 -1148405773 -1404859155 -1607025381 -1268772747 2114453843 -2025791725 918975906 1233025329 -1760165655 -412774481 626683793 1632815363 -794028119 1741125635 954127305 1178693799 1936216398 845292035 228296062
REM
CELL 1.54180   50.00000   50.00000   50.00000   90.00000   90.00000   90.00000
LATT -1
SFAC C  
C      1  0.4793690000000  0.4837960000000  0.5193160000000 1.0
C      1  0.5158640000000  0.4108010000000  0.5460760000000 1.0
C      1  0.4814500000000  0.4976620000000  0.4287890000000 1.0
C      1  0.4673980000000  0.5017700000000  0.4757120000000 1.0
C      1  0.5158050000000  0.4428020000000  0.4765730000000 1.0
C      1  0.3969950000000  0.5031140000000  0.4511290000000 1.0
C      1  0.4183530000000  0.5206700000000  0.3920780000000 1.0
C      1  0.5353710000000  0.5756450000000  0.5374870000000 1.0
C      1  0.5159150000000  0.4867240000000  0.5643740000000 1.0
C      1  0.4699400000000  0.4852340000000  0.4524030000000 1.0
C      1  0.4913010000000  0.4214390000000  0.5542550000000 1.0
C      1  0.3822010000000  0.4886400000000  0.4988230000000 1.0
C      1  0.6408760000000  0.6063340000000  0.4996670000000 1.0
C      1  0.5004210000000  0.4656000000000  0.5742630000000 1.0
C      1  0.5738920000000  0.6122670000000  0.5306390000000 1.0
C      1  0.5777920000000  0.4769890000000  0.4432970000000 1.0
C      1  0.4695590000000  0.4622880000000  0.5358030000000 1.0
C      1  0.5308710000000  0.4860220000000  0.4330770000000 1.0
C      1  0.4687800000000  0.4045770000000  0.5538080000000 1.0
C      1  0.4323050000000  0.5072540000000  0.4121850000000 1.0
C      1  0.5199970000000  0.4957150000000  0.4897700000000 1.0
C      1  0.5668740000000  0.5192790000000  0.5405930000000 1.0
C      1  0.4210410000000  0.4239240000000  0.5002970000000 1.0
C      1  0.5391650000000  0.5232420000000  0.5410640000000 1.0
C      1  0.5429580000000  0.5582040000000  0.4644150000000 1.0
C      1  0.4957430000000  0.4545970000000  0.6272480000000 1.0
C      1  0.4828240000000  0.5253950000000  0.4751390000000 1.0
C      1  0.4598320000000  0.4965390000000  0.5024770000000 1.0
C      1  0.4982220000000  0.4605720000000  0.6015570000000 1.0
C      1  0.5301740000000  0.5497450000000  0.5402050000000 1.0
C      1  0.4098120000000  0.4370870000000  0.4800180000000 1.0
C      1  0.3919170000000  0.4842500000000  0.4727040000000 1.0
C      1  0.4627910000000  0.4368560000000  0.4415750000000 1.0
C      1  0.5211250000000  0.5015930000000  0.5412470000000 1.0
C      1  0.4421960000000  0.4535870000000  0.5321230000000 1.0
C      1  0.6416870000000  0.6620010000000  0.5156680000000 1.0
C      1  0.3982960000000  0.4808730000000  0.5206710000000 1.0
C      1  0.5101700000000  0.4685850000000  0.4790640000000 1.0
C      1  0.4608100000000  0.5064850000000  0.4114560000000 1.0
C      1  0.5510560000000  0.5967660000000  0.5341030000000 1.0
C      1  0.5282720000000  0.4013690000000  0.5244170000000 1.0
C      1  0.4198230000000  0.4707430000000  0.5328750000000 1.0
C      1  0.4464240000000  0.4058550000000  0.5390720000000 1.0
C      1  0.4077590000000  0.4608000000000  0.4656850000000 1.0
C      1  0.4932670000000  0.4485640000000  0.6524880000000 1.0
C      1  0.4535570000000  0.4625500000000  0.4470080000000 1.0
C      1  0.6050790000000  0.5741110000000  0.5311400000000 1.0
C      1  0.4361910000000  0.4267900000000  0.5236300000000 1.0
C      1  0.4181340000000  0.4943480000000  0.4331590000000 1.0
C      1  0.6206870000000  0.6175340000000  0.5144540000000 1.0
C      1  0.5268730000000  0.4011430000000  0.4977680000000 1.0
C      1  0.4408690000000  0.5137160000000  0.5139180000000 1.0
C      1  0.5249760000000  0.5387250000000  0.4584580000000 1.0
C      1  0.5732770000000  0.6404590000000  0.5317980000000 1.0
C      1  0.5069520000000  0.4941270000000  0.5177910000000 1.0
C      1  0.5946360000000  0.6560250000000  0.5263690000000 1.0
C      1  0.4762970000000  0.4141710000000  0.4448460000000 1.0
C      1  0.6198480000000  0.6459330000000  0.5186140000000 1.0
C      1  0.4866770000000  0.4496200000000  0.5551170000000 1.0
C      1  0.4261740000000  0.4686050000000  0.4449120000000 1.0
C      1  0.5148000000000  0.4148040000000  0.4766280000000 1.0
C      1  0.6120810000000  0.5472590000000  0.5349200000000 1.0
C      1  0.5107560000000  0.5232790000000  0.4778240000000 1.0
C      1  0.5917060000000  0.5283640000000  0.5383060000000 1.0
C      1  0.6383360000000  0.5396520000000  0.5352790000000 1.0
C      1  0.5997750000000  0.6009330000000  0.5252830000000 1.0
C      1  0.4049610000000  0.5331700000000  0.3735420000000 1.0
C      1  0.5482200000000  0.4941770000000  0.4782860000000 1.0
C      1  0.3577150000000  0.5000570000000  0.5029570000000 1.0
C      1  0.4968110000000  0.4035220000000  0.4583320000000 1.0
C      1  0.5174610000000  0.5310230000000  0.4321050000000 1.0
C      1  0.5530640000000  0.4854480000000  0.4512390000000 1.0
C      1  0.4279010000000  0.5342430000000  0.5234430000000 1.0
C      1  0.5094920000000  0.5039580000000  0.4271880000000 1.0
END
