TITL C-599892-9790-7 0.709147215765613 125000 -1009.07979156121 0 0 165 (C1) n - 1
REM
REM in /home/nfs/bkarasulu/CARBON/AIRSS/Generating-Clusters/TERSOFF/Only-C1/FIRE-HFTN
REM
REM
REM
REM
REM
REM ./C.cell (11c1c37f851c82e70ff6c80c92926a4b)
REM AIRSS Version 0.9.1 bugfix July 2018 build 013d7b7c2542+ Fri, 06 Jul 2018 19:26:36 +0100
REM compiler GCC version 9.2.1 20190827 (Red Hat 9.2.1-1)
REM options -cpp -mtune=generic -march=x86-64 -g -O0 -fpre-include=/usr/include/finclude/math-vector-fortran.h
REM seed -2013776001 2095538287 -1076770942 -768032176 -162380535 1120913738 543919564 652464782 -1767741968 -399626480 1532343060 924292969 -310957125 -592680291 639241196 -736676193 1270015559 1895869469 -1983619841 671251029 1603291144 -538886362 818480129 -2112291010 1564859257 -813588776 -1679857760 -1477576955 1535736786 848715836 343345966 -354617449 480633290
REM
CELL 1.54180   50.00000   50.00000   50.00000   90.00000   90.00000   90.00000
LATT -1
SFAC C  
C      1  0.5105210000000  0.5819270000000  0.5837470000000 1.0
C      1  0.4620430000000  0.4777770000000  0.4521880000000 1.0
C      1  0.4587130000000  0.4734330000000  0.5989550000000 1.0
C      1  0.5156420000000  0.3808670000000  0.5098480000000 1.0
C      1  0.4339840000000  0.4741940000000  0.5104060000000 1.0
C      1  0.4057370000000  0.4266360000000  0.5341850000000 1.0
C      1  0.4242800000000  0.5143920000000  0.5529860000000 1.0
C      1  0.4069680000000  0.3986450000000  0.5347760000000 1.0
C      1  0.5315340000000  0.4774950000000  0.6072390000000 1.0
C      1  0.5008490000000  0.4597860000000  0.4196940000000 1.0
C      1  0.5468340000000  0.5221600000000  0.5925480000000 1.0
C      1  0.4952740000000  0.5485820000000  0.4958910000000 1.0
C      1  0.6191280000000  0.4632630000000  0.4585410000000 1.0
C      1  0.5560200000000  0.4584580000000  0.3859010000000 1.0
C      1  0.5712030000000  0.5000070000000  0.5228130000000 1.0
C      1  0.4730700000000  0.4399870000000  0.5622920000000 1.0
C      1  0.4926320000000  0.5473250000000  0.5600070000000 1.0
C      1  0.4358710000000  0.4517260000000  0.4927180000000 1.0
C      1  0.5955050000000  0.5704640000000  0.5044700000000 1.0
C      1  0.4946720000000  0.4462100000000  0.6078370000000 1.0
C      1  0.5338390000000  0.4962910000000  0.4834370000000 1.0
C      1  0.5012420000000  0.4897230000000  0.5442130000000 1.0
C      1  0.4407950000000  0.5588910000000  0.5602070000000 1.0
C      1  0.4246990000000  0.5533260000000  0.4841060000000 1.0
C      1  0.4245090000000  0.5305760000000  0.4654620000000 1.0
C      1  0.4570310000000  0.5610940000000  0.5855560000000 1.0
C      1  0.5421680000000  0.5455100000000  0.5229460000000 1.0
C      1  0.4524320000000  0.6040890000000  0.5012390000000 1.0
C      1  0.5411620000000  0.5578680000000  0.4996730000000 1.0
C      1  0.4821170000000  0.4914680000000  0.6022750000000 1.0
C      1  0.4064750000000  0.4995580000000  0.5661810000000 1.0
C      1  0.4426560000000  0.5096590000000  0.3928270000000 1.0
C      1  0.5180160000000  0.4145750000000  0.4717670000000 1.0
C      1  0.4337620000000  0.4872160000000  0.6025080000000 1.0
C      1  0.6043680000000  0.4945150000000  0.5543550000000 1.0
C      1  0.4172180000000  0.5140960000000  0.3839530000000 1.0
C      1  0.3890020000000  0.4387860000000  0.5143620000000 1.0
C      1  0.4560050000000  0.5350770000000  0.5205120000000 1.0
C      1  0.5221370000000  0.5837990000000  0.4480930000000 1.0
C      1  0.3993160000000  0.4853800000000  0.4591970000000 1.0
C      1  0.5045920000000  0.4238770000000  0.6206880000000 1.0
C      1  0.3944060000000  0.5834950000000  0.4615750000000 1.0
C      1  0.5149730000000  0.4026820000000  0.6317340000000 1.0
C      1  0.6059080000000  0.5537110000000  0.4841260000000 1.0
C      1  0.4352320000000  0.5155140000000  0.6109590000000 1.0
C      1  0.5442460000000  0.4278030000000  0.4649130000000 1.0
C      1  0.5642040000000  0.6036510000000  0.5173510000000 1.0
C      1  0.5179350000000  0.6059820000000  0.5366640000000 1.0
C      1  0.4150450000000  0.4459750000000  0.4747870000000 1.0
C      1  0.6201800000000  0.4701740000000  0.5095070000000 1.0
C      1  0.5711260000000  0.4242930000000  0.4740400000000 1.0
C      1  0.5817020000000  0.5420130000000  0.5517900000000 1.0
C      1  0.3773510000000  0.4716300000000  0.4741490000000 1.0
C      1  0.5703160000000  0.5948850000000  0.4680890000000 1.0
C      1  0.4534370000000  0.4722810000000  0.5313940000000 1.0
C      1  0.3889550000000  0.4484650000000  0.4877580000000 1.0
C      1  0.5578310000000  0.4753430000000  0.5178830000000 1.0
C      1  0.4806430000000  0.5207150000000  0.4187390000000 1.0
C      1  0.4990050000000  0.6118570000000  0.4803970000000 1.0
C      1  0.5787840000000  0.3735840000000  0.4765830000000 1.0
C      1  0.4206360000000  0.3478070000000  0.5294310000000 1.0
C      1  0.4491760000000  0.5299480000000  0.5497940000000 1.0
C      1  0.3508540000000  0.4796380000000  0.4747660000000 1.0
C      1  0.5184250000000  0.5580090000000  0.4841170000000 1.0
C      1  0.4225230000000  0.4410140000000  0.5526280000000 1.0
C      1  0.6042990000000  0.4731170000000  0.4360240000000 1.0
C      1  0.6057190000000  0.5647340000000  0.4581220000000 1.0
C      1  0.4125880000000  0.3728370000000  0.5327920000000 1.0
C      1  0.4374640000000  0.6214060000000  0.4585870000000 1.0
C      1  0.5796140000000  0.5934990000000  0.4951610000000 1.0
C      1  0.4128920000000  0.5059540000000  0.4745320000000 1.0
C      1  0.4316370000000  0.5520610000000  0.5121110000000 1.0
C      1  0.4372520000000  0.3788150000000  0.4531350000000 1.0
C      1  0.4759750000000  0.5246830000000  0.5636080000000 1.0
C      1  0.5722330000000  0.5886180000000  0.5402270000000 1.0
C      1  0.5366330000000  0.3641120000000  0.5019420000000 1.0
C      1  0.5881740000000  0.5933100000000  0.4219410000000 1.0
C      1  0.6088040000000  0.4586850000000  0.4852120000000 1.0
C      1  0.5142840000000  0.4075550000000  0.4998660000000 1.0
C      1  0.4423590000000  0.4624900000000  0.4376490000000 1.0
C      1  0.4961750000000  0.3713180000000  0.5265780000000 1.0
C      1  0.4184140000000  0.5794320000000  0.4742210000000 1.0
C      1  0.6043340000000  0.5264450000000  0.4891270000000 1.0
C      1  0.4716030000000  0.4477620000000  0.5902610000000 1.0
C      1  0.5199900000000  0.5556260000000  0.4552830000000 1.0
C      1  0.4372300000000  0.5301270000000  0.4396980000000 1.0
C      1  0.3259880000000  0.4873820000000  0.4756470000000 1.0
C      1  0.4320400000000  0.5721550000000  0.5348160000000 1.0
C      1  0.5334180000000  0.4764500000000  0.5035470000000 1.0
C      1  0.4772990000000  0.5566690000000  0.5153780000000 1.0
C      1  0.4441300000000  0.5973060000000  0.5287120000000 1.0
C      1  0.5579500000000  0.5008460000000  0.4685780000000 1.0
C      1  0.5270990000000  0.5923330000000  0.5615950000000 1.0
C      1  0.4127160000000  0.4794640000000  0.5848480000000 1.0
C      1  0.5432700000000  0.4505830000000  0.5696040000000 1.0
C      1  0.5153040000000  0.4554430000000  0.5079640000000 1.0
C      1  0.4624600000000  0.4455610000000  0.4876370000000 1.0
C      1  0.5039550000000  0.4738790000000  0.6100430000000 1.0
C      1  0.4500490000000  0.4490850000000  0.5476920000000 1.0
C      1  0.4814750000000  0.4737810000000  0.3815720000000 1.0
C      1  0.4530770000000  0.3977150000000  0.4446800000000 1.0
C      1  0.4763370000000  0.5167160000000  0.5912170000000 1.0
C      1  0.4807160000000  0.6113460000000  0.5016930000000 1.0
C      1  0.5234330000000  0.4347070000000  0.5609950000000 1.0
C      1  0.4977130000000  0.5993730000000  0.4541350000000 1.0
C      1  0.4169270000000  0.4625700000000  0.4505220000000 1.0
C      1  0.6457030000000  0.4573340000000  0.4542880000000 1.0
C      1  0.5880970000000  0.5846460000000  0.4483040000000 1.0
C      1  0.4106430000000  0.4530260000000  0.5754090000000 1.0
C      1  0.4293250000000  0.3235090000000  0.5257280000000 1.0
C      1  0.4982260000000  0.4320130000000  0.5479040000000 1.0
C      1  0.5130320000000  0.4374270000000  0.4315540000000 1.0
C      1  0.5514300000000  0.5042630000000  0.3871130000000 1.0
C      1  0.4585000000000  0.4428630000000  0.4226270000000 1.0
C      1  0.5252230000000  0.5041680000000  0.5508450000000 1.0
C      1  0.5656590000000  0.5574410000000  0.5713310000000 1.0
C      1  0.4741530000000  0.4282900000000  0.5053600000000 1.0
C      1  0.4977220000000  0.4196910000000  0.4487280000000 1.0
C      1  0.5384940000000  0.4735210000000  0.4384770000000 1.0
C      1  0.5011160000000  0.4297590000000  0.5170000000000 1.0
C      1  0.6179880000000  0.4806260000000  0.5347240000000 1.0
C      1  0.5866160000000  0.6014270000000  0.3967710000000 1.0
C      1  0.4362930000000  0.6014390000000  0.4782070000000 1.0
C      1  0.5367540000000  0.6104230000000  0.5143560000000 1.0
C      1  0.5304230000000  0.4563850000000  0.3754730000000 1.0
C      1  0.4661080000000  0.6074740000000  0.5450140000000 1.0
C      1  0.4753750000000  0.4652820000000  0.4721880000000 1.0
C      1  0.5847690000000  0.4435280000000  0.4901430000000 1.0
C      1  0.5285390000000  0.5281870000000  0.5371660000000 1.0
C      1  0.4206460000000  0.4967390000000  0.5003770000000 1.0
C      1  0.4608520000000  0.4930000000000  0.3783980000000 1.0
C      1  0.5101160000000  0.4775600000000  0.3741760000000 1.0
C      1  0.5362580000000  0.5431930000000  0.6055060000000 1.0
C      1  0.4722470000000  0.5109960000000  0.5104950000000 1.0
C      1  0.5118840000000  0.5111900000000  0.4748080000000 1.0
C      1  0.5512870000000  0.5015910000000  0.5695910000000 1.0
C      1  0.5774530000000  0.5097250000000  0.5513420000000 1.0
C      1  0.4391450000000  0.6400980000000  0.4405050000000 1.0
C      1  0.4525590000000  0.5213650000000  0.4171560000000 1.0
C      1  0.5257250000000  0.5021240000000  0.3769610000000 1.0
C      1  0.4696960000000  0.4195430000000  0.4389290000000 1.0
C      1  0.4774750000000  0.4560710000000  0.4044250000000 1.0
C      1  0.4919380000000  0.5201820000000  0.4920310000000 1.0
C      1  0.5249190000000  0.5676730000000  0.6040100000000 1.0
C      1  0.5379660000000  0.4453470000000  0.4433410000000 1.0
C      1  0.5830200000000  0.3991580000000  0.4701570000000 1.0
C      1  0.5140880000000  0.4841910000000  0.4270090000000 1.0
C      1  0.5889820000000  0.5643010000000  0.5323350000000 1.0
C      1  0.4854720000000  0.5692890000000  0.5778630000000 1.0
C      1  0.5609440000000  0.4887790000000  0.4437170000000 1.0
C      1  0.5274660000000  0.6119310000000  0.4870930000000 1.0
C      1  0.5808070000000  0.4837350000000  0.4240680000000 1.0
C      1  0.5545000000000  0.5825570000000  0.5618530000000 1.0
C      1  0.5878640000000  0.5107780000000  0.5028500000000 1.0
C      1  0.4763710000000  0.4893620000000  0.5291810000000 1.0
C      1  0.5148780000000  0.5270230000000  0.4502720000000 1.0
C      1  0.5681810000000  0.4824450000000  0.3973900000000 1.0
C      1  0.5469980000000  0.4748750000000  0.5833910000000 1.0
C      1  0.4905300000000  0.6110310000000  0.5299380000000 1.0
C      1  0.5424850000000  0.5990710000000  0.4647150000000 1.0
C      1  0.4553160000000  0.5349100000000  0.6023820000000 1.0
C      1  0.5598760000000  0.3599910000000  0.4896490000000 1.0
C      1  0.5848830000000  0.6093640000000  0.3719990000000 1.0
C      1  0.5718830000000  0.4513880000000  0.5141160000000 1.0
C      1  0.5051580000000  0.5115760000000  0.4285320000000 1.0
END
