TITL C-599894-471-687 -592.790831924375 125000 -1036.79434123486 0 0 169 (C1) n - 1
REM
REM in /home/nfs/bkarasulu/CARBON/AIRSS/Generating-Clusters/TERSOFF/Only-C1/FIRE-HFTN
REM
REM
REM
REM
REM
REM ./C.cell (11c1c37f851c82e70ff6c80c92926a4b)
REM AIRSS Version 0.9.1 bugfix July 2018 build 013d7b7c2542+ Fri, 06 Jul 2018 19:26:36 +0100
REM compiler GCC version 9.2.1 20190827 (Red Hat 9.2.1-1)
REM options -cpp -mtune=generic -march=x86-64 -g -O0 -fpre-include=/usr/include/finclude/math-vector-fortran.h
REM seed 1841573775 332684092 -4825897 1691893514 -1593662741 1399508870 1765919210 1131671240 -239528506 1885018118 -1223834620 884854233 -1487840999 -1859951105 -836850558 -1872242493 -529828097 772027614 -81978314 1529538678 25962955 482511548 1148184402 1856134494 -1594829845 1522466374 1473579552 -791337591 1031606585 316884707 297126499 843432406 -438953672
REM
CELL 1.54180   50.00000   50.00000   50.00000   90.00000   90.00000   90.00000
LATT -1
SFAC C  
C      1  0.4676700000000  0.6016350000000  0.5428090000000 1.0
C      1  0.6198700000000  0.4938090000000  0.5411820000000 1.0
C      1  0.6121090000000  0.5303290000000  0.4549210000000 1.0
C      1  0.5152420000000  0.5130980000000  0.5336050000000 1.0
C      1  0.4988060000000  0.5582880000000  0.5870240000000 1.0
C      1  0.4755310000000  0.6024790000000  0.4915360000000 1.0
C      1  0.4334230000000  0.5290770000000  0.4592360000000 1.0
C      1  0.4919690000000  0.5571850000000  0.4814910000000 1.0
C      1  0.4371070000000  0.5701710000000  0.4199860000000 1.0
C      1  0.5197080000000  0.4081000000000  0.5435700000000 1.0
C      1  0.5749510000000  0.5707420000000  0.5293390000000 1.0
C      1  0.6042160000000  0.4585830000000  0.4273370000000 1.0
C      1  0.4788920000000  0.5784280000000  0.5862270000000 1.0
C      1  0.4146700000000  0.4379270000000  0.4312520000000 1.0
C      1  0.6014790000000  0.4748460000000  0.5445130000000 1.0
C      1  0.5434140000000  0.5833390000000  0.4996110000000 1.0
C      1  0.5299460000000  0.5651990000000  0.4158520000000 1.0
C      1  0.4230640000000  0.4179420000000  0.5606510000000 1.0
C      1  0.4639830000000  0.4200240000000  0.5883250000000 1.0
C      1  0.4969440000000  0.4436480000000  0.3590050000000 1.0
C      1  0.4784540000000  0.4650250000000  0.6084530000000 1.0
C      1  0.4648800000000  0.4998660000000  0.3894010000000 1.0
C      1  0.4626960000000  0.4233180000000  0.4670520000000 1.0
C      1  0.4846280000000  0.5821950000000  0.4719440000000 1.0
C      1  0.4524150000000  0.6143250000000  0.4787580000000 1.0
C      1  0.4983410000000  0.4159650000000  0.5259190000000 1.0
C      1  0.5647930000000  0.5107280000000  0.4950740000000 1.0
C      1  0.4162900000000  0.5364300000000  0.5719670000000 1.0
C      1  0.5144910000000  0.5596280000000  0.5637480000000 1.0
C      1  0.4814870000000  0.4411720000000  0.4777430000000 1.0
C      1  0.4292080000000  0.5014080000000  0.4531610000000 1.0
C      1  0.4974950000000  0.4532580000000  0.4333640000000 1.0
C      1  0.4293770000000  0.5786870000000  0.6035820000000 1.0
C      1  0.4273280000000  0.4846160000000  0.4761440000000 1.0
C      1  0.4328320000000  0.5570440000000  0.6190120000000 1.0
C      1  0.3532200000000  0.5088010000000  0.4600950000000 1.0
C      1  0.5521380000000  0.5123950000000  0.5669090000000 1.0
C      1  0.5074650000000  0.4586590000000  0.6023220000000 1.0
C      1  0.5896430000000  0.5483540000000  0.4530330000000 1.0
C      1  0.4961920000000  0.3902200000000  0.4815370000000 1.0
C      1  0.5390850000000  0.4779050000000  0.4187670000000 1.0
C      1  0.3859030000000  0.5452200000000  0.4728020000000 1.0
C      1  0.5020150000000  0.4934070000000  0.4917320000000 1.0
C      1  0.4797240000000  0.5497320000000  0.5297240000000 1.0
C      1  0.5372190000000  0.3861270000000  0.5387510000000 1.0
C      1  0.5875440000000  0.5417660000000  0.5881600000000 1.0
C      1  0.5621190000000  0.4981940000000  0.4521070000000 1.0
C      1  0.5279790000000  0.4723530000000  0.5615760000000 1.0
C      1  0.5820190000000  0.4443590000000  0.4672970000000 1.0
C      1  0.5411630000000  0.4252250000000  0.4237590000000 1.0
C      1  0.4887770000000  0.5114050000000  0.3935990000000 1.0
C      1  0.4609150000000  0.5344620000000  0.5454260000000 1.0
C      1  0.4813460000000  0.5816860000000  0.4425380000000 1.0
C      1  0.5390390000000  0.4910460000000  0.5806160000000 1.0
C      1  0.4333000000000  0.5911750000000  0.5783710000000 1.0
C      1  0.4064890000000  0.4251970000000  0.5410930000000 1.0
C      1  0.4366480000000  0.5418390000000  0.5565190000000 1.0
C      1  0.4716460000000  0.4092590000000  0.4436060000000 1.0
C      1  0.4779550000000  0.4598760000000  0.5483890000000 1.0
C      1  0.4457190000000  0.4902800000000  0.4320380000000 1.0
C      1  0.3926870000000  0.5823600000000  0.5459500000000 1.0
C      1  0.5634550000000  0.5227080000000  0.5210540000000 1.0
C      1  0.4123280000000  0.5444180000000  0.4690670000000 1.0
C      1  0.4755760000000  0.4932910000000  0.6144030000000 1.0
C      1  0.3860170000000  0.4809180000000  0.4329490000000 1.0
C      1  0.6105510000000  0.4126370000000  0.5190960000000 1.0
C      1  0.5125320000000  0.6124310000000  0.5283760000000 1.0
C      1  0.5070440000000  0.5220280000000  0.4395970000000 1.0
C      1  0.5124550000000  0.4322570000000  0.5880010000000 1.0
C      1  0.3996300000000  0.4338900000000  0.5168980000000 1.0
C      1  0.4679600000000  0.3815370000000  0.5249380000000 1.0
C      1  0.4986180000000  0.3994380000000  0.4528890000000 1.0
C      1  0.5572220000000  0.4368000000000  0.4798710000000 1.0
C      1  0.5423940000000  0.4800650000000  0.4464850000000 1.0
C      1  0.4092020000000  0.4630150000000  0.4726790000000 1.0
C      1  0.5262100000000  0.5651640000000  0.5158620000000 1.0
C      1  0.5014420000000  0.4536920000000  0.4613790000000 1.0
C      1  0.5546120000000  0.4537010000000  0.5279740000000 1.0
C      1  0.4606450000000  0.5356200000000  0.4563150000000 1.0
C      1  0.6154670000000  0.5590460000000  0.6292000000000 1.0
C      1  0.3616090000000  0.4878310000000  0.4456180000000 1.0
C      1  0.5711780000000  0.5738470000000  0.5002870000000 1.0
C      1  0.5729510000000  0.5330840000000  0.5662390000000 1.0
C      1  0.3808560000000  0.5606250000000  0.5359010000000 1.0
C      1  0.5475610000000  0.4609710000000  0.4971170000000 1.0
C      1  0.4114670000000  0.5940510000000  0.5609390000000 1.0
C      1  0.5698730000000  0.4220270000000  0.4264120000000 1.0
C      1  0.5227320000000  0.4728970000000  0.4754100000000 1.0
C      1  0.5210280000000  0.4866010000000  0.6028870000000 1.0
C      1  0.4760100000000  0.4811880000000  0.4985350000000 1.0
C      1  0.5095680000000  0.5164550000000  0.4114790000000 1.0
C      1  0.4557130000000  0.4804170000000  0.5488440000000 1.0
C      1  0.4785310000000  0.4531550000000  0.5022860000000 1.0
C      1  0.4590870000000  0.4453230000000  0.6010550000000 1.0
C      1  0.6226550000000  0.4341520000000  0.5086840000000 1.0
C      1  0.3788600000000  0.5342710000000  0.5320610000000 1.0
C      1  0.5376330000000  0.5126290000000  0.4080800000000 1.0
C      1  0.5598270000000  0.5918230000000  0.5433080000000 1.0
C      1  0.5024670000000  0.5704150000000  0.4256520000000 1.0
C      1  0.4069160000000  0.5265590000000  0.4107100000000 1.0
C      1  0.4374990000000  0.4357800000000  0.4144470000000 1.0
C      1  0.5281840000000  0.5302900000000  0.4575270000000 1.0
C      1  0.6320010000000  0.5117760000000  0.5257380000000 1.0
C      1  0.3965780000000  0.5020050000000  0.4162620000000 1.0
C      1  0.5008310000000  0.5071130000000  0.6092110000000 1.0
C      1  0.4813380000000  0.5176030000000  0.4492750000000 1.0
C      1  0.4389190000000  0.4582690000000  0.3966730000000 1.0
C      1  0.4462970000000  0.4844500000000  0.4041080000000 1.0
C      1  0.6176620000000  0.4572930000000  0.4957440000000 1.0
C      1  0.4827710000000  0.5392270000000  0.5028830000000 1.0
C      1  0.5380210000000  0.6041860000000  0.4817580000000 1.0
C      1  0.4877140000000  0.3946380000000  0.5088770000000 1.0
C      1  0.4853270000000  0.4401710000000  0.4114210000000 1.0
C      1  0.5877700000000  0.4394890000000  0.4399800000000 1.0
C      1  0.4835670000000  0.4412310000000  0.5272270000000 1.0
C      1  0.5724260000000  0.4826840000000  0.4932360000000 1.0
C      1  0.5407880000000  0.4165420000000  0.4701180000000 1.0
C      1  0.4924270000000  0.4421600000000  0.3846320000000 1.0
C      1  0.4008190000000  0.4466530000000  0.4936120000000 1.0
C      1  0.4011380000000  0.4589200000000  0.4450540000000 1.0
C      1  0.5061790000000  0.5620660000000  0.5369690000000 1.0
C      1  0.4535730000000  0.5874710000000  0.4356510000000 1.0
C      1  0.4482260000000  0.4075140000000  0.5677490000000 1.0
C      1  0.5363600000000  0.4508330000000  0.4103020000000 1.0
C      1  0.3630620000000  0.5316190000000  0.4700280000000 1.0
C      1  0.5186160000000  0.5498410000000  0.4744830000000 1.0
C      1  0.4279700000000  0.4786700000000  0.5464510000000 1.0
C      1  0.6131080000000  0.4838660000000  0.4275290000000 1.0
C      1  0.4044050000000  0.4895530000000  0.5401790000000 1.0
C      1  0.4956940000000  0.5025880000000  0.5499510000000 1.0
C      1  0.5529350000000  0.5187200000000  0.4689620000000 1.0
C      1  0.5482520000000  0.5405730000000  0.4151430000000 1.0
C      1  0.6349330000000  0.5248300000000  0.5027460000000 1.0
C      1  0.5282830000000  0.3604270000000  0.5417420000000 1.0
C      1  0.5426920000000  0.5131460000000  0.5390730000000 1.0
C      1  0.5426220000000  0.6148550000000  0.4577490000000 1.0
C      1  0.4490210000000  0.4884180000000  0.4939910000000 1.0
C      1  0.4717500000000  0.4920350000000  0.4430390000000 1.0
C      1  0.4604890000000  0.5922330000000  0.5690570000000 1.0
C      1  0.4211960000000  0.5496320000000  0.4121040000000 1.0
C      1  0.5278690000000  0.5410250000000  0.5002930000000 1.0
C      1  0.6016090000000  0.5504540000000  0.6088580000000 1.0
C      1  0.4404790000000  0.5319640000000  0.6243340000000 1.0
C      1  0.5272230000000  0.4273110000000  0.5629960000000 1.0
C      1  0.5010350000000  0.5348820000000  0.6030650000000 1.0
C      1  0.5832240000000  0.5643160000000  0.4762890000000 1.0
C      1  0.4581770000000  0.3878880000000  0.5494970000000 1.0
C      1  0.4679180000000  0.5072660000000  0.5491650000000 1.0
C      1  0.3872950000000  0.5090000000000  0.5337750000000 1.0
C      1  0.5813850000000  0.4597330000000  0.5356980000000 1.0
C      1  0.5443750000000  0.5899120000000  0.4142160000000 1.0
C      1  0.4634780000000  0.4234890000000  0.4199770000000 1.0
C      1  0.6152990000000  0.5088360000000  0.4368730000000 1.0
C      1  0.5726860000000  0.5451560000000  0.4300620000000 1.0
C      1  0.5940660000000  0.4656280000000  0.4828820000000 1.0
C      1  0.4427080000000  0.6068290000000  0.4541230000000 1.0
C      1  0.5641280000000  0.3909620000000  0.5318630000000 1.0
C      1  0.5008260000000  0.4758180000000  0.5562150000000 1.0
C      1  0.4534140000000  0.5086950000000  0.6217480000000 1.0
C      1  0.5071850000000  0.5194850000000  0.5061080000000 1.0
C      1  0.4850030000000  0.6066640000000  0.5199660000000 1.0
C      1  0.6283530000000  0.5311930000000  0.4777860000000 1.0
C      1  0.4913430000000  0.4130810000000  0.5918220000000 1.0
C      1  0.5369240000000  0.6070700000000  0.5400890000000 1.0
C      1  0.5388020000000  0.4497480000000  0.5507360000000 1.0
C      1  0.5891400000000  0.3984690000000  0.5264630000000 1.0
C      1  0.5474430000000  0.6098470000000  0.4319450000000 1.0
C      1  0.5253180000000  0.4116550000000  0.4459670000000 1.0
C      1  0.5763060000000  0.5434560000000  0.5384680000000 1.0
END
