TITL C-599891-72-100 114.110772651431 125000 -1221.20402979363 0 0 198 (C1) n - 1
REM
REM in /home/nfs/bkarasulu/CARBON/AIRSS/Generating-Clusters/TERSOFF/Only-C1/FIRE-HFTN
REM
REM
REM
REM
REM
REM ./C.cell (11c1c37f851c82e70ff6c80c92926a4b)
REM AIRSS Version 0.9.1 bugfix July 2018 build 013d7b7c2542+ Fri, 06 Jul 2018 19:26:36 +0100
REM compiler GCC version 9.2.1 20190827 (Red Hat 9.2.1-1)
REM options -cpp -mtune=generic -march=x86-64 -g -O0 -fpre-include=/usr/include/finclude/math-vector-fortran.h
REM seed 1903039440 -1310495294 1638676005 1527223179 1297174373 1902324950 -1297732362 -817748786 112207511 1191760615 1401458026 793922709 636651777 888102944 -715647562 -89173610 1021360409 -715957049 -1512291669 1416612873 1135640100 -1238533373 680954366 -1693521111 -1574016084 -1053608019 611916435 753401028 -1242782790 980316970 793765679 104658857 1048056436
REM
CELL 1.54180   50.00000   50.00000   50.00000   90.00000   90.00000   90.00000
LATT -1
SFAC C  
C      1  0.5549610000000  0.4292550000000  0.4854930000000 1.0
C      1  0.5221830000000  0.4443510000000  0.4543080000000 1.0
C      1  0.6195810000000  0.4212690000000  0.4863920000000 1.0
C      1  0.5023790000000  0.4892540000000  0.4547520000000 1.0
C      1  0.5438040000000  0.3855790000000  0.5529740000000 1.0
C      1  0.4986770000000  0.3890180000000  0.5166030000000 1.0
C      1  0.4694830000000  0.4975670000000  0.6200280000000 1.0
C      1  0.4447120000000  0.4609090000000  0.5298330000000 1.0
C      1  0.5119340000000  0.5567750000000  0.4932400000000 1.0
C      1  0.5292530000000  0.5836860000000  0.4206010000000 1.0
C      1  0.4310640000000  0.5106980000000  0.5517360000000 1.0
C      1  0.3883370000000  0.5009340000000  0.5030790000000 1.0
C      1  0.5999540000000  0.5086190000000  0.4494690000000 1.0
C      1  0.4634080000000  0.6035070000000  0.5175410000000 1.0
C      1  0.4310860000000  0.5762130000000  0.5058290000000 1.0
C      1  0.4856390000000  0.5375920000000  0.4488810000000 1.0
C      1  0.3839760000000  0.5465610000000  0.5047740000000 1.0
C      1  0.3903450000000  0.4471060000000  0.4796860000000 1.0
C      1  0.6134410000000  0.5037960000000  0.5690200000000 1.0
C      1  0.6229070000000  0.4545080000000  0.5514880000000 1.0
C      1  0.6137820000000  0.4159400000000  0.5138510000000 1.0
C      1  0.5479640000000  0.4437570000000  0.5625340000000 1.0
C      1  0.5322190000000  0.3716200000000  0.4588090000000 1.0
C      1  0.5654960000000  0.4428150000000  0.5099760000000 1.0
C      1  0.5333030000000  0.6178610000000  0.5876150000000 1.0
C      1  0.3911970000000  0.5531230000000  0.4781190000000 1.0
C      1  0.4826790000000  0.3903330000000  0.4667260000000 1.0
C      1  0.5570430000000  0.3824380000000  0.4667600000000 1.0
C      1  0.4651500000000  0.4719150000000  0.5802730000000 1.0
C      1  0.5252570000000  0.5605490000000  0.4039650000000 1.0
C      1  0.5275800000000  0.5057660000000  0.4096340000000 1.0
C      1  0.4931930000000  0.4532960000000  0.5408380000000 1.0
C      1  0.5071910000000  0.6132270000000  0.5011660000000 1.0
C      1  0.5679550000000  0.5643010000000  0.5086460000000 1.0
C      1  0.4833410000000  0.4045420000000  0.4190940000000 1.0
C      1  0.4991720000000  0.5510070000000  0.3926510000000 1.0
C      1  0.5580700000000  0.4692310000000  0.3888590000000 1.0
C      1  0.3825970000000  0.5788080000000  0.4698180000000 1.0
C      1  0.4082710000000  0.5230560000000  0.4415430000000 1.0
C      1  0.3882140000000  0.5236470000000  0.5204740000000 1.0
C      1  0.5836310000000  0.4658210000000  0.5084840000000 1.0
C      1  0.4922710000000  0.4498020000000  0.4027920000000 1.0
C      1  0.5438120000000  0.6002790000000  0.4639820000000 1.0
C      1  0.4475510000000  0.5394570000000  0.5417750000000 1.0
C      1  0.5127280000000  0.5096510000000  0.5037320000000 1.0
C      1  0.5413880000000  0.5091280000000  0.5484840000000 1.0
C      1  0.6107320000000  0.5349610000000  0.4560910000000 1.0
C      1  0.5384080000000  0.6205300000000  0.5359460000000 1.0
C      1  0.4366370000000  0.4902950000000  0.4186400000000 1.0
C      1  0.5185790000000  0.6040510000000  0.6058920000000 1.0
C      1  0.4462950000000  0.4632750000000  0.4192220000000 1.0
C      1  0.6203710000000  0.4784080000000  0.5635000000000 1.0
C      1  0.4857870000000  0.5373380000000  0.5982360000000 1.0
C      1  0.5962050000000  0.3946010000000  0.5202380000000 1.0
C      1  0.5518670000000  0.5055760000000  0.4498350000000 1.0
C      1  0.4731560000000  0.5010020000000  0.5240930000000 1.0
C      1  0.5285320000000  0.4397380000000  0.4808780000000 1.0
C      1  0.5979940000000  0.5594230000000  0.4527410000000 1.0
C      1  0.4364360000000  0.4120240000000  0.5241080000000 1.0
C      1  0.5528060000000  0.5003470000000  0.4779560000000 1.0
C      1  0.5466120000000  0.4429310000000  0.5334750000000 1.0
C      1  0.4425200000000  0.5895710000000  0.4559620000000 1.0
C      1  0.5269970000000  0.4266010000000  0.5737770000000 1.0
C      1  0.5158010000000  0.5657090000000  0.5566690000000 1.0
C      1  0.3981300000000  0.4532170000000  0.5143670000000 1.0
C      1  0.4308320000000  0.4893050000000  0.5283820000000 1.0
C      1  0.4710770000000  0.3995970000000  0.5568640000000 1.0
C      1  0.5423170000000  0.4824170000000  0.5966700000000 1.0
C      1  0.5107340000000  0.6255990000000  0.5278230000000 1.0
C      1  0.4270160000000  0.4743710000000  0.4845350000000 1.0
C      1  0.5024410000000  0.5829300000000  0.6106950000000 1.0
C      1  0.4422390000000  0.5290310000000  0.4985740000000 1.0
C      1  0.5604380000000  0.4106440000000  0.4624250000000 1.0
C      1  0.4811400000000  0.5654430000000  0.6028300000000 1.0
C      1  0.5158670000000  0.5377160000000  0.4498370000000 1.0
C      1  0.4333640000000  0.4449450000000  0.4880620000000 1.0
C      1  0.4219790000000  0.5378770000000  0.4195090000000 1.0
C      1  0.4862820000000  0.4556370000000  0.5681790000000 1.0
C      1  0.5730500000000  0.3702780000000  0.4862040000000 1.0
C      1  0.4309530000000  0.4448740000000  0.4349630000000 1.0
C      1  0.5252770000000  0.4267320000000  0.4325940000000 1.0
C      1  0.5487230000000  0.3783300000000  0.5262140000000 1.0
C      1  0.5409380000000  0.4891450000000  0.3933890000000 1.0
C      1  0.6117750000000  0.5225880000000  0.5144810000000 1.0
C      1  0.6038790000000  0.4813320000000  0.4608810000000 1.0
C      1  0.5858260000000  0.5455550000000  0.5532440000000 1.0
C      1  0.5851390000000  0.5129520000000  0.5124980000000 1.0
C      1  0.4616520000000  0.5203370000000  0.3844150000000 1.0
C      1  0.5432280000000  0.5330230000000  0.5334680000000 1.0
C      1  0.5372850000000  0.5806800000000  0.5608360000000 1.0
C      1  0.4903730000000  0.4838070000000  0.3648140000000 1.0
C      1  0.4172040000000  0.5478340000000  0.6092860000000 1.0
C      1  0.5134780000000  0.6058740000000  0.4169760000000 1.0
C      1  0.4968680000000  0.5063790000000  0.4780650000000 1.0
C      1  0.5002290000000  0.5501070000000  0.5394200000000 1.0
C      1  0.4727050000000  0.4586970000000  0.5220140000000 1.0
C      1  0.4756850000000  0.4666740000000  0.4188380000000 1.0
C      1  0.5128700000000  0.5277150000000  0.5973220000000 1.0
C      1  0.4511690000000  0.3975670000000  0.5043480000000 1.0
C      1  0.5319670000000  0.4683420000000  0.6193540000000 1.0
C      1  0.4572470000000  0.5792360000000  0.5945390000000 1.0
C      1  0.4011760000000  0.5246080000000  0.5466240000000 1.0
C      1  0.5547710000000  0.4703600000000  0.5724600000000 1.0
C      1  0.4269180000000  0.5900640000000  0.4798730000000 1.0
C      1  0.5222210000000  0.4711210000000  0.4493740000000 1.0
C      1  0.5732220000000  0.5649390000000  0.4387010000000 1.0
C      1  0.4787460000000  0.3856600000000  0.3998700000000 1.0
C      1  0.5616250000000  0.4892580000000  0.5506100000000 1.0
C      1  0.4484210000000  0.4843960000000  0.4677020000000 1.0
C      1  0.4157810000000  0.5695740000000  0.5684390000000 1.0
C      1  0.5030390000000  0.5323770000000  0.3697540000000 1.0
C      1  0.6218140000000  0.4338140000000  0.5343960000000 1.0
C      1  0.5192120000000  0.4505320000000  0.5273530000000 1.0
C      1  0.3806750000000  0.4999640000000  0.4754870000000 1.0
C      1  0.5522330000000  0.6115660000000  0.5115940000000 1.0
C      1  0.5215140000000  0.4016290000000  0.5602610000000 1.0
C      1  0.4491140000000  0.4250470000000  0.4482330000000 1.0
C      1  0.5503900000000  0.5840000000000  0.4410790000000 1.0
C      1  0.4032330000000  0.4606660000000  0.4509250000000 1.0
C      1  0.5070580000000  0.4695850000000  0.6329320000000 1.0
C      1  0.3992040000000  0.5448690000000  0.5669950000000 1.0
C      1  0.4863780000000  0.4629460000000  0.4961830000000 1.0
C      1  0.4456420000000  0.5555140000000  0.4149000000000 1.0
C      1  0.4841900000000  0.5961260000000  0.4992240000000 1.0
C      1  0.4700400000000  0.5528260000000  0.4683070000000 1.0
C      1  0.5056940000000  0.3751790000000  0.4594660000000 1.0
C      1  0.4426930000000  0.5413620000000  0.4731260000000 1.0
C      1  0.3873850000000  0.5065100000000  0.5950440000000 1.0
C      1  0.4711520000000  0.5147500000000  0.4376670000000 1.0
C      1  0.5024670000000  0.4256730000000  0.4151430000000 1.0
C      1  0.4862610000000  0.4910900000000  0.4315490000000 1.0
C      1  0.6049110000000  0.4743230000000  0.4897050000000 1.0
C      1  0.4458670000000  0.4066170000000  0.5502480000000 1.0
C      1  0.4312490000000  0.5678990000000  0.5937290000000 1.0
C      1  0.4407570000000  0.5041780000000  0.3943030000000 1.0
C      1  0.4653550000000  0.4695080000000  0.6097870000000 1.0
C      1  0.5328780000000  0.5096390000000  0.5963720000000 1.0
C      1  0.4461940000000  0.5017610000000  0.4445360000000 1.0
C      1  0.4381650000000  0.5946930000000  0.5266960000000 1.0
C      1  0.4699150000000  0.4635430000000  0.4733350000000 1.0
C      1  0.5682170000000  0.5412720000000  0.4217360000000 1.0
C      1  0.5408790000000  0.6085420000000  0.5618280000000 1.0
C      1  0.5243700000000  0.3778190000000  0.5110440000000 1.0
C      1  0.6336940000000  0.5071090000000  0.5108750000000 1.0
C      1  0.5721400000000  0.5918760000000  0.5103400000000 1.0
C      1  0.5701680000000  0.4467260000000  0.3965580000000 1.0
C      1  0.4090060000000  0.4816690000000  0.5090920000000 1.0
C      1  0.3818140000000  0.4531890000000  0.5387490000000 1.0
C      1  0.6117540000000  0.4564420000000  0.4487200000000 1.0
C      1  0.4001850000000  0.5987690000000  0.4749770000000 1.0
C      1  0.4139970000000  0.5407940000000  0.4644020000000 1.0
C      1  0.5171390000000  0.5386830000000  0.5164880000000 1.0
C      1  0.3978750000000  0.5326170000000  0.5939880000000 1.0
C      1  0.5508130000000  0.5465680000000  0.3990490000000 1.0
C      1  0.5174680000000  0.4605990000000  0.4989260000000 1.0
C      1  0.5779290000000  0.4880480000000  0.5266350000000 1.0
C      1  0.5530160000000  0.4184080000000  0.4350180000000 1.0
C      1  0.4657620000000  0.5163770000000  0.5979750000000 1.0
C      1  0.4551200000000  0.4386620000000  0.4720710000000 1.0
C      1  0.5598560000000  0.5423080000000  0.3734830000000 1.0
C      1  0.3782460000000  0.4657150000000  0.5623710000000 1.0
C      1  0.5296330000000  0.5168760000000  0.4355340000000 1.0
C      1  0.4260060000000  0.4389710000000  0.5163940000000 1.0
C      1  0.4740220000000  0.5449570000000  0.5466980000000 1.0
C      1  0.5580810000000  0.5476260000000  0.4864760000000 1.0
C      1  0.5309080000000  0.5500330000000  0.4728120000000 1.0
C      1  0.4495820000000  0.5048400000000  0.5103030000000 1.0
C      1  0.4845150000000  0.4532020000000  0.6240890000000 1.0
C      1  0.4233750000000  0.5898320000000  0.5501590000000 1.0
C      1  0.4777790000000  0.3922090000000  0.4956950000000 1.0
C      1  0.5335080000000  0.6100040000000  0.4886800000000 1.0
C      1  0.5740500000000  0.3786310000000  0.5131980000000 1.0
C      1  0.4747330000000  0.6221940000000  0.5669320000000 1.0
C      1  0.4932290000000  0.4953310000000  0.6369280000000 1.0
C      1  0.4966050000000  0.3968180000000  0.5451150000000 1.0
C      1  0.4867450000000  0.5695550000000  0.4869590000000 1.0
C      1  0.4684320000000  0.5461020000000  0.3986100000000 1.0
C      1  0.5041560000000  0.4399940000000  0.5838500000000 1.0
C      1  0.5659780000000  0.5499530000000  0.5335210000000 1.0
C      1  0.3963110000000  0.4958730000000  0.4509700000000 1.0
C      1  0.4468340000000  0.5786090000000  0.4316110000000 1.0
C      1  0.6300170000000  0.4820290000000  0.5012530000000 1.0
C      1  0.5151080000000  0.4991440000000  0.5504590000000 1.0
C      1  0.4371070000000  0.5497730000000  0.5171650000000 1.0
C      1  0.5699390000000  0.4266890000000  0.4143220000000 1.0
C      1  0.4956600000000  0.4601250000000  0.3766940000000 1.0
C      1  0.5749340000000  0.5153380000000  0.4357520000000 1.0
C      1  0.4910610000000  0.6304330000000  0.5473150000000 1.0
C      1  0.5334380000000  0.4881220000000  0.4959250000000 1.0
C      1  0.6016040000000  0.5277800000000  0.5659810000000 1.0
C      1  0.4690070000000  0.4043580000000  0.4441310000000 1.0
C      1  0.4529040000000  0.5003330000000  0.5751070000000 1.0
C      1  0.3809050000000  0.4838050000000  0.5820830000000 1.0
C      1  0.4620200000000  0.6047840000000  0.5828500000000 1.0
C      1  0.5678630000000  0.5206120000000  0.4910730000000 1.0
C      1  0.4995320000000  0.4984210000000  0.5275530000000 1.0
C      1  0.6180980000000  0.4336670000000  0.4624150000000 1.0
C      1  0.4840210000000  0.5108810000000  0.3685780000000 1.0
END
