TITL C-599893-4344-462 -0.080098861142694 125000 -336.008509872867 0 0 57 (C1) n - 1
REM
REM in /home/nfs/bkarasulu/CARBON/AIRSS/Generating-Clusters/TERSOFF/Only-C1/FIRE-HFTN
REM
REM
REM
REM
REM
REM ./C.cell (11c1c37f851c82e70ff6c80c92926a4b)
REM AIRSS Version 0.9.1 bugfix July 2018 build 013d7b7c2542+ Fri, 06 Jul 2018 19:26:36 +0100
REM compiler GCC version 9.2.1 20190827 (Red Hat 9.2.1-1)
REM options -cpp -mtune=generic -march=x86-64 -g -O0 -fpre-include=/usr/include/finclude/math-vector-fortran.h
REM seed 57871865 -872688873 933007458 -1726262394 85476872 1636042323 -897076659 1079514166 1102292104 -2050427317 -1775630376 1898494190 -879188044 -330725909 843637326 949085143 371431752 1593412126 -47918018 668216214 -1119997318 -1469229659 1497812701 2074765950 1590733423 -77483951 1846828515 1850180299 1043798992 -93921706 1892746224 1352196053 -2054039087
REM
CELL 1.54180   50.00000   50.00000   50.00000   90.00000   90.00000   90.00000
LATT -1
SFAC C  
C      1  0.5535720000000  0.4577000000000  0.4615880000000 1.0
C      1  0.4642310000000  0.4874620000000  0.4815640000000 1.0
C      1  0.5086530000000  0.5012370000000  0.4963940000000 1.0
C      1  0.5351170000000  0.4794470000000  0.4641650000000 1.0
C      1  0.5791180000000  0.4621650000000  0.4511620000000 1.0
C      1  0.4501270000000  0.4465890000000  0.5414950000000 1.0
C      1  0.5746900000000  0.5538640000000  0.5106280000000 1.0
C      1  0.4999550000000  0.4815070000000  0.5459940000000 1.0
C      1  0.4511810000000  0.5077810000000  0.4373120000000 1.0
C      1  0.5257120000000  0.5076500000000  0.5184540000000 1.0
C      1  0.5168610000000  0.4765680000000  0.4856190000000 1.0
C      1  0.4300930000000  0.5482340000000  0.5291920000000 1.0
C      1  0.4497090000000  0.5452910000000  0.5115420000000 1.0
C      1  0.4671460000000  0.4553140000000  0.5212060000000 1.0
C      1  0.5035570000000  0.5358150000000  0.5452990000000 1.0
C      1  0.3945580000000  0.4761970000000  0.5875740000000 1.0
C      1  0.3609120000000  0.4600460000000  0.6265510000000 1.0
C      1  0.3771610000000  0.4678460000000  0.6077270000000 1.0
C      1  0.4686020000000  0.5317890000000  0.4986300000000 1.0
C      1  0.4123660000000  0.4581230000000  0.5757860000000 1.0
C      1  0.5191110000000  0.5551470000000  0.4999400000000 1.0
C      1  0.5122900000000  0.5122030000000  0.4035790000000 1.0
C      1  0.5966860000000  0.4822470000000  0.4488720000000 1.0
C      1  0.5350240000000  0.5056990000000  0.4520260000000 1.0
C      1  0.5671270000000  0.4822760000000  0.5239240000000 1.0
C      1  0.4570670000000  0.4630420000000  0.4961460000000 1.0
C      1  0.5609110000000  0.6060770000000  0.4576240000000 1.0
C      1  0.4346030000000  0.4631310000000  0.4539260000000 1.0
C      1  0.5386140000000  0.5960740000000  0.4457660000000 1.0
C      1  0.5819170000000  0.4605550000000  0.5272710000000 1.0
C      1  0.4390840000000  0.4489920000000  0.4786320000000 1.0
C      1  0.4007860000000  0.5247270000000  0.5653520000000 1.0
C      1  0.4497870000000  0.5282660000000  0.4212630000000 1.0
C      1  0.3944670000000  0.5027750000000  0.5788360000000 1.0
C      1  0.5283150000000  0.4315360000000  0.4984460000000 1.0
C      1  0.5383520000000  0.5546840000000  0.4759300000000 1.0
C      1  0.4947600000000  0.4608270000000  0.5262930000000 1.0
C      1  0.5642220000000  0.5682130000000  0.4890700000000 1.0
C      1  0.5491220000000  0.5282420000000  0.4635660000000 1.0
C      1  0.4190260000000  0.4552830000000  0.4331900000000 1.0
C      1  0.5098640000000  0.5080700000000  0.5428240000000 1.0
C      1  0.5728110000000  0.5926960000000  0.4780090000000 1.0
C      1  0.5540000000000  0.5067830000000  0.5211050000000 1.0
C      1  0.5130140000000  0.4548240000000  0.5042100000000 1.0
C      1  0.5216400000000  0.5092290000000  0.4277200000000 1.0
C      1  0.4312770000000  0.4481300000000  0.5600990000000 1.0
C      1  0.4503750000000  0.4874580000000  0.4560990000000 1.0
C      1  0.5959470000000  0.4386870000000  0.5293860000000 1.0
C      1  0.4812480000000  0.5079540000000  0.4914380000000 1.0
C      1  0.5258370000000  0.4081880000000  0.5122420000000 1.0
C      1  0.4130380000000  0.5407610000000  0.5481130000000 1.0
C      1  0.5773390000000  0.5266110000000  0.4598680000000 1.0
C      1  0.5093690000000  0.5535730000000  0.5252080000000 1.0
C      1  0.5278260000000  0.5725140000000  0.4539570000000 1.0
C      1  0.5960940000000  0.5086800000000  0.4532580000000 1.0
C      1  0.5691270000000  0.5303740000000  0.5220370000000 1.0
C      1  0.5466030000000  0.4348480000000  0.4768950000000 1.0
END
