TITL C-599894-471-880 0.207204444391785 125000 -1198.38329466559 0 0 194 (C1) n - 1
REM
REM in /home/nfs/bkarasulu/CARBON/AIRSS/Generating-Clusters/TERSOFF/Only-C1/FIRE-HFTN
REM
REM
REM
REM
REM
REM ./C.cell (11c1c37f851c82e70ff6c80c92926a4b)
REM AIRSS Version 0.9.1 bugfix July 2018 build 013d7b7c2542+ Fri, 06 Jul 2018 19:26:36 +0100
REM compiler GCC version 9.2.1 20190827 (Red Hat 9.2.1-1)
REM options -cpp -mtune=generic -march=x86-64 -g -O0 -fpre-include=/usr/include/finclude/math-vector-fortran.h
REM seed -1066884579 1881503801 1694734504 -770037178 -1776248545 -1121141574 719231305 -2080381952 -1144848904 -670262952 1124375046 -256201086 746665531 -367666357 -710410816 418878457 -401965092 544749311 1375080353 -742754078 -1931803365 -1598008271 1787064684 -1251216204 383379636 1347254652 922208496 1777606412 1215518068 -2018571665 -1523551133 451874651 1489391727
REM
CELL 1.54180   50.00000   50.00000   50.00000   90.00000   90.00000   90.00000
LATT -1
SFAC C  
C      1  0.4445510000000  0.4447890000000  0.6304920000000 1.0
C      1  0.4603810000000  0.4955370000000  0.4441080000000 1.0
C      1  0.4151910000000  0.5633940000000  0.4524770000000 1.0
C      1  0.5847060000000  0.5544280000000  0.4466630000000 1.0
C      1  0.4303080000000  0.4656980000000  0.5318860000000 1.0
C      1  0.4671070000000  0.4091320000000  0.5556580000000 1.0
C      1  0.5478750000000  0.4612430000000  0.6332110000000 1.0
C      1  0.4506840000000  0.5719290000000  0.4883120000000 1.0
C      1  0.3953720000000  0.4422030000000  0.6488440000000 1.0
C      1  0.4482470000000  0.5774890000000  0.3634840000000 1.0
C      1  0.5441120000000  0.4654730000000  0.5539610000000 1.0
C      1  0.4723740000000  0.5719100000000  0.3778690000000 1.0
C      1  0.4538840000000  0.5065860000000  0.4884700000000 1.0
C      1  0.4439460000000  0.4443460000000  0.5192210000000 1.0
C      1  0.4273830000000  0.4026440000000  0.4566990000000 1.0
C      1  0.5884210000000  0.4198730000000  0.5146070000000 1.0
C      1  0.5326790000000  0.4515600000000  0.5320910000000 1.0
C      1  0.5135340000000  0.3912450000000  0.5752680000000 1.0
C      1  0.4377370000000  0.5246760000000  0.4720790000000 1.0
C      1  0.4987590000000  0.5440490000000  0.5625010000000 1.0
C      1  0.5796150000000  0.5842060000000  0.5136630000000 1.0
C      1  0.5608010000000  0.5248390000000  0.4766050000000 1.0
C      1  0.4951030000000  0.5886120000000  0.3787360000000 1.0
C      1  0.4837090000000  0.5367720000000  0.5859990000000 1.0
C      1  0.5483200000000  0.5176870000000  0.4319780000000 1.0
C      1  0.4903140000000  0.4324570000000  0.5175030000000 1.0
C      1  0.5322680000000  0.4397640000000  0.6309890000000 1.0
C      1  0.5763710000000  0.5085500000000  0.5824200000000 1.0
C      1  0.4630740000000  0.4822570000000  0.4727750000000 1.0
C      1  0.4577320000000  0.3972740000000  0.5119470000000 1.0
C      1  0.5976160000000  0.6051210000000  0.5174770000000 1.0
C      1  0.5032540000000  0.6816250000000  0.5549230000000 1.0
C      1  0.4357560000000  0.4611960000000  0.4170210000000 1.0
C      1  0.5539680000000  0.5884480000000  0.5010740000000 1.0
C      1  0.5719990000000  0.4635600000000  0.5098450000000 1.0
C      1  0.4821060000000  0.4163330000000  0.3912230000000 1.0
C      1  0.4079100000000  0.4241130000000  0.4613880000000 1.0
C      1  0.5856910000000  0.5573750000000  0.5227440000000 1.0
C      1  0.4191880000000  0.5888030000000  0.4408880000000 1.0
C      1  0.4623540000000  0.6057190000000  0.4524290000000 1.0
C      1  0.4864790000000  0.6138290000000  0.5758300000000 1.0
C      1  0.4882290000000  0.4967480000000  0.4340860000000 1.0
C      1  0.4796930000000  0.5834840000000  0.4546460000000 1.0
C      1  0.4692440000000  0.6683000000000  0.4916260000000 1.0
C      1  0.5761110000000  0.4034860000000  0.4940710000000 1.0
C      1  0.5298310000000  0.5110940000000  0.4118900000000 1.0
C      1  0.4271180000000  0.5737010000000  0.5599190000000 1.0
C      1  0.5381260000000  0.5608400000000  0.5375820000000 1.0
C      1  0.5451310000000  0.4586470000000  0.4620510000000 1.0
C      1  0.4709250000000  0.5961680000000  0.5636200000000 1.0
C      1  0.5667630000000  0.4770720000000  0.4616510000000 1.0
C      1  0.4964260000000  0.5446420000000  0.4127720000000 1.0
C      1  0.5658400000000  0.5478990000000  0.5413720000000 1.0
C      1  0.5724220000000  0.5769950000000  0.4357110000000 1.0
C      1  0.5787860000000  0.4859700000000  0.5257730000000 1.0
C      1  0.6221040000000  0.4795470000000  0.5038710000000 1.0
C      1  0.5767600000000  0.5089280000000  0.4297080000000 1.0
C      1  0.4025080000000  0.5714750000000  0.5440850000000 1.0
C      1  0.4928350000000  0.3624250000000  0.5069350000000 1.0
C      1  0.5124860000000  0.4335320000000  0.5370030000000 1.0
C      1  0.5545500000000  0.5040780000000  0.6028360000000 1.0
C      1  0.4017610000000  0.4678240000000  0.5261900000000 1.0
C      1  0.4773120000000  0.3805470000000  0.4517090000000 1.0
C      1  0.3971000000000  0.4878760000000  0.4793740000000 1.0
C      1  0.5587730000000  0.4886070000000  0.5459310000000 1.0
C      1  0.6176960000000  0.5321430000000  0.4863760000000 1.0
C      1  0.6134270000000  0.4558410000000  0.4890830000000 1.0
C      1  0.5717600000000  0.4989950000000  0.4790200000000 1.0
C      1  0.5542480000000  0.5993090000000  0.4750280000000 1.0
C      1  0.4818310000000  0.6845640000000  0.5084280000000 1.0
C      1  0.4948030000000  0.4538370000000  0.5773340000000 1.0
C      1  0.5044870000000  0.3767680000000  0.4548600000000 1.0
C      1  0.5325420000000  0.4663960000000  0.3899880000000 1.0
C      1  0.4919260000000  0.4463760000000  0.6047510000000 1.0
C      1  0.4512960000000  0.3895000000000  0.4531370000000 1.0
C      1  0.3992140000000  0.4405020000000  0.4398440000000 1.0
C      1  0.5555570000000  0.4843250000000  0.6224970000000 1.0
C      1  0.4680540000000  0.5163010000000  0.5099150000000 1.0
C      1  0.5240600000000  0.5788930000000  0.4448820000000 1.0
C      1  0.5021820000000  0.5225740000000  0.6049850000000 1.0
C      1  0.4997090000000  0.5249630000000  0.5423940000000 1.0
C      1  0.4636970000000  0.5593150000000  0.5299910000000 1.0
C      1  0.4919170000000  0.4796190000000  0.5302170000000 1.0
C      1  0.3898660000000  0.5122420000000  0.4933710000000 1.0
C      1  0.5314740000000  0.5227580000000  0.5998660000000 1.0
C      1  0.5026510000000  0.4015400000000  0.4008360000000 1.0
C      1  0.4907480000000  0.4614960000000  0.5070490000000 1.0
C      1  0.5366860000000  0.4942850000000  0.3905850000000 1.0
C      1  0.5806020000000  0.4366390000000  0.5645620000000 1.0
C      1  0.4735520000000  0.5492370000000  0.3959010000000 1.0
C      1  0.4473860000000  0.5955000000000  0.3429870000000 1.0
C      1  0.4000890000000  0.5461190000000  0.4359170000000 1.0
C      1  0.4597030000000  0.6454830000000  0.4820440000000 1.0
C      1  0.5784980000000  0.4803120000000  0.4348800000000 1.0
C      1  0.4405790000000  0.6038460000000  0.4347410000000 1.0
C      1  0.5418530000000  0.5427160000000  0.5812780000000 1.0
C      1  0.4330130000000  0.5073280000000  0.4483260000000 1.0
C      1  0.5359320000000  0.3883600000000  0.5571900000000 1.0
C      1  0.4615980000000  0.4492240000000  0.4199790000000 1.0
C      1  0.4987660000000  0.4113830000000  0.4978620000000 1.0
C      1  0.4803830000000  0.4439730000000  0.3982630000000 1.0
C      1  0.4250850000000  0.5630770000000  0.3715920000000 1.0
C      1  0.4752420000000  0.5553280000000  0.4520420000000 1.0
C      1  0.4158650000000  0.5301610000000  0.5551720000000 1.0
C      1  0.5549530000000  0.4472180000000  0.5724180000000 1.0
C      1  0.5741440000000  0.4097690000000  0.4645730000000 1.0
C      1  0.4875200000000  0.5069440000000  0.6236460000000 1.0
C      1  0.4854490000000  0.4738330000000  0.5588110000000 1.0
C      1  0.5171620000000  0.4037750000000  0.6007910000000 1.0
C      1  0.5348140000000  0.4426530000000  0.4833430000000 1.0
C      1  0.4676530000000  0.4411270000000  0.4475730000000 1.0
C      1  0.4943220000000  0.5079910000000  0.5197100000000 1.0
C      1  0.4607290000000  0.5021700000000  0.6224920000000 1.0
C      1  0.4124350000000  0.4649790000000  0.4335370000000 1.0
C      1  0.5243060000000  0.4590950000000  0.4428380000000 1.0
C      1  0.4542440000000  0.5318780000000  0.5286290000000 1.0
C      1  0.4553530000000  0.6185420000000  0.4771320000000 1.0
C      1  0.4500220000000  0.5338050000000  0.3979990000000 1.0
C      1  0.6163020000000  0.5237870000000  0.4601910000000 1.0
C      1  0.5243220000000  0.5564500000000  0.5631550000000 1.0
C      1  0.5506070000000  0.4499420000000  0.4072680000000 1.0
C      1  0.5137120000000  0.5682930000000  0.4194550000000 1.0
C      1  0.6151350000000  0.4985200000000  0.5523050000000 1.0
C      1  0.4003220000000  0.4858940000000  0.5761470000000 1.0
C      1  0.5671390000000  0.5337550000000  0.5675790000000 1.0
C      1  0.4033490000000  0.5395780000000  0.4099810000000 1.0
C      1  0.5039110000000  0.4588340000000  0.3894720000000 1.0
C      1  0.5305140000000  0.5749430000000  0.5127360000000 1.0
C      1  0.4528440000000  0.5347940000000  0.5880040000000 1.0
C      1  0.4915940000000  0.4743310000000  0.4790040000000 1.0
C      1  0.5878730000000  0.4323510000000  0.4489090000000 1.0
C      1  0.4111070000000  0.4878290000000  0.4521400000000 1.0
C      1  0.4315160000000  0.5482470000000  0.5733060000000 1.0
C      1  0.5057760000000  0.5836390000000  0.4674140000000 1.0
C      1  0.6147140000000  0.6245460000000  0.5205480000000 1.0
C      1  0.4862830000000  0.3924410000000  0.5658270000000 1.0
C      1  0.5378060000000  0.3716630000000  0.4929360000000 1.0
C      1  0.5425520000000  0.4597410000000  0.5064050000000 1.0
C      1  0.4351890000000  0.5152150000000  0.5415470000000 1.0
C      1  0.4825040000000  0.3878030000000  0.5016760000000 1.0
C      1  0.4447070000000  0.5997750000000  0.4956260000000 1.0
C      1  0.5503020000000  0.5887490000000  0.4490140000000 1.0
C      1  0.6061410000000  0.5430360000000  0.5086050000000 1.0
C      1  0.4527880000000  0.4540750000000  0.4693200000000 1.0
C      1  0.4924400000000  0.4295040000000  0.4555120000000 1.0
C      1  0.4762130000000  0.5672430000000  0.5046180000000 1.0
C      1  0.4427480000000  0.6032430000000  0.5236020000000 1.0
C      1  0.5114970000000  0.4253720000000  0.4767800000000 1.0
C      1  0.3907000000000  0.4768110000000  0.5517810000000 1.0
C      1  0.5561210000000  0.3951010000000  0.5378810000000 1.0
C      1  0.6105460000000  0.4449520000000  0.4627640000000 1.0
C      1  0.5560520000000  0.3872840000000  0.5086570000000 1.0
C      1  0.5749310000000  0.5486840000000  0.4732610000000 1.0
C      1  0.5137060000000  0.5235970000000  0.4732660000000 1.0
C      1  0.4383140000000  0.4432640000000  0.4911140000000 1.0
C      1  0.5383740000000  0.5239770000000  0.4588430000000 1.0
C      1  0.5965790000000  0.5286070000000  0.4391480000000 1.0
C      1  0.3968620000000  0.5437770000000  0.5374230000000 1.0
C      1  0.4405730000000  0.4879300000000  0.5458910000000 1.0
C      1  0.5147840000000  0.5091500000000  0.4982350000000 1.0
C      1  0.5186490000000  0.3550880000000  0.5051680000000 1.0
C      1  0.4335230000000  0.5533010000000  0.4729170000000 1.0
C      1  0.4622460000000  0.4224930000000  0.5288060000000 1.0
C      1  0.5755080000000  0.4535750000000  0.4231360000000 1.0
C      1  0.5128310000000  0.4285130000000  0.6142760000000 1.0
C      1  0.5304350000000  0.4375830000000  0.4241080000000 1.0
C      1  0.4905570000000  0.5359060000000  0.4632150000000 1.0
C      1  0.5145060000000  0.5866820000000  0.3975170000000 1.0
C      1  0.5045790000000  0.5754490000000  0.4964880000000 1.0
C      1  0.5927130000000  0.4455940000000  0.5057000000000 1.0
C      1  0.5027030000000  0.5170140000000  0.4184360000000 1.0
C      1  0.5217610000000  0.4120900000000  0.4166320000000 1.0
C      1  0.4184830000000  0.4970960000000  0.5936150000000 1.0
C      1  0.4423370000000  0.5111890000000  0.6027570000000 1.0
C      1  0.4240200000000  0.5428820000000  0.3913580000000 1.0
C      1  0.5980170000000  0.4890120000000  0.5737900000000 1.0
C      1  0.5781620000000  0.4159950000000  0.5423980000000 1.0
C      1  0.3969060000000  0.4637210000000  0.4968150000000 1.0
C      1  0.4104780000000  0.4400210000000  0.4853760000000 1.0
C      1  0.5979980000000  0.4590230000000  0.5735920000000 1.0
C      1  0.6071720000000  0.4916290000000  0.5259530000000 1.0
C      1  0.4986680000000  0.6370800000000  0.5798410000000 1.0
C      1  0.4944880000000  0.6898560000000  0.5311960000000 1.0
C      1  0.5061400000000  0.4326760000000  0.5634810000000 1.0
C      1  0.3888070000000  0.5303450000000  0.5136510000000 1.0
C      1  0.5036500000000  0.4770840000000  0.4509110000000 1.0
C      1  0.5318580000000  0.3790600000000  0.4651200000000 1.0
C      1  0.4681250000000  0.4485190000000  0.6189830000000 1.0
C      1  0.5331680000000  0.4881330000000  0.5009310000000 1.0
C      1  0.4199380000000  0.4429720000000  0.6401540000000 1.0
C      1  0.5532460000000  0.3936580000000  0.4527960000000 1.0
C      1  0.5048700000000  0.6619360000000  0.5727380000000 1.0
C      1  0.4513580000000  0.5837270000000  0.5452770000000 1.0
C      1  0.4598550000000  0.4827370000000  0.5650850000000 1.0
END
