TITL C-599890-3321-1284 10690.9911209369 125000 -1198.97365353443 0 0 193 (C1) n - 1
REM
REM in /home/nfs/bkarasulu/CARBON/AIRSS/Generating-Clusters/TERSOFF/Only-C1/FIRE-HFTN
REM
REM
REM
REM
REM
REM ./C.cell (11c1c37f851c82e70ff6c80c92926a4b)
REM AIRSS Version 0.9.1 bugfix July 2018 build 013d7b7c2542+ Fri, 06 Jul 2018 19:26:36 +0100
REM compiler GCC version 9.2.1 20190827 (Red Hat 9.2.1-1)
REM options -cpp -mtune=generic -march=x86-64 -g -O0 -fpre-include=/usr/include/finclude/math-vector-fortran.h
REM seed -1567028271 732005272 -701766335 -1180939349 -414780399 1745619513 -1963744993 1477320252 -115600467 281220657 -1131388143 1923007250 473949236 1242026847 -431597090 1345404877 -257345146 -908415810 340329946 877276466 -777105851 -894906338 -1098289060 766875455 756195016 -835509625 -1628123321 1737248177 1896494128 923032460 -621440696 181750070 -1334580793
REM
CELL 1.54180   50.00000   50.00000   50.00000   90.00000   90.00000   90.00000
LATT -1
SFAC C  
C      1  0.5197740000000  0.4897130000000  0.6361540000000 1.0
C      1  0.4202950000000  0.5664760000000  0.5559640000000 1.0
C      1  0.4220040000000  0.4412700000000  0.4306970000000 1.0
C      1  0.5000590000000  0.3923790000000  0.4516890000000 1.0
C      1  0.5120850000000  0.4645660000000  0.4239960000000 1.0
C      1  0.5502360000000  0.5624110000000  0.4159010000000 1.0
C      1  0.4735130000000  0.4868650000000  0.6464340000000 1.0
C      1  0.5205080000000  0.5986450000000  0.4654230000000 1.0
C      1  0.4398710000000  0.5921810000000  0.4372750000000 1.0
C      1  0.4519150000000  0.4681780000000  0.6405910000000 1.0
C      1  0.5252090000000  0.5556080000000  0.4034610000000 1.0
C      1  0.5809320000000  0.4265260000000  0.4562360000000 1.0
C      1  0.5587250000000  0.4333160000000  0.4731970000000 1.0
C      1  0.5262580000000  0.4864770000000  0.4319700000000 1.0
C      1  0.5783140000000  0.4584090000000  0.5193720000000 1.0
C      1  0.4535020000000  0.5053500000000  0.5240080000000 1.0
C      1  0.4286560000000  0.4948590000000  0.4093460000000 1.0
C      1  0.5461550000000  0.5359670000000  0.4808370000000 1.0
C      1  0.4454310000000  0.4217400000000  0.5262430000000 1.0
C      1  0.6264950000000  0.4742040000000  0.4988230000000 1.0
C      1  0.4639870000000  0.6316300000000  0.4668000000000 1.0
C      1  0.4759380000000  0.4946610000000  0.5107920000000 1.0
C      1  0.4300390000000  0.5030470000000  0.6102960000000 1.0
C      1  0.5490630000000  0.4795000000000  0.4474960000000 1.0
C      1  0.4318740000000  0.4624630000000  0.4110570000000 1.0
C      1  0.5823550000000  0.4380870000000  0.4302970000000 1.0
C      1  0.4148810000000  0.5212240000000  0.4271230000000 1.0
C      1  0.4984920000000  0.4908600000000  0.3790770000000 1.0
C      1  0.3843080000000  0.5050790000000  0.5385870000000 1.0
C      1  0.6225650000000  0.4467420000000  0.5041190000000 1.0
C      1  0.5944500000000  0.5202560000000  0.5564130000000 1.0
C      1  0.5222580000000  0.5440060000000  0.4695050000000 1.0
C      1  0.4368720000000  0.6022840000000  0.4974490000000 1.0
C      1  0.5068140000000  0.4628140000000  0.5730300000000 1.0
C      1  0.5361430000000  0.5854370000000  0.5407330000000 1.0
C      1  0.4900350000000  0.4462430000000  0.5350610000000 1.0
C      1  0.6086530000000  0.4921570000000  0.4857940000000 1.0
C      1  0.4446220000000  0.4143670000000  0.4656540000000 1.0
C      1  0.4530990000000  0.5191000000000  0.5480920000000 1.0
C      1  0.5995540000000  0.5687230000000  0.4873940000000 1.0
C      1  0.5829040000000  0.5858580000000  0.5051400000000 1.0
C      1  0.4756510000000  0.5845560000000  0.4823200000000 1.0
C      1  0.4635840000000  0.5206280000000  0.5733250000000 1.0
C      1  0.6104510000000  0.4913700000000  0.4574970000000 1.0
C      1  0.5969040000000  0.4145460000000  0.5337640000000 1.0
C      1  0.4838700000000  0.3708550000000  0.5238410000000 1.0
C      1  0.5076180000000  0.5776950000000  0.3993080000000 1.0
C      1  0.5230890000000  0.6006410000000  0.4367120000000 1.0
C      1  0.5152200000000  0.3878600000000  0.4275820000000 1.0
C      1  0.4644880000000  0.5586980000000  0.4771290000000 1.0
C      1  0.3999440000000  0.5606330000000  0.5397530000000 1.0
C      1  0.5103750000000  0.5077590000000  0.5830600000000 1.0
C      1  0.6053950000000  0.4179650000000  0.4673030000000 1.0
C      1  0.4246220000000  0.5784440000000  0.4842350000000 1.0
C      1  0.4664960000000  0.4178130000000  0.4246160000000 1.0
C      1  0.4098840000000  0.4475980000000  0.4599490000000 1.0
C      1  0.5020900000000  0.3768670000000  0.5024980000000 1.0
C      1  0.5901160000000  0.4623570000000  0.4178170000000 1.0
C      1  0.4611500000000  0.5379630000000  0.5958080000000 1.0
C      1  0.4063830000000  0.5450440000000  0.4478220000000 1.0
C      1  0.4691830000000  0.4778600000000  0.4357530000000 1.0
C      1  0.4207420000000  0.4687010000000  0.5206970000000 1.0
C      1  0.5000140000000  0.5016170000000  0.5227340000000 1.0
C      1  0.3995060000000  0.5488760000000  0.5145340000000 1.0
C      1  0.4743600000000  0.4735830000000  0.4916460000000 1.0
C      1  0.4535070000000  0.4961860000000  0.4485170000000 1.0
C      1  0.5711210000000  0.5424840000000  0.4185260000000 1.0
C      1  0.5149850000000  0.4039900000000  0.4050840000000 1.0
C      1  0.4686790000000  0.5885050000000  0.4282230000000 1.0
C      1  0.6044660000000  0.5448350000000  0.5010150000000 1.0
C      1  0.4467870000000  0.5644960000000  0.5557530000000 1.0
C      1  0.5649990000000  0.4524690000000  0.5702020000000 1.0
C      1  0.4679330000000  0.5256980000000  0.3909380000000 1.0
C      1  0.4930850000000  0.6126570000000  0.5158500000000 1.0
C      1  0.5103810000000  0.5259000000000  0.4526510000000 1.0
C      1  0.4807310000000  0.5578130000000  0.6004430000000 1.0
C      1  0.4979500000000  0.5948500000000  0.4209560000000 1.0
C      1  0.4997670000000  0.4727480000000  0.6480920000000 1.0
C      1  0.3772740000000  0.5070450000000  0.5115390000000 1.0
C      1  0.5199410000000  0.4819450000000  0.5277560000000 1.0
C      1  0.5916350000000  0.5694490000000  0.4588320000000 1.0
C      1  0.5534660000000  0.5738250000000  0.5808000000000 1.0
C      1  0.4620720000000  0.3782290000000  0.5379680000000 1.0
C      1  0.5649360000000  0.5994400000000  0.4842350000000 1.0
C      1  0.4590870000000  0.6080270000000  0.4792400000000 1.0
C      1  0.4778950000000  0.4716090000000  0.5714430000000 1.0
C      1  0.4353540000000  0.4855030000000  0.4661400000000 1.0
C      1  0.5296700000000  0.3810240000000  0.5094420000000 1.0
C      1  0.4488510000000  0.4654220000000  0.4817440000000 1.0
C      1  0.5532910000000  0.5262530000000  0.6005540000000 1.0
C      1  0.5252130000000  0.4781310000000  0.3840140000000 1.0
C      1  0.5245460000000  0.5757680000000  0.5845930000000 1.0
C      1  0.4006640000000  0.3929210000000  0.5761670000000 1.0
C      1  0.3830380000000  0.5560520000000  0.4925280000000 1.0
C      1  0.5634310000000  0.5212140000000  0.4646420000000 1.0
C      1  0.4638750000000  0.5205520000000  0.4515310000000 1.0
C      1  0.5520360000000  0.3974940000000  0.5158140000000 1.0
C      1  0.5448350000000  0.4578620000000  0.4659310000000 1.0
C      1  0.4916080000000  0.4411860000000  0.4591560000000 1.0
C      1  0.4914020000000  0.5495530000000  0.5325910000000 1.0
C      1  0.5647860000000  0.5133780000000  0.4161310000000 1.0
C      1  0.5526450000000  0.4231790000000  0.5005160000000 1.0
C      1  0.4967320000000  0.4526790000000  0.4867350000000 1.0
C      1  0.4740120000000  0.4314990000000  0.4006110000000 1.0
C      1  0.4395230000000  0.5529670000000  0.4913430000000 1.0
C      1  0.5282420000000  0.4043150000000  0.6539220000000 1.0
C      1  0.5549690000000  0.4423560000000  0.5229960000000 1.0
C      1  0.4458580000000  0.6093210000000  0.5247060000000 1.0
C      1  0.5706550000000  0.4807840000000  0.5789100000000 1.0
C      1  0.3985930000000  0.4553080000000  0.5078190000000 1.0
C      1  0.5135710000000  0.5889710000000  0.5603670000000 1.0
C      1  0.4518570000000  0.5021180000000  0.3912410000000 1.0
C      1  0.5696600000000  0.4050410000000  0.5409210000000 1.0
C      1  0.5163720000000  0.5707250000000  0.4687480000000 1.0
C      1  0.5068740000000  0.5646300000000  0.5138820000000 1.0
C      1  0.4893490000000  0.4341800000000  0.5096650000000 1.0
C      1  0.4578410000000  0.4551040000000  0.3947490000000 1.0
C      1  0.5816930000000  0.5294090000000  0.5084630000000 1.0
C      1  0.5856760000000  0.4622650000000  0.3690880000000 1.0
C      1  0.5502290000000  0.5867980000000  0.4329170000000 1.0
C      1  0.5175210000000  0.4534950000000  0.3984560000000 1.0
C      1  0.5091940000000  0.5565810000000  0.5990230000000 1.0
C      1  0.5062360000000  0.5158460000000  0.6297440000000 1.0
C      1  0.6065740000000  0.4792710000000  0.4337620000000 1.0
C      1  0.4889990000000  0.3858740000000  0.4778090000000 1.0
C      1  0.5255600000000  0.4646670000000  0.4857150000000 1.0
C      1  0.4206450000000  0.5742300000000  0.4535150000000 1.0
C      1  0.4419010000000  0.3980680000000  0.5419970000000 1.0
C      1  0.4407820000000  0.4181310000000  0.4364720000000 1.0
C      1  0.5923730000000  0.5511960000000  0.4366750000000 1.0
C      1  0.4899350000000  0.4608560000000  0.4393090000000 1.0
C      1  0.5610750000000  0.5863310000000  0.5545300000000 1.0
C      1  0.5353210000000  0.5643530000000  0.5199040000000 1.0
C      1  0.4701080000000  0.4794030000000  0.3836810000000 1.0
C      1  0.4530530000000  0.5210100000000  0.6173390000000 1.0
C      1  0.4207060000000  0.3947030000000  0.5596060000000 1.0
C      1  0.5199790000000  0.5288800000000  0.6049340000000 1.0
C      1  0.3911240000000  0.4433290000000  0.4838140000000 1.0
C      1  0.5031450000000  0.4287080000000  0.3951740000000 1.0
C      1  0.5734450000000  0.5011730000000  0.5584720000000 1.0
C      1  0.3851770000000  0.4906520000000  0.4647170000000 1.0
C      1  0.4278840000000  0.5035170000000  0.5127590000000 1.0
C      1  0.4361000000000  0.4404250000000  0.4754570000000 1.0
C      1  0.5208390000000  0.4798730000000  0.5904220000000 1.0
C      1  0.4866930000000  0.4170050000000  0.4454930000000 1.0
C      1  0.6246140000000  0.4276460000000  0.4834550000000 1.0
C      1  0.5379690000000  0.4797850000000  0.5066720000000 1.0
C      1  0.5221470000000  0.5193700000000  0.5581630000000 1.0
C      1  0.4656730000000  0.4572860000000  0.5488720000000 1.0
C      1  0.5649370000000  0.5027190000000  0.4438850000000 1.0
C      1  0.5821620000000  0.5749340000000  0.5398110000000 1.0
C      1  0.3858950000000  0.5381410000000  0.4701260000000 1.0
C      1  0.5873770000000  0.5471890000000  0.5618420000000 1.0
C      1  0.5577050000000  0.4314440000000  0.5499680000000 1.0
C      1  0.4951860000000  0.5877370000000  0.5022870000000 1.0
C      1  0.5129790000000  0.4601380000000  0.5448400000000 1.0
C      1  0.4663770000000  0.4177570000000  0.5065640000000 1.0
C      1  0.4932330000000  0.4445990000000  0.6483010000000 1.0
C      1  0.5563500000000  0.4915670000000  0.3954990000000 1.0
C      1  0.5673840000000  0.5486120000000  0.5849790000000 1.0
C      1  0.5545710000000  0.5436910000000  0.5073580000000 1.0
C      1  0.5387710000000  0.6106660000000  0.4836030000000 1.0
C      1  0.5669760000000  0.4822930000000  0.5088870000000 1.0
C      1  0.4121120000000  0.5052460000000  0.5867590000000 1.0
C      1  0.4674190000000  0.5472250000000  0.4515330000000 1.0
C      1  0.5146320000000  0.5290570000000  0.4050430000000 1.0
C      1  0.4811030000000  0.4996590000000  0.5784420000000 1.0
C      1  0.4681380000000  0.5594330000000  0.4261650000000 1.0
C      1  0.4730840000000  0.6113750000000  0.5364080000000 1.0
C      1  0.4737950000000  0.5657130000000  0.5488830000000 1.0
C      1  0.5366160000000  0.4818300000000  0.6142470000000 1.0
C      1  0.4646460000000  0.4424830000000  0.6436970000000 1.0
C      1  0.5483560000000  0.5122980000000  0.5512710000000 1.0
C      1  0.5032040000000  0.5247440000000  0.5380280000000 1.0
C      1  0.5108630000000  0.4236150000000  0.6517620000000 1.0
C      1  0.4639940000000  0.4017800000000  0.4829890000000 1.0
C      1  0.5854760000000  0.5017950000000  0.5010120000000 1.0
C      1  0.4225940000000  0.5326980000000  0.5055220000000 1.0
C      1  0.4090260000000  0.4777590000000  0.4591480000000 1.0
C      1  0.6017410000000  0.4413690000000  0.5225500000000 1.0
C      1  0.5699530000000  0.5887900000000  0.4561950000000 1.0
C      1  0.4410640000000  0.4504520000000  0.5344740000000 1.0
C      1  0.5601730000000  0.4956630000000  0.6032660000000 1.0
C      1  0.5776300000000  0.4716140000000  0.3935390000000 1.0
C      1  0.3795980000000  0.5118070000000  0.4820860000000 1.0
C      1  0.4761260000000  0.5125960000000  0.6336880000000 1.0
C      1  0.4589670000000  0.5500640000000  0.4008960000000 1.0
C      1  0.4956120000000  0.5190220000000  0.3867640000000 1.0
C      1  0.5169830000000  0.5131710000000  0.4289260000000 1.0
C      1  0.4854500000000  0.5914350000000  0.5543390000000 1.0
C      1  0.4307700000000  0.4786750000000  0.6253620000000 1.0
C      1  0.3971790000000  0.5048070000000  0.5633110000000 1.0
C      1  0.4414000000000  0.5649040000000  0.3859410000000 1.0
END
