TITL C-599892-9790-616 -0.0899257199819759 125000 -415.684242739641 0 0 70 (C1) n - 1
REM
REM in /home/nfs/bkarasulu/CARBON/AIRSS/Generating-Clusters/TERSOFF/Only-C1/FIRE-HFTN
REM
REM
REM
REM
REM
REM ./C.cell (11c1c37f851c82e70ff6c80c92926a4b)
REM AIRSS Version 0.9.1 bugfix July 2018 build 013d7b7c2542+ Fri, 06 Jul 2018 19:26:36 +0100
REM compiler GCC version 9.2.1 20190827 (Red Hat 9.2.1-1)
REM options -cpp -mtune=generic -march=x86-64 -g -O0 -fpre-include=/usr/include/finclude/math-vector-fortran.h
REM seed -962765724 1435583797 934414823 -836396747 -227499300 1936836057 -163390669 192229567 713962468 -881202416 419611459 467661724 1799851678 714760897 -479218841 -1306918022 -395710430 -1380426008 896535880 1029788867 640964677 -1641053652 -2064508503 -1950122967 307265523 977772224 1205741218 -494541214 388160683 1167492222 949359548 -1144972505 1263842954
REM
CELL 1.54180   50.00000   50.00000   50.00000   90.00000   90.00000   90.00000
LATT -1
SFAC C  
C      1  0.5264560000000  0.5699310000000  0.5274550000000 1.0
C      1  0.4544230000000  0.5349290000000  0.4978730000000 1.0
C      1  0.5547410000000  0.5055630000000  0.5409750000000 1.0
C      1  0.4261050000000  0.4929890000000  0.4490200000000 1.0
C      1  0.5662740000000  0.5290210000000  0.5291360000000 1.0
C      1  0.6071290000000  0.5151330000000  0.4514240000000 1.0
C      1  0.5385330000000  0.5622820000000  0.5033630000000 1.0
C      1  0.5866770000000  0.5254720000000  0.4647000000000 1.0
C      1  0.4891180000000  0.4627750000000  0.4416230000000 1.0
C      1  0.5212470000000  0.4064250000000  0.4696060000000 1.0
C      1  0.5252820000000  0.5053650000000  0.4797220000000 1.0
C      1  0.5623490000000  0.5448520000000  0.5055680000000 1.0
C      1  0.5141360000000  0.5482050000000  0.5395410000000 1.0
C      1  0.4321580000000  0.4619210000000  0.5238710000000 1.0
C      1  0.4760620000000  0.5303440000000  0.5582660000000 1.0
C      1  0.5268250000000  0.5957230000000  0.5375620000000 1.0
C      1  0.5360640000000  0.5298840000000  0.4713190000000 1.0
C      1  0.5239550000000  0.4198590000000  0.5357010000000 1.0
C      1  0.5404490000000  0.4590030000000  0.4446300000000 1.0
C      1  0.6468720000000  0.4919890000000  0.4250740000000 1.0
C      1  0.3974270000000  0.4295900000000  0.5103680000000 1.0
C      1  0.4964330000000  0.5266110000000  0.5390320000000 1.0
C      1  0.6270520000000  0.5036640000000  0.4382440000000 1.0
C      1  0.4378260000000  0.5248280000000  0.5166850000000 1.0
C      1  0.4343300000000  0.5218280000000  0.5449440000000 1.0
C      1  0.4704820000000  0.3837350000000  0.5359740000000 1.0
C      1  0.4569620000000  0.5083290000000  0.5593990000000 1.0
C      1  0.5227100000000  0.4982560000000  0.5068960000000 1.0
C      1  0.4690300000000  0.4864730000000  0.5725660000000 1.0
C      1  0.4384340000000  0.5165900000000  0.4478710000000 1.0
C      1  0.4343610000000  0.5479660000000  0.5586200000000 1.0
C      1  0.4618910000000  0.5828810000000  0.4311320000000 1.0
C      1  0.5642140000000  0.5328940000000  0.4788480000000 1.0
C      1  0.4589520000000  0.5449180000000  0.4015670000000 1.0
C      1  0.5525330000000  0.4604380000000  0.5171430000000 1.0
C      1  0.4890600000000  0.5871560000000  0.4703510000000 1.0
C      1  0.4870160000000  0.4668140000000  0.4890070000000 1.0
C      1  0.5209170000000  0.4908880000000  0.5780220000000 1.0
C      1  0.4787990000000  0.4835170000000  0.5111800000000 1.0
C      1  0.4468990000000  0.4509680000000  0.4672680000000 1.0
C      1  0.4792300000000  0.5992110000000  0.5899830000000 1.0
C      1  0.5127750000000  0.4215540000000  0.4905290000000 1.0
C      1  0.4749700000000  0.5971820000000  0.4497360000000 1.0
C      1  0.4978040000000  0.5036030000000  0.5202960000000 1.0
C      1  0.4567640000000  0.5379800000000  0.4497250000000 1.0
C      1  0.5153130000000  0.4615370000000  0.4355880000000 1.0
C      1  0.5086950000000  0.4492260000000  0.4905150000000 1.0
C      1  0.4269070000000  0.4669870000000  0.4555540000000 1.0
C      1  0.4419850000000  0.4321180000000  0.4886180000000 1.0
C      1  0.4617630000000  0.5548140000000  0.5656310000000 1.0
C      1  0.4729120000000  0.4621530000000  0.4647430000000 1.0
C      1  0.4937720000000  0.5599120000000  0.4769690000000 1.0
C      1  0.4602540000000  0.4125970000000  0.4981810000000 1.0
C      1  0.5058000000000  0.4106340000000  0.5158830000000 1.0
C      1  0.4589920000000  0.5551880000000  0.4269250000000 1.0
C      1  0.4697530000000  0.5430780000000  0.4752400000000 1.0
C      1  0.4226610000000  0.4408500000000  0.5079460000000 1.0
C      1  0.4546450000000  0.4763510000000  0.5232700000000 1.0
C      1  0.6663650000000  0.4805030000000  0.4121220000000 1.0
C      1  0.4786630000000  0.4018390000000  0.5172160000000 1.0
C      1  0.3737710000000  0.4188220000000  0.5122600000000 1.0
C      1  0.5577590000000  0.4561090000000  0.4649130000000 1.0
C      1  0.5210990000000  0.5529190000000  0.4813330000000 1.0
C      1  0.5427140000000  0.4394430000000  0.5336810000000 1.0
C      1  0.5443650000000  0.4873190000000  0.5215950000000 1.0
C      1  0.5279600000000  0.6204690000000  0.5456550000000 1.0
C      1  0.4951490000000  0.4829280000000  0.5793150000000 1.0
C      1  0.5428770000000  0.5017160000000  0.5664980000000 1.0
C      1  0.4712950000000  0.5778920000000  0.5772690000000 1.0
C      1  0.5628070000000  0.4550530000000  0.4912600000000 1.0
END
