TITL C-599897-7526-1193 0.0662404002592961 125000 -996.948654769205 0 0 162 (C1) n - 1
REM
REM in /home/nfs/bkarasulu/CARBON/AIRSS/Generating-Clusters/TERSOFF/Only-C1/FIRE-HFTN
REM
REM
REM
REM
REM
REM ./C.cell (11c1c37f851c82e70ff6c80c92926a4b)
REM AIRSS Version 0.9.1 bugfix July 2018 build 013d7b7c2542+ Fri, 06 Jul 2018 19:26:36 +0100
REM compiler GCC version 9.2.1 20190827 (Red Hat 9.2.1-1)
REM options -cpp -mtune=generic -march=x86-64 -g -O0 -fpre-include=/usr/include/finclude/math-vector-fortran.h
REM seed -460845505 1479122419 -1842134522 -136083665 -799043938 -1914753040 -1037864316 -1938170279 1727821228 579268490 -955893138 2050653158 1223107021 -1185267529 1627092603 -1316794996 -676728988 1319146224 848180846 -695665442 -1176567056 2074757105 759283122 -426300423 1064065473 141786132 -1174972136 867525347 -752271757 77288253 141640672 754321679 1271190525
REM
CELL 1.54180   50.00000   50.00000   50.00000   90.00000   90.00000   90.00000
LATT -1
SFAC C  
C      1  0.4483060000000  0.5098630000000  0.4078120000000 1.0
C      1  0.4547350000000  0.4568060000000  0.3819850000000 1.0
C      1  0.4791550000000  0.5873650000000  0.5223480000000 1.0
C      1  0.5939680000000  0.5096360000000  0.4241780000000 1.0
C      1  0.4682370000000  0.3872400000000  0.4721820000000 1.0
C      1  0.5374850000000  0.5220160000000  0.5512670000000 1.0
C      1  0.4260480000000  0.5253550000000  0.4923960000000 1.0
C      1  0.5100100000000  0.5509920000000  0.6182990000000 1.0
C      1  0.5562600000000  0.4380050000000  0.5763320000000 1.0
C      1  0.4264680000000  0.4901110000000  0.4041880000000 1.0
C      1  0.4069420000000  0.4649660000000  0.4754310000000 1.0
C      1  0.5721120000000  0.5063730000000  0.3856550000000 1.0
C      1  0.5892640000000  0.4941160000000  0.4968220000000 1.0
C      1  0.5350110000000  0.5948560000000  0.4752470000000 1.0
C      1  0.5524990000000  0.5895150000000  0.4540810000000 1.0
C      1  0.5551700000000  0.5715650000000  0.4090100000000 1.0
C      1  0.5277390000000  0.4833270000000  0.4477610000000 1.0
C      1  0.5855540000000  0.4786020000000  0.5646980000000 1.0
C      1  0.5749090000000  0.4365640000000  0.5038340000000 1.0
C      1  0.5371430000000  0.4258610000000  0.4739700000000 1.0
C      1  0.4325340000000  0.4725360000000  0.3822790000000 1.0
C      1  0.5135020000000  0.4833820000000  0.6079320000000 1.0
C      1  0.4964170000000  0.3999880000000  0.5249920000000 1.0
C      1  0.5380020000000  0.5860010000000  0.5946210000000 1.0
C      1  0.3893140000000  0.5636020000000  0.5300520000000 1.0
C      1  0.5939510000000  0.5562620000000  0.5148590000000 1.0
C      1  0.5309070000000  0.4500810000000  0.5205180000000 1.0
C      1  0.4011390000000  0.5571050000000  0.4652950000000 1.0
C      1  0.5130740000000  0.4994770000000  0.3819160000000 1.0
C      1  0.4724000000000  0.3910400000000  0.4454380000000 1.0
C      1  0.4638470000000  0.5496370000000  0.4707380000000 1.0
C      1  0.6214430000000  0.5121420000000  0.5215490000000 1.0
C      1  0.5934780000000  0.4685130000000  0.5385770000000 1.0
C      1  0.5464980000000  0.4356380000000  0.4997940000000 1.0
C      1  0.5809860000000  0.4418960000000  0.5315940000000 1.0
C      1  0.5745650000000  0.5719060000000  0.4640800000000 1.0
C      1  0.4676410000000  0.5693360000000  0.6031360000000 1.0
C      1  0.5224010000000  0.5225210000000  0.4233470000000 1.0
C      1  0.5047730000000  0.4716850000000  0.4351490000000 1.0
C      1  0.5831820000000  0.5535800000000  0.5423000000000 1.0
C      1  0.4531250000000  0.5342040000000  0.4912710000000 1.0
C      1  0.5172600000000  0.5541770000000  0.5002870000000 1.0
C      1  0.4515680000000  0.4607740000000  0.5732350000000 1.0
C      1  0.4793000000000  0.5383950000000  0.5473340000000 1.0
C      1  0.3681640000000  0.5197550000000  0.5087490000000 1.0
C      1  0.5502300000000  0.4332680000000  0.4480970000000 1.0
C      1  0.5148510000000  0.3816780000000  0.5114360000000 1.0
C      1  0.4615300000000  0.5324140000000  0.3960520000000 1.0
C      1  0.5413180000000  0.3851950000000  0.5199000000000 1.0
C      1  0.4701460000000  0.5137830000000  0.5019910000000 1.0
C      1  0.4635240000000  0.4369350000000  0.5310320000000 1.0
C      1  0.4886150000000  0.5430920000000  0.3963180000000 1.0
C      1  0.4754020000000  0.4535470000000  0.4010090000000 1.0
C      1  0.5589570000000  0.5652710000000  0.5518480000000 1.0
C      1  0.4663050000000  0.4612600000000  0.5144950000000 1.0
C      1  0.4941970000000  0.5147980000000  0.5394890000000 1.0
C      1  0.4435980000000  0.4292510000000  0.4446620000000 1.0
C      1  0.4938900000000  0.5997950000000  0.4481310000000 1.0
C      1  0.5123890000000  0.4519130000000  0.6081690000000 1.0
C      1  0.5785210000000  0.5061400000000  0.5680600000000 1.0
C      1  0.5211620000000  0.5039510000000  0.5356260000000 1.0
C      1  0.5207180000000  0.5279510000000  0.4915790000000 1.0
C      1  0.4844170000000  0.4770910000000  0.4158940000000 1.0
C      1  0.4030100000000  0.4832960000000  0.4521820000000 1.0
C      1  0.5390510000000  0.5857120000000  0.4281900000000 1.0
C      1  0.6048480000000  0.4883900000000  0.5198780000000 1.0
C      1  0.4164550000000  0.4752240000000  0.4280770000000 1.0
C      1  0.5320370000000  0.4875180000000  0.5837860000000 1.0
C      1  0.5499470000000  0.5110530000000  0.5770000000000 1.0
C      1  0.5128570000000  0.4249960000000  0.4139750000000 1.0
C      1  0.3914960000000  0.5074670000000  0.4643240000000 1.0
C      1  0.5425070000000  0.6088680000000  0.4991200000000 1.0
C      1  0.5364350000000  0.5497090000000  0.5445160000000 1.0
C      1  0.5831720000000  0.4669540000000  0.4420350000000 1.0
C      1  0.4386350000000  0.4248420000000  0.4738510000000 1.0
C      1  0.3792250000000  0.5009530000000  0.4908390000000 1.0
C      1  0.5770990000000  0.4427040000000  0.4538110000000 1.0
C      1  0.4501830000000  0.4814970000000  0.4742890000000 1.0
C      1  0.5218240000000  0.4739140000000  0.3848850000000 1.0
C      1  0.3958640000000  0.5779240000000  0.4814600000000 1.0
C      1  0.5274960000000  0.4795680000000  0.4755410000000 1.0
C      1  0.4859180000000  0.4387370000000  0.6060370000000 1.0
C      1  0.5383020000000  0.4390500000000  0.4197220000000 1.0
C      1  0.5744510000000  0.4920570000000  0.4348460000000 1.0
C      1  0.5294460000000  0.4351280000000  0.5881850000000 1.0
C      1  0.5727430000000  0.5487180000000  0.4466610000000 1.0
C      1  0.4944480000000  0.4714550000000  0.5574220000000 1.0
C      1  0.5019840000000  0.4830030000000  0.4877140000000 1.0
C      1  0.4825570000000  0.4956980000000  0.5951370000000 1.0
C      1  0.4958710000000  0.5693890000000  0.4070110000000 1.0
C      1  0.5435910000000  0.4057970000000  0.5403380000000 1.0
C      1  0.5548990000000  0.5286990000000  0.4560450000000 1.0
C      1  0.4520320000000  0.4869450000000  0.5046150000000 1.0
C      1  0.5200590000000  0.5036140000000  0.6285900000000 1.0
C      1  0.4620960000000  0.4367780000000  0.5605160000000 1.0
C      1  0.4078630000000  0.5303870000000  0.4704960000000 1.0
C      1  0.4656900000000  0.4958290000000  0.4255790000000 1.0
C      1  0.4709800000000  0.4123920000000  0.5162010000000 1.0
C      1  0.5101020000000  0.5228790000000  0.3974550000000 1.0
C      1  0.5662390000000  0.4794350000000  0.3900890000000 1.0
C      1  0.4732280000000  0.4790570000000  0.5746840000000 1.0
C      1  0.5906200000000  0.5297910000000  0.5572650000000 1.0
C      1  0.5886920000000  0.4362100000000  0.4791690000000 1.0
C      1  0.5825680000000  0.5267330000000  0.4040020000000 1.0
C      1  0.4840050000000  0.4282120000000  0.4126330000000 1.0
C      1  0.4656940000000  0.4150350000000  0.4314620000000 1.0
C      1  0.5159580000000  0.5589640000000  0.5277310000000 1.0
C      1  0.5547010000000  0.5823580000000  0.5738420000000 1.0
C      1  0.5175600000000  0.6168750000000  0.5110640000000 1.0
C      1  0.4038620000000  0.4349390000000  0.5104700000000 1.0
C      1  0.4291330000000  0.4609090000000  0.5885120000000 1.0
C      1  0.4578540000000  0.4933870000000  0.4519740000000 1.0
C      1  0.5285440000000  0.5297850000000  0.6203330000000 1.0
C      1  0.4924420000000  0.4514870000000  0.4505940000000 1.0
C      1  0.5729080000000  0.5507540000000  0.4170090000000 1.0
C      1  0.6154440000000  0.5372440000000  0.5116620000000 1.0
C      1  0.4833640000000  0.5461710000000  0.4529280000000 1.0
C      1  0.4971460000000  0.5100780000000  0.4936910000000 1.0
C      1  0.4264520000000  0.5685500000000  0.5694390000000 1.0
C      1  0.5092470000000  0.5866360000000  0.4266120000000 1.0
C      1  0.4572840000000  0.4073890000000  0.4896770000000 1.0
C      1  0.4758850000000  0.5226990000000  0.5947370000000 1.0
C      1  0.5744410000000  0.4590960000000  0.5824460000000 1.0
C      1  0.5483530000000  0.5246570000000  0.4826550000000 1.0
C      1  0.5102320000000  0.4184270000000  0.4758140000000 1.0
C      1  0.5054630000000  0.5355070000000  0.4425700000000 1.0
C      1  0.4195800000000  0.5055900000000  0.5396420000000 1.0
C      1  0.3736550000000  0.5405000000000  0.5249890000000 1.0
C      1  0.4862350000000  0.6058320000000  0.4740990000000 1.0
C      1  0.3905790000000  0.4691780000000  0.5479990000000 1.0
C      1  0.5444130000000  0.4615170000000  0.3987110000000 1.0
C      1  0.4645430000000  0.5370190000000  0.5714240000000 1.0
C      1  0.5323440000000  0.4792440000000  0.5221760000000 1.0
C      1  0.4818000000000  0.4259900000000  0.5796920000000 1.0
C      1  0.4888510000000  0.5635570000000  0.5357140000000 1.0
C      1  0.4278560000000  0.4485830000000  0.4308430000000 1.0
C      1  0.3922460000000  0.5809350000000  0.5079030000000 1.0
C      1  0.5625670000000  0.4258730000000  0.5501570000000 1.0
C      1  0.5146470000000  0.4101210000000  0.5466920000000 1.0
C      1  0.5815180000000  0.5746640000000  0.4942900000000 1.0
C      1  0.5683080000000  0.5984560000000  0.5061250000000 1.0
C      1  0.4913200000000  0.6060150000000  0.5032580000000 1.0
C      1  0.4239050000000  0.4995250000000  0.5106120000000 1.0
C      1  0.4919050000000  0.4394900000000  0.4754040000000 1.0
C      1  0.4884230000000  0.5894610000000  0.6041610000000 1.0
C      1  0.5489930000000  0.5290470000000  0.6007160000000 1.0
C      1  0.4158590000000  0.4383090000000  0.4844030000000 1.0
C      1  0.5453230000000  0.5060910000000  0.4375460000000 1.0
C      1  0.3944910000000  0.4595150000000  0.5219140000000 1.0
C      1  0.4054360000000  0.5671040000000  0.5528920000000 1.0
C      1  0.4881910000000  0.4592560000000  0.4952610000000 1.0
C      1  0.5636660000000  0.5036850000000  0.4940640000000 1.0
C      1  0.5448600000000  0.4839230000000  0.4970570000000 1.0
C      1  0.5089910000000  0.4204320000000  0.5718150000000 1.0
C      1  0.4001510000000  0.4812530000000  0.5015470000000 1.0
C      1  0.5180120000000  0.5735940000000  0.4810380000000 1.0
C      1  0.4822880000000  0.5445120000000  0.6126690000000 1.0
C      1  0.5205920000000  0.4711520000000  0.5636280000000 1.0
C      1  0.5149800000000  0.5783300000000  0.6086810000000 1.0
C      1  0.4010120000000  0.4938000000000  0.5575980000000 1.0
C      1  0.3929000000000  0.5056780000000  0.5807030000000 1.0
C      1  0.4508170000000  0.5611380000000  0.5808570000000 1.0
END
