TITL C-599895-9959-923 0.000130536849657416 125000 -386.069711204682 0 0 65 (C1) n - 1
REM
REM in /home/nfs/bkarasulu/CARBON/AIRSS/Generating-Clusters/TERSOFF/Only-C1/FIRE-HFTN
REM
REM
REM
REM
REM
REM ./C.cell (11c1c37f851c82e70ff6c80c92926a4b)
REM AIRSS Version 0.9.1 bugfix July 2018 build 013d7b7c2542+ Fri, 06 Jul 2018 19:26:36 +0100
REM compiler GCC version 9.2.1 20190827 (Red Hat 9.2.1-1)
REM options -cpp -mtune=generic -march=x86-64 -g -O0 -fpre-include=/usr/include/finclude/math-vector-fortran.h
REM seed 1336537493 -332275033 -1961911233 2054519750 -1745967991 -268650945 1360360611 -1897877684 1127557873 1423316487 1652979918 1180557670 -1360501900 693590534 286757090 1184771940 -1136830949 -709635031 -1870650517 -2075644428 -404136659 768025117 -982041961 237326999 956803127 -1252551362 -424703129 1770334850 1163709320 -436275682 2043455076 -832945897 -1854655016
REM
CELL 1.54180   50.00000   50.00000   50.00000   90.00000   90.00000   90.00000
LATT -1
SFAC C  
C      1  0.5228190000000  0.5805820000000  0.4961060000000 1.0
C      1  0.5515090000000  0.5165970000000  0.4609170000000 1.0
C      1  0.4669550000000  0.4377370000000  0.5563260000000 1.0
C      1  0.3926300000000  0.4388830000000  0.4585220000000 1.0
C      1  0.4295200000000  0.4621750000000  0.5154010000000 1.0
C      1  0.4464620000000  0.4425890000000  0.4578030000000 1.0
C      1  0.5503120000000  0.4472960000000  0.4720530000000 1.0
C      1  0.4916350000000  0.4770270000000  0.4977580000000 1.0
C      1  0.4390200000000  0.5448710000000  0.5487500000000 1.0
C      1  0.5116910000000  0.4997580000000  0.4351520000000 1.0
C      1  0.5492810000000  0.4559530000000  0.5230000000000 1.0
C      1  0.5345250000000  0.4933740000000  0.4973260000000 1.0
C      1  0.5329970000000  0.4605540000000  0.4538350000000 1.0
C      1  0.5306960000000  0.5403710000000  0.5432130000000 1.0
C      1  0.5829000000000  0.5440860000000  0.5082230000000 1.0
C      1  0.5785910000000  0.5525900000000  0.5593160000000 1.0
C      1  0.5026040000000  0.5101050000000  0.4601230000000 1.0
C      1  0.5512120000000  0.5463330000000  0.5591090000000 1.0
C      1  0.4551610000000  0.5438220000000  0.4832320000000 1.0
C      1  0.5015460000000  0.5386070000000  0.4971370000000 1.0
C      1  0.4355900000000  0.4372290000000  0.3860370000000 1.0
C      1  0.4836050000000  0.4962660000000  0.5386060000000 1.0
C      1  0.4275140000000  0.5187640000000  0.5423980000000 1.0
C      1  0.4683150000000  0.5135040000000  0.5204460000000 1.0
C      1  0.5948490000000  0.4977950000000  0.5177250000000 1.0
C      1  0.4602540000000  0.4477750000000  0.4329120000000 1.0
C      1  0.5722240000000  0.4595880000000  0.5388990000000 1.0
C      1  0.4495570000000  0.4421350000000  0.5084290000000 1.0
C      1  0.4450510000000  0.5691170000000  0.4859350000000 1.0
C      1  0.5922800000000  0.5593240000000  0.5825370000000 1.0
C      1  0.4751250000000  0.4863860000000  0.5636320000000 1.0
C      1  0.4476410000000  0.4421230000000  0.4086190000000 1.0
C      1  0.5089990000000  0.4921730000000  0.4816330000000 1.0
C      1  0.4465410000000  0.5280500000000  0.4617220000000 1.0
C      1  0.5050930000000  0.4492590000000  0.4535120000000 1.0
C      1  0.5183860000000  0.5377370000000  0.5197790000000 1.0
C      1  0.5303200000000  0.4771750000000  0.5215100000000 1.0
C      1  0.5697810000000  0.5634140000000  0.4924680000000 1.0
C      1  0.5796880000000  0.5160750000000  0.5026190000000 1.0
C      1  0.4904900000000  0.4371690000000  0.4756010000000 1.0
C      1  0.4147800000000  0.4945900000000  0.5527830000000 1.0
C      1  0.4407560000000  0.5085600000000  0.5189960000000 1.0
C      1  0.5911130000000  0.5514400000000  0.5341410000000 1.0
C      1  0.4746930000000  0.5332890000000  0.5013670000000 1.0
C      1  0.4868690000000  0.4581740000000  0.4327820000000 1.0
C      1  0.4610650000000  0.4298380000000  0.5312650000000 1.0
C      1  0.5093580000000  0.5357240000000  0.4697730000000 1.0
C      1  0.5526630000000  0.4420190000000  0.4983830000000 1.0
C      1  0.4370790000000  0.5143950000000  0.4416380000000 1.0
C      1  0.5365960000000  0.5427470000000  0.4644830000000 1.0
C      1  0.5011110000000  0.5833710000000  0.5133060000000 1.0
C      1  0.4168620000000  0.4691540000000  0.5411930000000 1.0
C      1  0.4797450000000  0.5764070000000  0.5296180000000 1.0
C      1  0.4186490000000  0.4403240000000  0.4582970000000 1.0
C      1  0.4945920000000  0.4826210000000  0.4208430000000 1.0
C      1  0.5438610000000  0.5655490000000  0.4815020000000 1.0
C      1  0.5921740000000  0.4771290000000  0.5345650000000 1.0
C      1  0.4317390000000  0.4876160000000  0.5026150000000 1.0
C      1  0.4587420000000  0.5632640000000  0.5420370000000 1.0
C      1  0.4703270000000  0.4605930000000  0.5701530000000 1.0
C      1  0.5012180000000  0.4784310000000  0.5250230000000 1.0
C      1  0.4620750000000  0.4392610000000  0.4818540000000 1.0
C      1  0.5377550000000  0.4890190000000  0.4435730000000 1.0
C      1  0.6051780000000  0.5655470000000  0.6043110000000 1.0
C      1  0.5576320000000  0.5065710000000  0.4871800000000 1.0
END
