TITL C-599897-7526-194 0.0663094303903963 125000 -69.4227590691846 0 0 13 (Cs) n - 1
REM
REM in /home/nfs/bkarasulu/CARBON/AIRSS/Generating-Clusters/TERSOFF/Only-C1/FIRE-HFTN
REM
REM
REM
REM
REM
REM ./C.cell (11c1c37f851c82e70ff6c80c92926a4b)
REM AIRSS Version 0.9.1 bugfix July 2018 build 013d7b7c2542+ Fri, 06 Jul 2018 19:26:36 +0100
REM compiler GCC version 9.2.1 20190827 (Red Hat 9.2.1-1)
REM options -cpp -mtune=generic -march=x86-64 -g -O0 -fpre-include=/usr/include/finclude/math-vector-fortran.h
REM seed 2102511377 2094556303 -88247352 -1188833376 2067565049 -157559918 -1162075659 1633238538 2033020357 -394018736 1182227270 953419053 -1224757319 -877991982 1267993473 -109211442 -299271810 991173132 -1139273862 1208205618 1309551409 1411472674 332691902 -1003706314 1195633977 -1441145935 -406484774 106067640 760714069 1513698985 13116664 182177693 1948991296
REM
CELL 1.54180   50.00000   50.00000   50.00000   90.00000   90.00000   90.00000
LATT -1
SFAC C  
C      1  0.4991930000000  0.5125360000000  0.4822600000000 1.0
C      1  0.5207220000000  0.4785120000000  0.4547870000000 1.0
C      1  0.4858500000000  0.5326710000000  0.4682450000000 1.0
C      1  0.4808350000000  0.4950640000000  0.5304020000000 1.0
C      1  0.4549210000000  0.4690180000000  0.6004250000000 1.0
C      1  0.5227060000000  0.5009210000000  0.4713350000000 1.0
C      1  0.4721500000000  0.4863360000000  0.5538680000000 1.0
C      1  0.4895590000000  0.5037510000000  0.5069510000000 1.0
C      1  0.4736640000000  0.5514360000000  0.4548840000000 1.0
C      1  0.5476700000000  0.5119760000000  0.4772080000000 1.0
C      1  0.5707890000000  0.5225660000000  0.4829090000000 1.0
C      1  0.4634640000000  0.4776050000000  0.5773390000000 1.0
C      1  0.5184780000000  0.4576080000000  0.4393870000000 1.0
END
