TITL C-599896-8500-1115 0.00123046527060331 125000 -957.188268375565 0 0 157 (C1) n - 1
REM
REM in /home/nfs/bkarasulu/CARBON/AIRSS/Generating-Clusters/TERSOFF/Only-C1/FIRE-HFTN
REM
REM
REM
REM
REM
REM ./C.cell (11c1c37f851c82e70ff6c80c92926a4b)
REM AIRSS Version 0.9.1 bugfix July 2018 build 013d7b7c2542+ Fri, 06 Jul 2018 19:26:36 +0100
REM compiler GCC version 9.2.1 20190827 (Red Hat 9.2.1-1)
REM options -cpp -mtune=generic -march=x86-64 -g -O0 -fpre-include=/usr/include/finclude/math-vector-fortran.h
REM seed -2022573437 511306077 2036117435 1245453447 -1505737402 -1525597841 547835735 -1281920722 1466584507 -611321117 -1873505882 184697330 1367238562 1162957352 1674044143 -488744223 1731468813 840179526 -1006885286 -413312011 -1475584811 -148791606 316460891 -304674665 1206862167 -271065686 687620624 1688348821 1687627143 955994727 1970428798 -986563658 -2068023426
REM
CELL 1.54180   50.00000   50.00000   50.00000   90.00000   90.00000   90.00000
LATT -1
SFAC C  
C      1  0.5153880000000  0.4772870000000  0.4488930000000 1.0
C      1  0.4808450000000  0.4347330000000  0.5483930000000 1.0
C      1  0.5009430000000  0.4140860000000  0.4608660000000 1.0
C      1  0.5957550000000  0.6235700000000  0.5024910000000 1.0
C      1  0.5950010000000  0.5688400000000  0.5207870000000 1.0
C      1  0.5836840000000  0.5622230000000  0.4959750000000 1.0
C      1  0.5651530000000  0.5767940000000  0.5553910000000 1.0
C      1  0.4641370000000  0.5105250000000  0.4807780000000 1.0
C      1  0.5090790000000  0.5241160000000  0.4711420000000 1.0
C      1  0.4008810000000  0.5107040000000  0.5620420000000 1.0
C      1  0.5299310000000  0.4496210000000  0.4063820000000 1.0
C      1  0.5760220000000  0.4617180000000  0.5379120000000 1.0
C      1  0.5682670000000  0.4632140000000  0.5082840000000 1.0
C      1  0.4623420000000  0.5776160000000  0.4440760000000 1.0
C      1  0.5244770000000  0.5528270000000  0.5102720000000 1.0
C      1  0.4597720000000  0.5040390000000  0.5987430000000 1.0
C      1  0.5623900000000  0.5831840000000  0.4561620000000 1.0
C      1  0.5364640000000  0.5231910000000  0.5897260000000 1.0
C      1  0.4252780000000  0.4324280000000  0.4618500000000 1.0
C      1  0.4665670000000  0.4257320000000  0.4263870000000 1.0
C      1  0.5329780000000  0.5653250000000  0.4200130000000 1.0
C      1  0.5494360000000  0.5155720000000  0.4217760000000 1.0
C      1  0.5883490000000  0.4874060000000  0.5462140000000 1.0
C      1  0.4922040000000  0.4293680000000  0.5235900000000 1.0
C      1  0.5983250000000  0.4037480000000  0.4798250000000 1.0
C      1  0.4114930000000  0.5564950000000  0.5043300000000 1.0
C      1  0.4444240000000  0.4176300000000  0.4451710000000 1.0
C      1  0.4711680000000  0.4833330000000  0.4333800000000 1.0
C      1  0.5489210000000  0.5076130000000  0.4952530000000 1.0
C      1  0.4842660000000  0.5172040000000  0.3898470000000 1.0
C      1  0.3784190000000  0.4936690000000  0.5645320000000 1.0
C      1  0.5736150000000  0.4490420000000  0.4558360000000 1.0
C      1  0.5616400000000  0.5013100000000  0.4458950000000 1.0
C      1  0.4549270000000  0.4437820000000  0.5471130000000 1.0
C      1  0.5110400000000  0.6298370000000  0.4808800000000 1.0
C      1  0.4238520000000  0.5075370000000  0.4358400000000 1.0
C      1  0.4560720000000  0.5535020000000  0.5046480000000 1.0
C      1  0.3845900000000  0.4829470000000  0.5043450000000 1.0
C      1  0.4681100000000  0.5167700000000  0.5551360000000 1.0
C      1  0.4111460000000  0.5570110000000  0.5682190000000 1.0
C      1  0.5040420000000  0.4048800000000  0.5184240000000 1.0
C      1  0.5355050000000  0.5796220000000  0.4446500000000 1.0
C      1  0.4976340000000  0.4740760000000  0.4283500000000 1.0
C      1  0.5741270000000  0.3917080000000  0.4807150000000 1.0
C      1  0.5104830000000  0.4909150000000  0.5378010000000 1.0
C      1  0.5132750000000  0.4553730000000  0.4919320000000 1.0
C      1  0.5788060000000  0.5129460000000  0.5591650000000 1.0
C      1  0.4428970000000  0.5172970000000  0.6169770000000 1.0
C      1  0.5068460000000  0.4645370000000  0.4029820000000 1.0
C      1  0.5489630000000  0.5531650000000  0.5531430000000 1.0
C      1  0.3888080000000  0.5116510000000  0.5048720000000 1.0
C      1  0.4751200000000  0.3682410000000  0.5180750000000 1.0
C      1  0.4413950000000  0.5607850000000  0.4325410000000 1.0
C      1  0.4108380000000  0.5506750000000  0.5959790000000 1.0
C      1  0.5052400000000  0.5738600000000  0.5534530000000 1.0
C      1  0.4986390000000  0.5097440000000  0.5182190000000 1.0
C      1  0.4143610000000  0.4811890000000  0.4466370000000 1.0
C      1  0.3901140000000  0.4609740000000  0.4852900000000 1.0
C      1  0.5298700000000  0.6330850000000  0.4998330000000 1.0
C      1  0.5535590000000  0.5268640000000  0.5663160000000 1.0
C      1  0.4908500000000  0.4202210000000  0.5705250000000 1.0
C      1  0.5691040000000  0.5073510000000  0.4734210000000 1.0
C      1  0.5345260000000  0.4388440000000  0.4838770000000 1.0
C      1  0.5337430000000  0.5807080000000  0.3970610000000 1.0
C      1  0.5491650000000  0.4563270000000  0.5498170000000 1.0
C      1  0.4480840000000  0.5327640000000  0.4863270000000 1.0
C      1  0.5472560000000  0.4113870000000  0.4270140000000 1.0
C      1  0.4257570000000  0.4967650000000  0.5592260000000 1.0
C      1  0.4321610000000  0.4283580000000  0.5541390000000 1.0
C      1  0.4772560000000  0.4959500000000  0.5023680000000 1.0
C      1  0.4350810000000  0.5736910000000  0.5063750000000 1.0
C      1  0.4096280000000  0.4316740000000  0.5363690000000 1.0
C      1  0.5234000000000  0.5681420000000  0.6014390000000 1.0
C      1  0.4710350000000  0.5256200000000  0.4358190000000 1.0
C      1  0.5251640000000  0.3667440000000  0.5337360000000 1.0
C      1  0.4424300000000  0.5308790000000  0.4321490000000 1.0
C      1  0.6173920000000  0.6370380000000  0.5123500000000 1.0
C      1  0.5273670000000  0.4132260000000  0.4730050000000 1.0
C      1  0.3965740000000  0.5367550000000  0.5218330000000 1.0
C      1  0.4524000000000  0.4684540000000  0.4745740000000 1.0
C      1  0.4652790000000  0.4675620000000  0.5029350000000 1.0
C      1  0.4236150000000  0.5358800000000  0.6143810000000 1.0
C      1  0.3890300000000  0.4733820000000  0.4581780000000 1.0
C      1  0.5300020000000  0.5366430000000  0.4158990000000 1.0
C      1  0.4893880000000  0.5365310000000  0.4551270000000 1.0
C      1  0.5410660000000  0.4312030000000  0.5612140000000 1.0
C      1  0.5473840000000  0.3934500000000  0.4766960000000 1.0
C      1  0.3788140000000  0.4688020000000  0.5535330000000 1.0
C      1  0.4315680000000  0.4603240000000  0.4580800000000 1.0
C      1  0.5524310000000  0.4671300000000  0.4118500000000 1.0
C      1  0.5329100000000  0.5709690000000  0.4903130000000 1.0
C      1  0.5019730000000  0.3771130000000  0.5213210000000 1.0
C      1  0.6027880000000  0.4510980000000  0.4625850000000 1.0
C      1  0.4554240000000  0.5837080000000  0.5564750000000 1.0
C      1  0.5608260000000  0.5698470000000  0.4818750000000 1.0
C      1  0.4715740000000  0.6056450000000  0.4929950000000 1.0
C      1  0.4740880000000  0.5528940000000  0.5254900000000 1.0
C      1  0.4821040000000  0.5279770000000  0.5344830000000 1.0
C      1  0.5378720000000  0.5450480000000  0.6086450000000 1.0
C      1  0.4934320000000  0.4724480000000  0.3797140000000 1.0
C      1  0.5190130000000  0.5251850000000  0.4998710000000 1.0
C      1  0.4501440000000  0.5040110000000  0.5717690000000 1.0
C      1  0.4004310000000  0.5367950000000  0.5505110000000 1.0
C      1  0.5515410000000  0.4944080000000  0.4010580000000 1.0
C      1  0.5523930000000  0.5432480000000  0.6316690000000 1.0
C      1  0.6119380000000  0.4262800000000  0.4730240000000 1.0
C      1  0.5674670000000  0.4238400000000  0.4400320000000 1.0
C      1  0.5803620000000  0.6046540000000  0.4555260000000 1.0
C      1  0.5173860000000  0.4276250000000  0.5769290000000 1.0
C      1  0.4882010000000  0.5015830000000  0.6012390000000 1.0
C      1  0.6100110000000  0.4940730000000  0.5285080000000 1.0
C      1  0.4070670000000  0.4341060000000  0.4862010000000 1.0
C      1  0.5751900000000  0.6135930000000  0.5201030000000 1.0
C      1  0.4486700000000  0.4648860000000  0.5283550000000 1.0
C      1  0.6099530000000  0.4782200000000  0.4658850000000 1.0
C      1  0.5172620000000  0.5841040000000  0.4685750000000 1.0
C      1  0.5925340000000  0.6189900000000  0.4747580000000 1.0
C      1  0.6001410000000  0.5324720000000  0.5562020000000 1.0
C      1  0.4582100000000  0.4764990000000  0.4079740000000 1.0
C      1  0.6093390000000  0.5055990000000  0.5042340000000 1.0
C      1  0.5339150000000  0.4768390000000  0.5353130000000 1.0
C      1  0.5971790000000  0.4999810000000  0.4795640000000 1.0
C      1  0.5065160000000  0.5289840000000  0.4003880000000 1.0
C      1  0.4465080000000  0.5989280000000  0.5011000000000 1.0
C      1  0.6080030000000  0.5505720000000  0.5378170000000 1.0
C      1  0.5191260000000  0.5000860000000  0.4611580000000 1.0
C      1  0.4521990000000  0.3812550000000  0.5296470000000 1.0
C      1  0.5137290000000  0.5064360000000  0.5935880000000 1.0
C      1  0.4298570000000  0.5767190000000  0.5608160000000 1.0
C      1  0.4966010000000  0.4194700000000  0.4322970000000 1.0
C      1  0.5111690000000  0.5793670000000  0.5804220000000 1.0
C      1  0.4758780000000  0.6034550000000  0.4459540000000 1.0
C      1  0.4199560000000  0.5382160000000  0.4813850000000 1.0
C      1  0.4861220000000  0.4458780000000  0.4998250000000 1.0
C      1  0.4014730000000  0.4586760000000  0.5399760000000 1.0
C      1  0.5799440000000  0.5892450000000  0.5345780000000 1.0
C      1  0.4786280000000  0.5737740000000  0.5440440000000 1.0
C      1  0.4576270000000  0.4469700000000  0.4081130000000 1.0
C      1  0.4138810000000  0.4186540000000  0.5108180000000 1.0
C      1  0.5233390000000  0.4240340000000  0.4183200000000 1.0
C      1  0.5250530000000  0.5588470000000  0.5383230000000 1.0
C      1  0.4565200000000  0.3853670000000  0.5579190000000 1.0
C      1  0.5487970000000  0.4849490000000  0.5112980000000 1.0
C      1  0.4794270000000  0.5617300000000  0.4608000000000 1.0
C      1  0.4320560000000  0.3956420000000  0.5140190000000 1.0
C      1  0.4636790000000  0.4904870000000  0.4596450000000 1.0
C      1  0.4942250000000  0.6064420000000  0.4710910000000 1.0
C      1  0.5452380000000  0.3813330000000  0.5448080000000 1.0
C      1  0.4247120000000  0.4768250000000  0.5386590000000 1.0
C      1  0.5496040000000  0.6248370000000  0.5159760000000 1.0
C      1  0.4725610000000  0.4911740000000  0.3861760000000 1.0
C      1  0.4808810000000  0.4249600000000  0.4781940000000 1.0
C      1  0.4749410000000  0.3968710000000  0.5746230000000 1.0
C      1  0.5638190000000  0.4720350000000  0.4386670000000 1.0
C      1  0.5520130000000  0.4063650000000  0.5523710000000 1.0
C      1  0.5611300000000  0.4486030000000  0.4841950000000 1.0
C      1  0.3986250000000  0.5201370000000  0.4787270000000 1.0
END
