TITL C-599893-4344-1298 0.238933048789318 125000 -265.084123742052 0 0 45 (C1) n - 1
REM
REM in /home/nfs/bkarasulu/CARBON/AIRSS/Generating-Clusters/TERSOFF/Only-C1/FIRE-HFTN
REM
REM
REM
REM
REM
REM ./C.cell (11c1c37f851c82e70ff6c80c92926a4b)
REM AIRSS Version 0.9.1 bugfix July 2018 build 013d7b7c2542+ Fri, 06 Jul 2018 19:26:36 +0100
REM compiler GCC version 9.2.1 20190827 (Red Hat 9.2.1-1)
REM options -cpp -mtune=generic -march=x86-64 -g -O0 -fpre-include=/usr/include/finclude/math-vector-fortran.h
REM seed 2036886469 -736758060 1270522901 -200621848 1199187403 2033000193 -1127189738 -212321557 330189333 402163991 1484907897 872320547 -755827405 748144775 -255878631 -1279511670 437220222 -1608672113 1528651626 -1362050665 -1222902031 -409096257 288104234 -1214316448 -1963442402 -26328300 -602829974 20133575 355310934 -9080345 -656542073 1638284331 559926016
REM
CELL 1.54180   50.00000   50.00000   50.00000   90.00000   90.00000   90.00000
LATT -1
SFAC C  
C      1  0.5301820000000  0.5103050000000  0.5319460000000 1.0
C      1  0.4728620000000  0.5304570000000  0.5655910000000 1.0
C      1  0.5259380000000  0.5527900000000  0.5042160000000 1.0
C      1  0.4832750000000  0.5252050000000  0.4961480000000 1.0
C      1  0.4737620000000  0.4527800000000  0.4951470000000 1.0
C      1  0.5222300000000  0.4480970000000  0.5445140000000 1.0
C      1  0.4505710000000  0.5144610000000  0.4612300000000 1.0
C      1  0.5001650000000  0.4959050000000  0.5844100000000 1.0
C      1  0.4314780000000  0.4826710000000  0.4299680000000 1.0
C      1  0.5052370000000  0.5421430000000  0.4867390000000 1.0
C      1  0.5774050000000  0.5373830000000  0.4741470000000 1.0
C      1  0.5116250000000  0.5405270000000  0.4586170000000 1.0
C      1  0.4491800000000  0.4640050000000  0.5523770000000 1.0
C      1  0.5727040000000  0.5121190000000  0.4859020000000 1.0
C      1  0.5250470000000  0.4734450000000  0.4603880000000 1.0
C      1  0.4915710000000  0.5098820000000  0.5625160000000 1.0
C      1  0.4811850000000  0.4767200000000  0.5037650000000 1.0
C      1  0.5535280000000  0.5541270000000  0.4348050000000 1.0
C      1  0.4780790000000  0.4794640000000  0.4430720000000 1.0
C      1  0.5042590000000  0.4879630000000  0.4485540000000 1.0
C      1  0.4587000000000  0.4048750000000  0.4782180000000 1.0
C      1  0.5342500000000  0.5372060000000  0.5262620000000 1.0
C      1  0.4341800000000  0.4836310000000  0.5422170000000 1.0
C      1  0.5408020000000  0.4636190000000  0.5330850000000 1.0
C      1  0.4397580000000  0.5712390000000  0.5667630000000 1.0
C      1  0.4291850000000  0.5046020000000  0.5264220000000 1.0
C      1  0.5487980000000  0.4706230000000  0.4752470000000 1.0
C      1  0.5453150000000  0.4887150000000  0.5208990000000 1.0
C      1  0.5078000000000  0.5155750000000  0.4466040000000 1.0
C      1  0.4972310000000  0.4435580000000  0.5528020000000 1.0
C      1  0.4512180000000  0.3814170000000  0.4696530000000 1.0
C      1  0.4713790000000  0.4495640000000  0.5558840000000 1.0
C      1  0.5467130000000  0.5698590000000  0.4955050000000 1.0
C      1  0.5745260000000  0.5414770000000  0.4462630000000 1.0
C      1  0.5026900000000  0.5051580000000  0.5369510000000 1.0
C      1  0.5283020000000  0.5577260000000  0.4437650000000 1.0
C      1  0.5564360000000  0.4905980000000  0.4944460000000 1.0
C      1  0.4560110000000  0.5250100000000  0.4867680000000 1.0
C      1  0.4527470000000  0.4919650000000  0.4442970000000 1.0
C      1  0.4363360000000  0.5214020000000  0.5068140000000 1.0
C      1  0.4662680000000  0.4287500000000  0.4868830000000 1.0
C      1  0.4564500000000  0.5512160000000  0.5668430000000 1.0
C      1  0.5648710000000  0.4487760000000  0.4713830000000 1.0
C      1  0.4882960000000  0.5021870000000  0.5128650000000 1.0
C      1  0.5714500000000  0.5608040000000  0.4891060000000 1.0
END
