TITL C-599892-9790-1349 28199.3868819559 125000 -1108.61397611979 0 0 181 (C1) n - 1
REM
REM in /home/nfs/bkarasulu/CARBON/AIRSS/Generating-Clusters/TERSOFF/Only-C1/FIRE-HFTN
REM
REM
REM
REM
REM
REM ./C.cell (11c1c37f851c82e70ff6c80c92926a4b)
REM AIRSS Version 0.9.1 bugfix July 2018 build 013d7b7c2542+ Fri, 06 Jul 2018 19:26:36 +0100
REM compiler GCC version 9.2.1 20190827 (Red Hat 9.2.1-1)
REM options -cpp -mtune=generic -march=x86-64 -g -O0 -fpre-include=/usr/include/finclude/math-vector-fortran.h
REM seed 1503861407 -234803405 -280821813 1442759699 -782418700 710562403 -1711734201 -555724907 -133978033 -1638663620 -1712864369 -1598847669 996887326 -1775003328 -288880402 1938588244 619761333 1904482179 897542630 -32495217 -291064436 140926219 1316515737 -156923082 -2096457597 -608947947 729873543 879311484 270987812 96235177 125211008 -1333806889 -924173775
REM
CELL 1.54180   50.00000   50.00000   50.00000   90.00000   90.00000   90.00000
LATT -1
SFAC C  
C      1  0.5021240000000  0.5605450000000  0.4169640000000 1.0
C      1  0.4228040000000  0.5523920000000  0.5095290000000 1.0
C      1  0.4528660000000  0.3872750000000  0.5291510000000 1.0
C      1  0.4213190000000  0.4757480000000  0.4141500000000 1.0
C      1  0.5607700000000  0.5694030000000  0.5797760000000 1.0
C      1  0.5895090000000  0.4517290000000  0.5710430000000 1.0
C      1  0.3844030000000  0.5196660000000  0.5166330000000 1.0
C      1  0.4472310000000  0.4722670000000  0.6039340000000 1.0
C      1  0.4764050000000  0.5083180000000  0.5559950000000 1.0
C      1  0.4756320000000  0.5393130000000  0.5976140000000 1.0
C      1  0.5629740000000  0.5384950000000  0.4463700000000 1.0
C      1  0.4667870000000  0.4333860000000  0.3868480000000 1.0
C      1  0.4998320000000  0.5441800000000  0.5308610000000 1.0
C      1  0.4802110000000  0.4130420000000  0.4998380000000 1.0
C      1  0.5290290000000  0.5203520000000  0.5738550000000 1.0
C      1  0.4571530000000  0.5851390000000  0.4156640000000 1.0
C      1  0.4897640000000  0.4189840000000  0.3922760000000 1.0
C      1  0.4909510000000  0.5886820000000  0.5472490000000 1.0
C      1  0.5133250000000  0.4706510000000  0.4960030000000 1.0
C      1  0.4910290000000  0.5577010000000  0.5823340000000 1.0
C      1  0.5982890000000  0.4819970000000  0.4348240000000 1.0
C      1  0.4452650000000  0.6144250000000  0.4791410000000 1.0
C      1  0.5626060000000  0.4216780000000  0.4966120000000 1.0
C      1  0.5026410000000  0.4441810000000  0.5315360000000 1.0
C      1  0.4649060000000  0.4394570000000  0.4532550000000 1.0
C      1  0.4078690000000  0.5579630000000  0.4412050000000 1.0
C      1  0.4384630000000  0.4008840000000  0.5064180000000 1.0
C      1  0.4050200000000  0.4569550000000  0.5375890000000 1.0
C      1  0.5809370000000  0.5526540000000  0.4628300000000 1.0
C      1  0.4264230000000  0.4270250000000  0.5108410000000 1.0
C      1  0.4941990000000  0.3880580000000  0.5010660000000 1.0
C      1  0.5362020000000  0.5102600000000  0.4750690000000 1.0
C      1  0.4587420000000  0.4514960000000  0.5878020000000 1.0
C      1  0.5060320000000  0.5546770000000  0.6321030000000 1.0
C      1  0.5356620000000  0.4681440000000  0.5541300000000 1.0
C      1  0.6262270000000  0.4299860000000  0.5147010000000 1.0
C      1  0.4492310000000  0.5847320000000  0.5606360000000 1.0
C      1  0.4727490000000  0.5070680000000  0.5059290000000 1.0
C      1  0.5540960000000  0.4855230000000  0.5418210000000 1.0
C      1  0.5259770000000  0.4195240000000  0.4271700000000 1.0
C      1  0.3974880000000  0.5463650000000  0.4170500000000 1.0
C      1  0.4005940000000  0.4947390000000  0.4115500000000 1.0
C      1  0.5925140000000  0.5069860000000  0.6080700000000 1.0
C      1  0.4025560000000  0.4545870000000  0.4613400000000 1.0
C      1  0.4927660000000  0.6173560000000  0.4922600000000 1.0
C      1  0.4706620000000  0.5693190000000  0.5032610000000 1.0
C      1  0.6012460000000  0.6149930000000  0.5419000000000 1.0
C      1  0.4489860000000  0.6207220000000  0.4510290000000 1.0
C      1  0.4499780000000  0.4539680000000  0.5602970000000 1.0
C      1  0.4191010000000  0.5843900000000  0.4488590000000 1.0
C      1  0.5370240000000  0.5637050000000  0.5941850000000 1.0
C      1  0.4613580000000  0.5068000000000  0.4009940000000 1.0
C      1  0.4903710000000  0.5429340000000  0.4674060000000 1.0
C      1  0.5285910000000  0.5258450000000  0.3899980000000 1.0
C      1  0.4892680000000  0.4438120000000  0.4676800000000 1.0
C      1  0.4680670000000  0.5525060000000  0.4500780000000 1.0
C      1  0.5515860000000  0.5115170000000  0.5562720000000 1.0
C      1  0.5706790000000  0.4453250000000  0.4323250000000 1.0
C      1  0.4487360000000  0.5284410000000  0.3877080000000 1.0
C      1  0.4637100000000  0.6158060000000  0.5009720000000 1.0
C      1  0.5466920000000  0.4545200000000  0.5983230000000 1.0
C      1  0.5338260000000  0.4262860000000  0.4951340000000 1.0
C      1  0.5387390000000  0.4848340000000  0.4627010000000 1.0
C      1  0.5052930000000  0.6107540000000  0.4648540000000 1.0
C      1  0.5018430000000  0.6132720000000  0.5404990000000 1.0
C      1  0.5543380000000  0.5971340000000  0.4633410000000 1.0
C      1  0.6027010000000  0.4691400000000  0.4608570000000 1.0
C      1  0.5771400000000  0.5804630000000  0.4596370000000 1.0
C      1  0.4500890000000  0.4053920000000  0.5545070000000 1.0
C      1  0.5927070000000  0.5322010000000  0.5992790000000 1.0
C      1  0.4320550000000  0.4950020000000  0.6031900000000 1.0
C      1  0.5409960000000  0.5770740000000  0.5331480000000 1.0
C      1  0.6464480000000  0.4916550000000  0.5161030000000 1.0
C      1  0.4948230000000  0.4881800000000  0.5624770000000 1.0
C      1  0.5076270000000  0.4332350000000  0.4104200000000 1.0
C      1  0.5141860000000  0.5411140000000  0.4517860000000 1.0
C      1  0.5083060000000  0.4721300000000  0.5410660000000 1.0
C      1  0.4789320000000  0.4313770000000  0.5235670000000 1.0
C      1  0.5293210000000  0.5123630000000  0.5029930000000 1.0
C      1  0.5833350000000  0.5546040000000  0.5880800000000 1.0
C      1  0.6248890000000  0.4771630000000  0.5066850000000 1.0
C      1  0.5265050000000  0.3705330000000  0.5262680000000 1.0
C      1  0.5125520000000  0.4268340000000  0.4717000000000 1.0
C      1  0.5611400000000  0.4800700000000  0.5139270000000 1.0
C      1  0.6167620000000  0.4545860000000  0.5227820000000 1.0
C      1  0.4452600000000  0.5494050000000  0.4659630000000 1.0
C      1  0.5151800000000  0.4039680000000  0.4517560000000 1.0
C      1  0.5617290000000  0.4026070000000  0.4550150000000 1.0
C      1  0.4424210000000  0.5660030000000  0.4913490000000 1.0
C      1  0.4842240000000  0.5682470000000  0.5282270000000 1.0
C      1  0.5118290000000  0.6154310000000  0.5143440000000 1.0
C      1  0.5597350000000  0.5830410000000  0.5542500000000 1.0
C      1  0.5152440000000  0.4959510000000  0.5822500000000 1.0
C      1  0.5221190000000  0.3797460000000  0.4978930000000 1.0
C      1  0.4205050000000  0.5384950000000  0.4580870000000 1.0
C      1  0.5809360000000  0.3971250000000  0.5406390000000 1.0
C      1  0.4221620000000  0.5189320000000  0.5945180000000 1.0
C      1  0.4796530000000  0.3753960000000  0.5240850000000 1.0
C      1  0.4590370000000  0.4327690000000  0.5434320000000 1.0
C      1  0.4494490000000  0.5774210000000  0.3896770000000 1.0
C      1  0.3946940000000  0.4710990000000  0.5142280000000 1.0
C      1  0.5019640000000  0.4298720000000  0.6056190000000 1.0
C      1  0.5533420000000  0.4915430000000  0.4166260000000 1.0
C      1  0.5407010000000  0.4687020000000  0.4867660000000 1.0
C      1  0.5181680000000  0.5749510000000  0.4917230000000 1.0
C      1  0.5868050000000  0.4443450000000  0.4584390000000 1.0
C      1  0.6133650000000  0.4859910000000  0.4815220000000 1.0
C      1  0.4485590000000  0.4805890000000  0.4029680000000 1.0
C      1  0.5522360000000  0.5184460000000  0.4043080000000 1.0
C      1  0.4375030000000  0.4544410000000  0.5005210000000 1.0
C      1  0.5045030000000  0.4856670000000  0.4209810000000 1.0
C      1  0.5283500000000  0.5658810000000  0.6211520000000 1.0
C      1  0.4935410000000  0.3844750000000  0.5688570000000 1.0
C      1  0.5246670000000  0.4305350000000  0.5214610000000 1.0
C      1  0.4113340000000  0.4685590000000  0.4881920000000 1.0
C      1  0.5327310000000  0.4728100000000  0.5824210000000 1.0
C      1  0.5733420000000  0.5288550000000  0.5059380000000 1.0
C      1  0.4561850000000  0.4055860000000  0.4849180000000 1.0
C      1  0.5745640000000  0.4726690000000  0.4209210000000 1.0
C      1  0.5252530000000  0.5782810000000  0.4239900000000 1.0
C      1  0.4798730000000  0.5176670000000  0.4799470000000 1.0
C      1  0.4296230000000  0.5663620000000  0.5702010000000 1.0
C      1  0.4215200000000  0.5434430000000  0.5825260000000 1.0
C      1  0.4890960000000  0.5095120000000  0.4105670000000 1.0
C      1  0.4081630000000  0.5548520000000  0.3923640000000 1.0
C      1  0.4667400000000  0.5284570000000  0.6446480000000 1.0
C      1  0.5738120000000  0.4116000000000  0.5201450000000 1.0
C      1  0.4287240000000  0.5902450000000  0.4779570000000 1.0
C      1  0.4506480000000  0.6047620000000  0.5317480000000 1.0
C      1  0.5798780000000  0.6018100000000  0.5489000000000 1.0
C      1  0.5532140000000  0.6064560000000  0.4903680000000 1.0
C      1  0.6100270000000  0.5150340000000  0.4781920000000 1.0
C      1  0.4672340000000  0.4591690000000  0.3996480000000 1.0
C      1  0.4929040000000  0.5651490000000  0.4856870000000 1.0
C      1  0.4196280000000  0.4108630000000  0.5556070000000 1.0
C      1  0.5386010000000  0.5314850000000  0.4581540000000 1.0
C      1  0.5307270000000  0.4856890000000  0.4343120000000 1.0
C      1  0.4769780000000  0.5798410000000  0.5700980000000 1.0
C      1  0.4636130000000  0.4730760000000  0.5013130000000 1.0
C      1  0.4945650000000  0.4602100000000  0.4122480000000 1.0
C      1  0.4719200000000  0.4026950000000  0.5762390000000 1.0
C      1  0.4396850000000  0.5996750000000  0.4331300000000 1.0
C      1  0.5615350000000  0.5420210000000  0.4184910000000 1.0
C      1  0.5015420000000  0.3727740000000  0.5439090000000 1.0
C      1  0.4233890000000  0.4937130000000  0.4758540000000 1.0
C      1  0.5792600000000  0.5006620000000  0.5085810000000 1.0
C      1  0.4534410000000  0.4143290000000  0.4588160000000 1.0
C      1  0.5499540000000  0.5678820000000  0.4123280000000 1.0
C      1  0.3902220000000  0.5189080000000  0.4169260000000 1.0
C      1  0.4694330000000  0.5016370000000  0.4593490000000 1.0
C      1  0.5753580000000  0.4586540000000  0.5951500000000 1.0
C      1  0.4655850000000  0.5205420000000  0.5789610000000 1.0
C      1  0.4817550000000  0.5203180000000  0.5304070000000 1.0
C      1  0.4931700000000  0.3853730000000  0.4442160000000 1.0
C      1  0.4353960000000  0.5533460000000  0.3850630000000 1.0
C      1  0.5277870000000  0.5967830000000  0.4487270000000 1.0
C      1  0.4199870000000  0.4578370000000  0.4374820000000 1.0
C      1  0.4468680000000  0.4604130000000  0.4485970000000 1.0
C      1  0.3783660000000  0.4935680000000  0.5184130000000 1.0
C      1  0.5767260000000  0.4209730000000  0.4723710000000 1.0
C      1  0.5377900000000  0.3883540000000  0.4673430000000 1.0
C      1  0.6029020000000  0.4558250000000  0.5478300000000 1.0
C      1  0.4465450000000  0.4866420000000  0.4598850000000 1.0
C      1  0.4760660000000  0.5673380000000  0.4274270000000 1.0
C      1  0.5147640000000  0.4903590000000  0.5167230000000 1.0
C      1  0.5186540000000  0.5473670000000  0.5795990000000 1.0
C      1  0.5294470000000  0.5504160000000  0.5297670000000 1.0
C      1  0.5045470000000  0.5335330000000  0.4036010000000 1.0
C      1  0.4052010000000  0.5313950000000  0.5022440000000 1.0
C      1  0.4260930000000  0.4680550000000  0.5533580000000 1.0
C      1  0.5912460000000  0.5366180000000  0.4840320000000 1.0
C      1  0.5335910000000  0.5952010000000  0.5093000000000 1.0
C      1  0.5284910000000  0.4352660000000  0.6087630000000 1.0
C      1  0.4096970000000  0.4286520000000  0.5346610000000 1.0
C      1  0.5862660000000  0.4809970000000  0.6088330000000 1.0
C      1  0.4118570000000  0.5194290000000  0.4768920000000 1.0
C      1  0.4765230000000  0.4277020000000  0.5923930000000 1.0
C      1  0.5545030000000  0.4210140000000  0.4316420000000 1.0
C      1  0.5455140000000  0.5327480000000  0.5145140000000 1.0
C      1  0.4821010000000  0.5402800000000  0.6254580000000 1.0
C      1  0.4877840000000  0.4632060000000  0.4877420000000 1.0
END
