TITL C-599890-3321-457 22.724763718298 125000 -609.092664741702 0 0 100 (C1) n - 1
REM
REM in /home/nfs/bkarasulu/CARBON/AIRSS/Generating-Clusters/TERSOFF/Only-C1/FIRE-HFTN
REM
REM
REM
REM
REM
REM ./C.cell (11c1c37f851c82e70ff6c80c92926a4b)
REM AIRSS Version 0.9.1 bugfix July 2018 build 013d7b7c2542+ Fri, 06 Jul 2018 19:26:36 +0100
REM compiler GCC version 9.2.1 20190827 (Red Hat 9.2.1-1)
REM options -cpp -mtune=generic -march=x86-64 -g -O0 -fpre-include=/usr/include/finclude/math-vector-fortran.h
REM seed 1404944712 -1503137782 -605387152 915522661 -1238859306 1124278276 990278421 -907157546 1832738505 -1263939387 676076245 1650863539 22634365 -1882533776 448085656 1104035989 1772611419 1206675554 -1597462296 -502907012 -1971418377 -195483233 720022439 -1515703162 -550478416 190625014 1587941756 -1117518022 483977251 1343852923 -657031915 -1923854350 -2007660615
REM
CELL 1.54180   50.00000   50.00000   50.00000   90.00000   90.00000   90.00000
LATT -1
SFAC C  
C      1  0.4631750000000  0.5833280000000  0.4660740000000 1.0
C      1  0.4557910000000  0.5022580000000  0.4896750000000 1.0
C      1  0.4752780000000  0.5425190000000  0.4323240000000 1.0
C      1  0.4462760000000  0.5605330000000  0.4676830000000 1.0
C      1  0.5437220000000  0.5937050000000  0.4761370000000 1.0
C      1  0.4764210000000  0.5402840000000  0.5937120000000 1.0
C      1  0.4285260000000  0.4769060000000  0.5175900000000 1.0
C      1  0.5693700000000  0.5304350000000  0.4920550000000 1.0
C      1  0.4808510000000  0.5701530000000  0.5553540000000 1.0
C      1  0.5067660000000  0.5175860000000  0.5480100000000 1.0
C      1  0.4644750000000  0.4258830000000  0.4928160000000 1.0
C      1  0.4753770000000  0.4693110000000  0.4092220000000 1.0
C      1  0.4046430000000  0.5126360000000  0.4603310000000 1.0
C      1  0.5386470000000  0.4401290000000  0.5639880000000 1.0
C      1  0.5693730000000  0.5552690000000  0.4790610000000 1.0
C      1  0.5071880000000  0.4595910000000  0.4992520000000 1.0
C      1  0.4999130000000  0.5135500000000  0.3943950000000 1.0
C      1  0.4430560000000  0.5370870000000  0.5584940000000 1.0
C      1  0.5799520000000  0.4613190000000  0.5061840000000 1.0
C      1  0.4580210000000  0.5383250000000  0.4538010000000 1.0
C      1  0.5639090000000  0.5806570000000  0.4929290000000 1.0
C      1  0.4908870000000  0.4580380000000  0.4303610000000 1.0
C      1  0.4169680000000  0.5026880000000  0.5251210000000 1.0
C      1  0.5534880000000  0.4676760000000  0.4373850000000 1.0
C      1  0.4468380000000  0.4671530000000  0.4106180000000 1.0
C      1  0.4923980000000  0.5222640000000  0.6052460000000 1.0
C      1  0.5592250000000  0.5080310000000  0.4787670000000 1.0
C      1  0.4218950000000  0.5533980000000  0.4810450000000 1.0
C      1  0.5341480000000  0.4841360000000  0.5310590000000 1.0
C      1  0.5034140000000  0.5374410000000  0.4858610000000 1.0
C      1  0.5043580000000  0.4334130000000  0.4345420000000 1.0
C      1  0.5246820000000  0.4960560000000  0.5543870000000 1.0
C      1  0.5788340000000  0.4601540000000  0.4778920000000 1.0
C      1  0.4324920000000  0.4835750000000  0.4285330000000 1.0
C      1  0.5509780000000  0.5948440000000  0.5370380000000 1.0
C      1  0.4283730000000  0.5016510000000  0.4493850000000 1.0
C      1  0.5078860000000  0.4396520000000  0.5994660000000 1.0
C      1  0.4281240000000  0.5183320000000  0.5462710000000 1.0
C      1  0.4471320000000  0.4618980000000  0.5327280000000 1.0
C      1  0.5254540000000  0.4811530000000  0.5045000000000 1.0
C      1  0.5332740000000  0.4994880000000  0.4844910000000 1.0
C      1  0.5630210000000  0.4398640000000  0.5179260000000 1.0
C      1  0.5273780000000  0.4570440000000  0.5859830000000 1.0
C      1  0.5471680000000  0.5384050000000  0.5347920000000 1.0
C      1  0.5396270000000  0.4311370000000  0.4710890000000 1.0
C      1  0.5138500000000  0.4823800000000  0.5781480000000 1.0
C      1  0.4704350000000  0.5142210000000  0.5139260000000 1.0
C      1  0.4678460000000  0.5928210000000  0.5468930000000 1.0
C      1  0.5360500000000  0.5776230000000  0.4527040000000 1.0
C      1  0.5610760000000  0.4442800000000  0.5472780000000 1.0
C      1  0.3714130000000  0.5183550000000  0.5165350000000 1.0
C      1  0.4597670000000  0.4537260000000  0.4844430000000 1.0
C      1  0.5893500000000  0.5096270000000  0.5300910000000 1.0
C      1  0.4840940000000  0.5378870000000  0.5045670000000 1.0
C      1  0.4617790000000  0.4179770000000  0.5218000000000 1.0
C      1  0.4872180000000  0.4628900000000  0.4787740000000 1.0
C      1  0.4510360000000  0.5129530000000  0.4633000000000 1.0
C      1  0.4934410000000  0.4288310000000  0.5765460000000 1.0
C      1  0.3465520000000  0.5196430000000  0.5242400000000 1.0
C      1  0.6103110000000  0.5536390000000  0.5379020000000 1.0
C      1  0.4658060000000  0.5501050000000  0.5695340000000 1.0
C      1  0.5162680000000  0.5292020000000  0.4118370000000 1.0
C      1  0.5131660000000  0.5150140000000  0.4723110000000 1.0
C      1  0.5714560000000  0.5857720000000  0.5197780000000 1.0
C      1  0.4732440000000  0.4688130000000  0.5226340000000 1.0
C      1  0.5569640000000  0.5575220000000  0.4529340000000 1.0
C      1  0.5163450000000  0.4342800000000  0.5109240000000 1.0
C      1  0.5425320000000  0.4293560000000  0.5004870000000 1.0
C      1  0.4843420000000  0.4019800000000  0.5287200000000 1.0
C      1  0.5873770000000  0.4809180000000  0.5279510000000 1.0
C      1  0.4212670000000  0.4314640000000  0.3792560000000 1.0
C      1  0.5955180000000  0.5748860000000  0.5302770000000 1.0
C      1  0.4057660000000  0.5295080000000  0.4836780000000 1.0
C      1  0.6104260000000  0.5264510000000  0.5391710000000 1.0
C      1  0.5088710000000  0.5671130000000  0.5495520000000 1.0
C      1  0.5121530000000  0.4227960000000  0.4603890000000 1.0
C      1  0.4334610000000  0.4487970000000  0.3944230000000 1.0
C      1  0.5100690000000  0.5730730000000  0.4426280000000 1.0
C      1  0.4817700000000  0.4769910000000  0.5643150000000 1.0
C      1  0.5157210000000  0.4230130000000  0.5576870000000 1.0
C      1  0.4918110000000  0.4743740000000  0.4534710000000 1.0
C      1  0.4537980000000  0.4365520000000  0.5442040000000 1.0
C      1  0.5681980000000  0.5265880000000  0.5201350000000 1.0
C      1  0.5268420000000  0.5887870000000  0.5471090000000 1.0
C      1  0.5800550000000  0.4658440000000  0.5520730000000 1.0
C      1  0.4878610000000  0.5867960000000  0.4550320000000 1.0
C      1  0.5203280000000  0.5417370000000  0.5438350000000 1.0
C      1  0.4867730000000  0.4901370000000  0.3939050000000 1.0
C      1  0.4808150000000  0.5061950000000  0.5420440000000 1.0
C      1  0.5075130000000  0.5006860000000  0.6004830000000 1.0
C      1  0.3981320000000  0.5169140000000  0.5083630000000 1.0
C      1  0.5504350000000  0.4915380000000  0.4254510000000 1.0
C      1  0.5399360000000  0.5155600000000  0.4193710000000 1.0
C      1  0.4732690000000  0.4461360000000  0.5652450000000 1.0
C      1  0.5023910000000  0.5495700000000  0.4271280000000 1.0
C      1  0.5580980000000  0.4510940000000  0.4597820000000 1.0
C      1  0.5082610000000  0.4165800000000  0.5315190000000 1.0
C      1  0.4991680000000  0.5010730000000  0.4528090000000 1.0
C      1  0.4881740000000  0.4147160000000  0.4769030000000 1.0
C      1  0.4426270000000  0.4762680000000  0.4919360000000 1.0
END
