TITL C-599890-3321-666 -0.040601044926783 125000 -472.594058080559 0 0 78 (C1) n - 1
REM
REM in /home/nfs/bkarasulu/CARBON/AIRSS/Generating-Clusters/TERSOFF/Only-C1/FIRE-HFTN
REM
REM
REM
REM
REM
REM ./C.cell (11c1c37f851c82e70ff6c80c92926a4b)
REM AIRSS Version 0.9.1 bugfix July 2018 build 013d7b7c2542+ Fri, 06 Jul 2018 19:26:36 +0100
REM compiler GCC version 9.2.1 20190827 (Red Hat 9.2.1-1)
REM options -cpp -mtune=generic -march=x86-64 -g -O0 -fpre-include=/usr/include/finclude/math-vector-fortran.h
REM seed -1371914493 -322424142 -939081927 48953825 -1128869145 -1512157501 -607311364 2098452288 1035526184 -22309703 -1585102700 -1097022604 -1845417932 -1092912998 410148172 -398332045 -717630815 -2052853500 973068944 -344859706 -661384794 671754278 -300368432 993487080 699005667 -197376918 -59235769 -1448865300 477640474 -1451552469 842642095 -1444693898 -1659729063
REM
CELL 1.54180   50.00000   50.00000   50.00000   90.00000   90.00000   90.00000
LATT -1
SFAC C  
C      1  0.4112950000000  0.4963380000000  0.4871770000000 1.0
C      1  0.4639920000000  0.5508600000000  0.4323760000000 1.0
C      1  0.4579420000000  0.5657210000000  0.4969950000000 1.0
C      1  0.5209180000000  0.4407740000000  0.5408780000000 1.0
C      1  0.5779310000000  0.5031020000000  0.4658830000000 1.0
C      1  0.4973080000000  0.4407680000000  0.4404740000000 1.0
C      1  0.5155930000000  0.5275640000000  0.4942370000000 1.0
C      1  0.5152660000000  0.3984250000000  0.4854240000000 1.0
C      1  0.5052970000000  0.5548800000000  0.5309230000000 1.0
C      1  0.5244410000000  0.4487220000000  0.4358460000000 1.0
C      1  0.5717890000000  0.4598550000000  0.4949810000000 1.0
C      1  0.5430540000000  0.4432280000000  0.4564790000000 1.0
C      1  0.5534690000000  0.4628690000000  0.5690160000000 1.0
C      1  0.5329000000000  0.4929000000000  0.4057400000000 1.0
C      1  0.5314090000000  0.4804760000000  0.4867980000000 1.0
C      1  0.4619810000000  0.4392520000000  0.5190820000000 1.0
C      1  0.4126860000000  0.5202880000000  0.5035250000000 1.0
C      1  0.4819850000000  0.4854610000000  0.4564670000000 1.0
C      1  0.4757940000000  0.4560890000000  0.4516770000000 1.0
C      1  0.4206610000000  0.4985190000000  0.4607890000000 1.0
C      1  0.5484110000000  0.4474850000000  0.5444730000000 1.0
C      1  0.5563580000000  0.5639440000000  0.4753560000000 1.0
C      1  0.4402850000000  0.4757700000000  0.5541430000000 1.0
C      1  0.4303220000000  0.5153800000000  0.5257630000000 1.0
C      1  0.4513330000000  0.4452240000000  0.4569510000000 1.0
C      1  0.5643110000000  0.4875940000000  0.5594190000000 1.0
C      1  0.5255680000000  0.4759260000000  0.4267330000000 1.0
C      1  0.4630160000000  0.4177340000000  0.5358360000000 1.0
C      1  0.4619300000000  0.4693970000000  0.5688560000000 1.0
C      1  0.5466240000000  0.5077350000000  0.5482370000000 1.0
C      1  0.5482560000000  0.5467370000000  0.4541420000000 1.0
C      1  0.5697620000000  0.4548900000000  0.5243380000000 1.0
C      1  0.5798930000000  0.4999410000000  0.5148190000000 1.0
C      1  0.4927650000000  0.5805300000000  0.5240080000000 1.0
C      1  0.5217180000000  0.5523600000000  0.4427590000000 1.0
C      1  0.5135150000000  0.4218260000000  0.4968120000000 1.0
C      1  0.4655150000000  0.5385340000000  0.4991490000000 1.0
C      1  0.4384970000000  0.5115570000000  0.4435060000000 1.0
C      1  0.4825910000000  0.4141720000000  0.5545880000000 1.0
C      1  0.5822750000000  0.4803580000000  0.5367900000000 1.0
C      1  0.5003620000000  0.4358770000000  0.5610680000000 1.0
C      1  0.4581860000000  0.5775270000000  0.4715130000000 1.0
C      1  0.4878010000000  0.5240830000000  0.4870850000000 1.0
C      1  0.4147940000000  0.4751620000000  0.5075480000000 1.0
C      1  0.5099810000000  0.4897030000000  0.4462650000000 1.0
C      1  0.5237090000000  0.5502850000000  0.5091600000000 1.0
C      1  0.4058420000000  0.4495770000000  0.5048860000000 1.0
C      1  0.5635680000000  0.5224360000000  0.4532120000000 1.0
C      1  0.4747550000000  0.5706400000000  0.4495070000000 1.0
C      1  0.5249900000000  0.5189010000000  0.4053910000000 1.0
C      1  0.5219800000000  0.5171520000000  0.5574410000000 1.0
C      1  0.5329630000000  0.5056460000000  0.4993520000000 1.0
C      1  0.5466600000000  0.5639440000000  0.5005630000000 1.0
C      1  0.4375530000000  0.5396210000000  0.4360250000000 1.0
C      1  0.4270250000000  0.4867030000000  0.5318590000000 1.0
C      1  0.4838500000000  0.4570200000000  0.5143980000000 1.0
C      1  0.5095580000000  0.5340470000000  0.4237300000000 1.0
C      1  0.5439510000000  0.4468340000000  0.6197220000000 1.0
C      1  0.5035360000000  0.5728810000000  0.4541460000000 1.0
C      1  0.5497290000000  0.4548690000000  0.5951480000000 1.0
C      1  0.5376170000000  0.4388060000000  0.6437020000000 1.0
C      1  0.4823330000000  0.4854480000000  0.5123300000000 1.0
C      1  0.4817520000000  0.5280490000000  0.4276570000000 1.0
C      1  0.5100970000000  0.5903580000000  0.4759190000000 1.0
C      1  0.4287190000000  0.6043070000000  0.5528040000000 1.0
C      1  0.5830870000000  0.4872390000000  0.4891200000000 1.0
C      1  0.4799730000000  0.5092870000000  0.5318790000000 1.0
C      1  0.4462490000000  0.5931900000000  0.5370490000000 1.0
C      1  0.5529530000000  0.5102930000000  0.5197840000000 1.0
C      1  0.4665960000000  0.5046380000000  0.4386730000000 1.0
C      1  0.4565920000000  0.5244010000000  0.5227860000000 1.0
C      1  0.4997440000000  0.5282160000000  0.5437030000000 1.0
C      1  0.5088750000000  0.4425710000000  0.5150040000000 1.0
C      1  0.5477150000000  0.4581320000000  0.4798360000000 1.0
C      1  0.4815990000000  0.4956850000000  0.4847400000000 1.0
C      1  0.5061050000000  0.5948290000000  0.5025330000000 1.0
C      1  0.4860580000000  0.4577410000000  0.5726070000000 1.0
C      1  0.4644880000000  0.5807190000000  0.5204080000000 1.0
END
