TITL C-599890-3321-698 -0.054598616411612 125000 -169.718312836132 0 0 30 (C1) n - 1
REM
REM in /home/nfs/bkarasulu/CARBON/AIRSS/Generating-Clusters/TERSOFF/Only-C1/FIRE-HFTN
REM
REM
REM
REM
REM
REM ./C.cell (11c1c37f851c82e70ff6c80c92926a4b)
REM AIRSS Version 0.9.1 bugfix July 2018 build 013d7b7c2542+ Fri, 06 Jul 2018 19:26:36 +0100
REM compiler GCC version 9.2.1 20190827 (Red Hat 9.2.1-1)
REM options -cpp -mtune=generic -march=x86-64 -g -O0 -fpre-include=/usr/include/finclude/math-vector-fortran.h
REM seed -865887631 -1462894984 28585641 -68439622 -1957142454 173444061 -159908258 -1722214439 -547048950 -219779727 892075048 1759567318 -1670330243 1009378017 248531953 -59757430 -1419504596 562851375 1889005675 2074132996 -2103440665 -2099418352 -139031296 -1657672769 -335606270 -870682422 697244169 644128466 714319943 -522195105 278174903 -1742672693 -1550301930
REM
CELL 1.54180   50.00000   50.00000   50.00000   90.00000   90.00000   90.00000
LATT -1
SFAC C  
C      1  0.5050040000000  0.5072500000000  0.5298350000000 1.0
C      1  0.5187150000000  0.5012660000000  0.4568470000000 1.0
C      1  0.4983870000000  0.5501290000000  0.4946590000000 1.0
C      1  0.4786880000000  0.5296910000000  0.4904020000000 1.0
C      1  0.5568690000000  0.4937970000000  0.5291770000000 1.0
C      1  0.4746760000000  0.4607690000000  0.5033620000000 1.0
C      1  0.5237340000000  0.5417220000000  0.4834100000000 1.0
C      1  0.4948930000000  0.4830510000000  0.5472050000000 1.0
C      1  0.5102070000000  0.4778440000000  0.4703320000000 1.0
C      1  0.5491030000000  0.4471070000000  0.5187920000000 1.0
C      1  0.4985860000000  0.5569910000000  0.5226040000000 1.0
C      1  0.5302300000000  0.5432330000000  0.4349870000000 1.0
C      1  0.5661030000000  0.4692020000000  0.5235020000000 1.0
C      1  0.5156220000000  0.4617980000000  0.5523480000000 1.0
C      1  0.5244130000000  0.5291070000000  0.4576130000000 1.0
C      1  0.4986970000000  0.5358340000000  0.5402760000000 1.0
C      1  0.4630200000000  0.4388640000000  0.4923130000000 1.0
C      1  0.5269500000000  0.4554350000000  0.4734220000000 1.0
C      1  0.5411290000000  0.4425070000000  0.4921960000000 1.0
C      1  0.4830520000000  0.4930630000000  0.5730630000000 1.0
C      1  0.4887930000000  0.4807400000000  0.4890110000000 1.0
C      1  0.4741840000000  0.4669340000000  0.5311570000000 1.0
C      1  0.4878980000000  0.5056280000000  0.5025600000000 1.0
C      1  0.5308120000000  0.4433690000000  0.5399710000000 1.0
C      1  0.5353630000000  0.5102580000000  0.5223130000000 1.0
C      1  0.3873540000000  0.5388030000000  0.4360400000000 1.0
C      1  0.4322040000000  0.5350270000000  0.4632140000000 1.0
C      1  0.4548260000000  0.5329800000000  0.4768330000000 1.0
C      1  0.5408940000000  0.5306660000000  0.5030420000000 1.0
C      1  0.4095930000000  0.5369320000000  0.4495150000000 1.0
END
