TITL C-599894-471-1473 -0.00874823412316921 125000 -1218.27219293915 0 0 196 (C1) n - 1
REM
REM in /home/nfs/bkarasulu/CARBON/AIRSS/Generating-Clusters/TERSOFF/Only-C1/FIRE-HFTN
REM
REM
REM
REM
REM
REM ./C.cell (11c1c37f851c82e70ff6c80c92926a4b)
REM AIRSS Version 0.9.1 bugfix July 2018 build 013d7b7c2542+ Fri, 06 Jul 2018 19:26:36 +0100
REM compiler GCC version 9.2.1 20190827 (Red Hat 9.2.1-1)
REM options -cpp -mtune=generic -march=x86-64 -g -O0 -fpre-include=/usr/include/finclude/math-vector-fortran.h
REM seed 961984105 -1358295665 -125869125 1017422546 1078609432 -1786128297 -181205901 684201435 -34728450 -743682878 1712929640 414086736 -1531407162 1626771258 -1762066244 884231024 2021066678 -393788232 -1930136442 857405468 771153824 -370909873 2080640972 61437061 850634180 120524157 -1258820428 544321298 1656322545 -1063029400 -1159223769 -253214903 -669014319
REM
CELL 1.54180   50.00000   50.00000   50.00000   90.00000   90.00000   90.00000
LATT -1
SFAC C  
C      1  0.4928660000000  0.4099270000000  0.5244000000000 1.0
C      1  0.4020270000000  0.5096470000000  0.5728670000000 1.0
C      1  0.5602080000000  0.4695680000000  0.5482080000000 1.0
C      1  0.5528930000000  0.4788450000000  0.6073420000000 1.0
C      1  0.5493150000000  0.4584950000000  0.4948600000000 1.0
C      1  0.5825100000000  0.4736460000000  0.5662990000000 1.0
C      1  0.4090130000000  0.4203140000000  0.3800920000000 1.0
C      1  0.4574460000000  0.4901730000000  0.4812140000000 1.0
C      1  0.5666860000000  0.5773240000000  0.5801640000000 1.0
C      1  0.5070410000000  0.5455580000000  0.3320620000000 1.0
C      1  0.4069880000000  0.4411090000000  0.4783960000000 1.0
C      1  0.5615680000000  0.5977130000000  0.4911020000000 1.0
C      1  0.6234410000000  0.4921790000000  0.4579190000000 1.0
C      1  0.5244130000000  0.5116680000000  0.5681020000000 1.0
C      1  0.4662270000000  0.4171560000000  0.5161470000000 1.0
C      1  0.5011780000000  0.4437670000000  0.3818010000000 1.0
C      1  0.4719180000000  0.4986370000000  0.5717690000000 1.0
C      1  0.5541370000000  0.5443870000000  0.3832750000000 1.0
C      1  0.5082310000000  0.5873960000000  0.5753730000000 1.0
C      1  0.6071410000000  0.6110500000000  0.5445670000000 1.0
C      1  0.5183260000000  0.4456870000000  0.5454790000000 1.0
C      1  0.5898910000000  0.4308370000000  0.4783600000000 1.0
C      1  0.3976040000000  0.4372020000000  0.5291630000000 1.0
C      1  0.3987980000000  0.5195490000000  0.5454560000000 1.0
C      1  0.5412010000000  0.6145670000000  0.4054480000000 1.0
C      1  0.5404290000000  0.5526210000000  0.4067990000000 1.0
C      1  0.4745040000000  0.4310400000000  0.4453450000000 1.0
C      1  0.4490100000000  0.5386770000000  0.5177830000000 1.0
C      1  0.5551420000000  0.4930690000000  0.5313290000000 1.0
C      1  0.4074920000000  0.5894050000000  0.5161450000000 1.0
C      1  0.6023890000000  0.5051770000000  0.4425030000000 1.0
C      1  0.4543800000000  0.4428790000000  0.5764520000000 1.0
C      1  0.6005880000000  0.4399340000000  0.5020140000000 1.0
C      1  0.5713940000000  0.5480020000000  0.5431940000000 1.0
C      1  0.4143120000000  0.5822160000000  0.4484610000000 1.0
C      1  0.4320810000000  0.5430920000000  0.4954570000000 1.0
C      1  0.6170120000000  0.4907050000000  0.4849040000000 1.0
C      1  0.5047250000000  0.4692620000000  0.6110160000000 1.0
C      1  0.5247630000000  0.5613960000000  0.5304820000000 1.0
C      1  0.5321180000000  0.5500970000000  0.3398440000000 1.0
C      1  0.5054020000000  0.6083280000000  0.4700780000000 1.0
C      1  0.5766310000000  0.5738160000000  0.5541040000000 1.0
C      1  0.4048600000000  0.4269040000000  0.5038390000000 1.0
C      1  0.3683670000000  0.5215020000000  0.4580770000000 1.0
C      1  0.4163290000000  0.4684150000000  0.4769810000000 1.0
C      1  0.4647580000000  0.5553120000000  0.4067780000000 1.0
C      1  0.4348420000000  0.4087670000000  0.5506890000000 1.0
C      1  0.4097260000000  0.5308040000000  0.5916810000000 1.0
C      1  0.4179190000000  0.4335770000000  0.5487280000000 1.0
C      1  0.4305210000000  0.5493340000000  0.5860250000000 1.0
C      1  0.5513330000000  0.3912650000000  0.5270150000000 1.0
C      1  0.5281920000000  0.4438970000000  0.3815910000000 1.0
C      1  0.4817940000000  0.5800560000000  0.5677950000000 1.0
C      1  0.4393240000000  0.4539380000000  0.5516770000000 1.0
C      1  0.5554930000000  0.5582440000000  0.4564500000000 1.0
C      1  0.4751030000000  0.5409570000000  0.6099450000000 1.0
C      1  0.4439920000000  0.4882070000000  0.5099690000000 1.0
C      1  0.4216400000000  0.5979440000000  0.4706600000000 1.0
C      1  0.5869560000000  0.5011200000000  0.3933730000000 1.0
C      1  0.5097570000000  0.5085550000000  0.5221500000000 1.0
C      1  0.4516820000000  0.5562130000000  0.5396770000000 1.0
C      1  0.4289890000000  0.3987410000000  0.4750430000000 1.0
C      1  0.3988750000000  0.5621650000000  0.5207940000000 1.0
C      1  0.5487400000000  0.5833070000000  0.4695120000000 1.0
C      1  0.4633730000000  0.5823730000000  0.5886410000000 1.0
C      1  0.4922420000000  0.4539060000000  0.5038710000000 1.0
C      1  0.4978050000000  0.3637160000000  0.5418450000000 1.0
C      1  0.5522090000000  0.5336300000000  0.5995790000000 1.0
C      1  0.5718070000000  0.4159510000000  0.5898790000000 1.0
C      1  0.5416150000000  0.5083930000000  0.4482130000000 1.0
C      1  0.4878310000000  0.4805410000000  0.5580990000000 1.0
C      1  0.5479520000000  0.5619370000000  0.5944780000000 1.0
C      1  0.4660270000000  0.4452380000000  0.5115130000000 1.0
C      1  0.5092380000000  0.4061030000000  0.4197440000000 1.0
C      1  0.5543460000000  0.4199090000000  0.5296700000000 1.0
C      1  0.6241030000000  0.6296010000000  0.5529330000000 1.0
C      1  0.5141350000000  0.4549660000000  0.4614940000000 1.0
C      1  0.5504460000000  0.6231030000000  0.4978490000000 1.0
C      1  0.5550590000000  0.4468630000000  0.3902650000000 1.0
C      1  0.4432910000000  0.4717760000000  0.4623830000000 1.0
C      1  0.4922100000000  0.5478850000000  0.4981280000000 1.0
C      1  0.5240970000000  0.5184360000000  0.5979970000000 1.0
C      1  0.5219160000000  0.4248280000000  0.5920900000000 1.0
C      1  0.5917070000000  0.5034060000000  0.4906300000000 1.0
C      1  0.4537030000000  0.5032700000000  0.5921860000000 1.0
C      1  0.5476800000000  0.4402720000000  0.5520630000000 1.0
C      1  0.4647800000000  0.5153130000000  0.6157650000000 1.0
C      1  0.6040430000000  0.4565700000000  0.5555630000000 1.0
C      1  0.5037890000000  0.5432700000000  0.6027700000000 1.0
C      1  0.4576270000000  0.4558420000000  0.4414850000000 1.0
C      1  0.5263650000000  0.6344390000000  0.5020690000000 1.0
C      1  0.4788300000000  0.3837760000000  0.4706390000000 1.0
C      1  0.4840300000000  0.4198060000000  0.4195250000000 1.0
C      1  0.4105620000000  0.4192360000000  0.4325830000000 1.0
C      1  0.4939270000000  0.4887710000000  0.5328010000000 1.0
C      1  0.5982950000000  0.4197520000000  0.5881280000000 1.0
C      1  0.4003940000000  0.5120360000000  0.5149910000000 1.0
C      1  0.5888480000000  0.5918770000000  0.5360990000000 1.0
C      1  0.5815280000000  0.5893840000000  0.5088640000000 1.0
C      1  0.6407480000000  0.6478920000000  0.5611800000000 1.0
C      1  0.4158240000000  0.4198810000000  0.4597840000000 1.0
C      1  0.5402650000000  0.4326270000000  0.5056270000000 1.0
C      1  0.4817600000000  0.6185410000000  0.5147650000000 1.0
C      1  0.4106200000000  0.4844850000000  0.5827910000000 1.0
C      1  0.5116060000000  0.6115640000000  0.5600310000000 1.0
C      1  0.5030910000000  0.4037010000000  0.5903120000000 1.0
C      1  0.5419600000000  0.4643850000000  0.4685200000000 1.0
C      1  0.5442720000000  0.5420520000000  0.5370510000000 1.0
C      1  0.6052190000000  0.4501030000000  0.5270580000000 1.0
C      1  0.4993230000000  0.3377530000000  0.5401230000000 1.0
C      1  0.5115170000000  0.4350340000000  0.5180920000000 1.0
C      1  0.4933580000000  0.5158620000000  0.4540210000000 1.0
C      1  0.4991520000000  0.4712030000000  0.4821380000000 1.0
C      1  0.5336810000000  0.5138290000000  0.5397370000000 1.0
C      1  0.5859820000000  0.5174860000000  0.4639520000000 1.0
C      1  0.5065510000000  0.4870010000000  0.4209330000000 1.0
C      1  0.4043060000000  0.5492760000000  0.5457940000000 1.0
C      1  0.5679560000000  0.5036830000000  0.5072550000000 1.0
C      1  0.5364450000000  0.3787260000000  0.5071600000000 1.0
C      1  0.5890950000000  0.4925940000000  0.4206440000000 1.0
C      1  0.5508200000000  0.5231670000000  0.4932310000000 1.0
C      1  0.5281470000000  0.5991950000000  0.4558270000000 1.0
C      1  0.5195840000000  0.5677890000000  0.5933370000000 1.0
C      1  0.5564320000000  0.5603630000000  0.4283280000000 1.0
C      1  0.4543670000000  0.6091790000000  0.5082670000000 1.0
C      1  0.4975370000000  0.5620220000000  0.5228710000000 1.0
C      1  0.4540020000000  0.5584700000000  0.5997950000000 1.0
C      1  0.5015750000000  0.4003780000000  0.4727710000000 1.0
C      1  0.5026320000000  0.4580450000000  0.5652780000000 1.0
C      1  0.4571490000000  0.4138630000000  0.5703860000000 1.0
C      1  0.4823430000000  0.5582440000000  0.4733090000000 1.0
C      1  0.4425500000000  0.4032390000000  0.5232060000000 1.0
C      1  0.4321610000000  0.6020530000000  0.5257000000000 1.0
C      1  0.4707150000000  0.4939900000000  0.6334080000000 1.0
C      1  0.5572610000000  0.5294220000000  0.4646270000000 1.0
C      1  0.4873670000000  0.5524320000000  0.4230740000000 1.0
C      1  0.4866480000000  0.4993910000000  0.4786260000000 1.0
C      1  0.5149860000000  0.5077500000000  0.4379820000000 1.0
C      1  0.4938620000000  0.6205300000000  0.5409400000000 1.0
C      1  0.5091640000000  0.4500000000000  0.5913150000000 1.0
C      1  0.4770430000000  0.4694280000000  0.6194370000000 1.0
C      1  0.4976520000000  0.4280320000000  0.4631570000000 1.0
C      1  0.3595230000000  0.4704080000000  0.5156260000000 1.0
C      1  0.3538980000000  0.4869290000000  0.4953740000000 1.0
C      1  0.5131420000000  0.4620940000000  0.4323950000000 1.0
C      1  0.5745760000000  0.4883230000000  0.5903600000000 1.0
C      1  0.5664550000000  0.4216740000000  0.4636830000000 1.0
C      1  0.4013830000000  0.6001700000000  0.4905510000000 1.0
C      1  0.5486180000000  0.6073550000000  0.3808840000000 1.0
C      1  0.4225950000000  0.4036530000000  0.5029450000000 1.0
C      1  0.5744340000000  0.5251430000000  0.3857870000000 1.0
C      1  0.5533530000000  0.4819770000000  0.4499700000000 1.0
C      1  0.4523470000000  0.5119820000000  0.5243520000000 1.0
C      1  0.5748960000000  0.5169810000000  0.5938920000000 1.0
C      1  0.5016740000000  0.6226400000000  0.4941170000000 1.0
C      1  0.4619370000000  0.5491940000000  0.3561730000000 1.0
C      1  0.5452030000000  0.4145770000000  0.4816830000000 1.0
C      1  0.4295510000000  0.5560350000000  0.5580170000000 1.0
C      1  0.5354720000000  0.4080550000000  0.4265610000000 1.0
C      1  0.4810550000000  0.5457630000000  0.3379310000000 1.0
C      1  0.4355640000000  0.4812120000000  0.5957080000000 1.0
C      1  0.4975670000000  0.5195750000000  0.4995640000000 1.0
C      1  0.3830430000000  0.5403550000000  0.4461540000000 1.0
C      1  0.5486970000000  0.5600050000000  0.3600620000000 1.0
C      1  0.5478060000000  0.4257400000000  0.5792580000000 1.0
C      1  0.5928490000000  0.5312150000000  0.5407860000000 1.0
C      1  0.4792650000000  0.4402650000000  0.3996580000000 1.0
C      1  0.4487090000000  0.5997200000000  0.4810250000000 1.0
C      1  0.5740690000000  0.4577110000000  0.3723830000000 1.0
C      1  0.4827540000000  0.4004270000000  0.5706410000000 1.0
C      1  0.5702010000000  0.4725260000000  0.4293020000000 1.0
C      1  0.4043030000000  0.5394980000000  0.5020020000000 1.0
C      1  0.3576950000000  0.5039240000000  0.4751120000000 1.0
C      1  0.5126150000000  0.5540080000000  0.4103710000000 1.0
C      1  0.4929130000000  0.3908830000000  0.5454110000000 1.0
C      1  0.4856060000000  0.5427110000000  0.4499030000000 1.0
C      1  0.6132590000000  0.4369490000000  0.5737720000000 1.0
C      1  0.4088910000000  0.4194260000000  0.4061450000000 1.0
C      1  0.5634020000000  0.4468360000000  0.4181890000000 1.0
C      1  0.5268670000000  0.3927900000000  0.4836110000000 1.0
C      1  0.4654480000000  0.4631120000000  0.4129100000000 1.0
C      1  0.4772600000000  0.5674160000000  0.5429500000000 1.0
C      1  0.4142160000000  0.4888820000000  0.5010050000000 1.0
C      1  0.4557360000000  0.5533290000000  0.3817640000000 1.0
C      1  0.3993920000000  0.5610110000000  0.4416980000000 1.0
C      1  0.5335150000000  0.6102740000000  0.4305560000000 1.0
C      1  0.4804860000000  0.4871600000000  0.4094710000000 1.0
C      1  0.5257630000000  0.4897950000000  0.6108440000000 1.0
C      1  0.5882950000000  0.4804940000000  0.3740620000000 1.0
C      1  0.4493200000000  0.4631700000000  0.5257820000000 1.0
C      1  0.5523860000000  0.5877800000000  0.3630900000000 1.0
C      1  0.4548130000000  0.4592180000000  0.6006270000000 1.0
C      1  0.4671140000000  0.5812860000000  0.4711390000000 1.0
C      1  0.4520710000000  0.3843050000000  0.4685870000000 1.0
C      1  0.3750110000000  0.4537830000000  0.5297950000000 1.0
C      1  0.5578250000000  0.4240770000000  0.4354650000000 1.0
END
