TITL C-599890-3321-1139 0.000258818520077396 125000 -799.145340362276 0 0 132 (C1) n - 1
REM
REM in /home/nfs/bkarasulu/CARBON/AIRSS/Generating-Clusters/TERSOFF/Only-C1/FIRE-HFTN
REM
REM
REM
REM
REM
REM ./C.cell (11c1c37f851c82e70ff6c80c92926a4b)
REM AIRSS Version 0.9.1 bugfix July 2018 build 013d7b7c2542+ Fri, 06 Jul 2018 19:26:36 +0100
REM compiler GCC version 9.2.1 20190827 (Red Hat 9.2.1-1)
REM options -cpp -mtune=generic -march=x86-64 -g -O0 -fpre-include=/usr/include/finclude/math-vector-fortran.h
REM seed 1061893593 -2124222959 961097125 999875778 1598059597 -1175171493 -1456429252 -1379655216 -1118472853 1842708909 327035983 -660223895 -1137891840 1477238083 1082550271 974213626 -534333772 -904425319 1273007274 1230573168 -62151951 -1880826093 1436003497 1645630511 -2083312797 1357847445 1892380940 -1902672109 -1700317400 -1028169559 -1447357830 1586941797 -139667341
REM
CELL 1.54180   50.00000   50.00000   50.00000   90.00000   90.00000   90.00000
LATT -1
SFAC C  
C      1  0.6097330000000  0.5487890000000  0.5067550000000 1.0
C      1  0.4748360000000  0.4874510000000  0.5251930000000 1.0
C      1  0.5442500000000  0.5443750000000  0.4461950000000 1.0
C      1  0.5049760000000  0.5297250000000  0.5313750000000 1.0
C      1  0.4471990000000  0.4082610000000  0.5359740000000 1.0
C      1  0.5774910000000  0.4770930000000  0.5728950000000 1.0
C      1  0.4985360000000  0.5449730000000  0.5073160000000 1.0
C      1  0.4617530000000  0.6051320000000  0.4858640000000 1.0
C      1  0.4943010000000  0.3920720000000  0.5603510000000 1.0
C      1  0.5399100000000  0.4786300000000  0.6483460000000 1.0
C      1  0.4415510000000  0.4152550000000  0.4864680000000 1.0
C      1  0.5444400000000  0.6088250000000  0.4932890000000 1.0
C      1  0.3453360000000  0.5452390000000  0.5722140000000 1.0
C      1  0.4327400000000  0.4746300000000  0.4222760000000 1.0
C      1  0.4334900000000  0.5115840000000  0.5093980000000 1.0
C      1  0.5534210000000  0.5416560000000  0.5691900000000 1.0
C      1  0.5525440000000  0.4176660000000  0.4688590000000 1.0
C      1  0.4930550000000  0.4449430000000  0.4372450000000 1.0
C      1  0.5203280000000  0.4409710000000  0.4446760000000 1.0
C      1  0.3926510000000  0.4719060000000  0.4848060000000 1.0
C      1  0.4523550000000  0.4200100000000  0.4621760000000 1.0
C      1  0.5869690000000  0.4642820000000  0.5481970000000 1.0
C      1  0.4068640000000  0.5668080000000  0.4576200000000 1.0
C      1  0.5586550000000  0.5060960000000  0.5224950000000 1.0
C      1  0.5643540000000  0.4390270000000  0.4531840000000 1.0
C      1  0.5210740000000  0.5810260000000  0.4615480000000 1.0
C      1  0.5479730000000  0.4977850000000  0.4101070000000 1.0
C      1  0.4215910000000  0.4776130000000  0.4755480000000 1.0
C      1  0.5795460000000  0.5203860000000  0.5359910000000 1.0
C      1  0.4443130000000  0.5585810000000  0.5033410000000 1.0
C      1  0.5463670000000  0.3988200000000  0.5653130000000 1.0
C      1  0.4988580000000  0.5953180000000  0.4528610000000 1.0
C      1  0.5493900000000  0.5484220000000  0.5052370000000 1.0
C      1  0.4404140000000  0.5250430000000  0.4652620000000 1.0
C      1  0.5942000000000  0.4677030000000  0.4747720000000 1.0
C      1  0.4474280000000  0.4535580000000  0.5140700000000 1.0
C      1  0.4895770000000  0.5719990000000  0.5103540000000 1.0
C      1  0.4573500000000  0.4678340000000  0.5375400000000 1.0
C      1  0.6019290000000  0.5249900000000  0.5189600000000 1.0
C      1  0.4138840000000  0.5917410000000  0.4697980000000 1.0
C      1  0.4674760000000  0.5374600000000  0.4055770000000 1.0
C      1  0.4787190000000  0.4253360000000  0.4542470000000 1.0
C      1  0.5177760000000  0.5356310000000  0.4049860000000 1.0
C      1  0.5152020000000  0.5030270000000  0.5326320000000 1.0
C      1  0.5411730000000  0.5022000000000  0.4784360000000 1.0
C      1  0.4577330000000  0.5103110000000  0.5215370000000 1.0
C      1  0.4448790000000  0.4251540000000  0.5128140000000 1.0
C      1  0.3941820000000  0.5194550000000  0.4762670000000 1.0
C      1  0.5657070000000  0.4157460000000  0.5567740000000 1.0
C      1  0.5023020000000  0.5354350000000  0.4793210000000 1.0
C      1  0.4704710000000  0.4857680000000  0.5809740000000 1.0
C      1  0.6043940000000  0.5619530000000  0.4840430000000 1.0
C      1  0.5205870000000  0.3906440000000  0.5665540000000 1.0
C      1  0.3923140000000  0.5480650000000  0.4759600000000 1.0
C      1  0.5423210000000  0.4579300000000  0.4489600000000 1.0
C      1  0.4250540000000  0.4937430000000  0.5638160000000 1.0
C      1  0.4775370000000  0.6076120000000  0.4628430000000 1.0
C      1  0.5267510000000  0.5323580000000  0.5758910000000 1.0
C      1  0.4290920000000  0.4587780000000  0.4004420000000 1.0
C      1  0.5738620000000  0.4381860000000  0.5416190000000 1.0
C      1  0.4479590000000  0.4696130000000  0.4882000000000 1.0
C      1  0.3927410000000  0.5357780000000  0.5480300000000 1.0
C      1  0.5199300000000  0.5066580000000  0.4066990000000 1.0
C      1  0.4405720000000  0.5208270000000  0.4379010000000 1.0
C      1  0.4865620000000  0.5112480000000  0.4713890000000 1.0
C      1  0.5342210000000  0.4515220000000  0.5798410000000 1.0
C      1  0.5617210000000  0.4885400000000  0.3881630000000 1.0
C      1  0.4238370000000  0.3991860000000  0.5473400000000 1.0
C      1  0.5971260000000  0.4969150000000  0.4751280000000 1.0
C      1  0.3833490000000  0.4480550000000  0.4951900000000 1.0
C      1  0.5979920000000  0.4758510000000  0.5217580000000 1.0
C      1  0.5866000000000  0.5034700000000  0.5786070000000 1.0
C      1  0.5633380000000  0.4425190000000  0.5119470000000 1.0
C      1  0.3682870000000  0.5406120000000  0.5607660000000 1.0
C      1  0.5144760000000  0.4647660000000  0.4976760000000 1.0
C      1  0.5634960000000  0.5182280000000  0.6363470000000 1.0
C      1  0.5720310000000  0.5401660000000  0.4544560000000 1.0
C      1  0.6051900000000  0.5003990000000  0.5047510000000 1.0
C      1  0.5612520000000  0.4983990000000  0.4360280000000 1.0
C      1  0.5247090000000  0.4161350000000  0.4602360000000 1.0
C      1  0.4985950000000  0.4112640000000  0.4708440000000 1.0
C      1  0.4754980000000  0.6129770000000  0.5318260000000 1.0
C      1  0.5198320000000  0.4368130000000  0.5338690000000 1.0
C      1  0.4473930000000  0.4983280000000  0.4218540000000 1.0
C      1  0.5819030000000  0.5126580000000  0.4531780000000 1.0
C      1  0.4500500000000  0.5473450000000  0.4795990000000 1.0
C      1  0.5481700000000  0.4966190000000  0.6294100000000 1.0
C      1  0.3856730000000  0.5573960000000  0.5025080000000 1.0
C      1  0.5448700000000  0.5955500000000  0.4685080000000 1.0
C      1  0.5505210000000  0.5696730000000  0.5246740000000 1.0
C      1  0.4933440000000  0.4976480000000  0.5889690000000 1.0
C      1  0.5534490000000  0.5644370000000  0.5522090000000 1.0
C      1  0.5215500000000  0.5518290000000  0.4631110000000 1.0
C      1  0.4944110000000  0.4924730000000  0.4089020000000 1.0
C      1  0.5898910000000  0.4497290000000  0.4541380000000 1.0
C      1  0.3737530000000  0.4258240000000  0.5048220000000 1.0
C      1  0.4963560000000  0.4083900000000  0.4987950000000 1.0
C      1  0.5757440000000  0.5245930000000  0.5636870000000 1.0
C      1  0.4338640000000  0.6048830000000  0.4819750000000 1.0
C      1  0.5703900000000  0.5874680000000  0.4593740000000 1.0
C      1  0.4699040000000  0.5076490000000  0.4065760000000 1.0
C      1  0.5522200000000  0.4718460000000  0.5863510000000 1.0
C      1  0.5405650000000  0.4928280000000  0.6023610000000 1.0
C      1  0.5176750000000  0.4420620000000  0.5611920000000 1.0
C      1  0.4928960000000  0.5485980000000  0.4004130000000 1.0
C      1  0.4005620000000  0.5530990000000  0.5265750000000 1.0
C      1  0.4274720000000  0.5611760000000  0.5240620000000 1.0
C      1  0.4492020000000  0.4785940000000  0.5630820000000 1.0
C      1  0.5357010000000  0.4584040000000  0.5179180000000 1.0
C      1  0.3776500000000  0.4963380000000  0.4805350000000 1.0
C      1  0.5451080000000  0.4850390000000  0.4558700000000 1.0
C      1  0.5197720000000  0.5085660000000  0.5905170000000 1.0
C      1  0.4215660000000  0.4688470000000  0.4471700000000 1.0
C      1  0.5475740000000  0.5964070000000  0.5167940000000 1.0
C      1  0.5850940000000  0.5636650000000  0.4637930000000 1.0
C      1  0.4902810000000  0.4661090000000  0.4189980000000 1.0
C      1  0.4435300000000  0.5453640000000  0.4221780000000 1.0
C      1  0.5386250000000  0.5484070000000  0.4187240000000 1.0
C      1  0.5864250000000  0.4585840000000  0.5007930000000 1.0
C      1  0.4735500000000  0.4855190000000  0.4804240000000 1.0
C      1  0.5578600000000  0.4167210000000  0.4968760000000 1.0
C      1  0.4755440000000  0.5967860000000  0.5097260000000 1.0
C      1  0.4220170000000  0.5617950000000  0.4328470000000 1.0
C      1  0.5406830000000  0.3998160000000  0.5118740000000 1.0
C      1  0.5498040000000  0.5202460000000  0.4991770000000 1.0
C      1  0.5390310000000  0.4867840000000  0.5301230000000 1.0
C      1  0.4716720000000  0.4003250000000  0.5481860000000 1.0
C      1  0.4221850000000  0.5085330000000  0.4814010000000 1.0
C      1  0.5159390000000  0.4123010000000  0.5187400000000 1.0
C      1  0.4086260000000  0.5139860000000  0.5571300000000 1.0
C      1  0.5069000000000  0.5416350000000  0.5571800000000 1.0
C      1  0.4905620000000  0.4781740000000  0.5029600000000 1.0
END
