TITL C-599896-8500-1250 1.91055098003137 125000 -1095.37720418079 0 0 180 (C1) n - 1
REM
REM in /home/nfs/bkarasulu/CARBON/AIRSS/Generating-Clusters/TERSOFF/Only-C1/FIRE-HFTN
REM
REM
REM
REM
REM
REM ./C.cell (11c1c37f851c82e70ff6c80c92926a4b)
REM AIRSS Version 0.9.1 bugfix July 2018 build 013d7b7c2542+ Fri, 06 Jul 2018 19:26:36 +0100
REM compiler GCC version 9.2.1 20190827 (Red Hat 9.2.1-1)
REM options -cpp -mtune=generic -march=x86-64 -g -O0 -fpre-include=/usr/include/finclude/math-vector-fortran.h
REM seed -1441538859 -796134195 77604491 -600703361 -1551810298 -1656150724 -1316008725 -1070341364 -497674805 436220508 59625315 1853541724 -989069610 756182221 1945967030 -79599072 -437504514 -741994710 -795247193 -707953741 610236285 1390539689 452382793 -1888916456 1702476301 1502840909 -1057655958 542344812 -227206443 -459773496 243385539 -1796963055 -778270336
REM
CELL 1.54180   50.00000   50.00000   50.00000   90.00000   90.00000   90.00000
LATT -1
SFAC C  
C      1  0.5410830000000  0.5275820000000  0.4824520000000 1.0
C      1  0.4700460000000  0.4364650000000  0.5064970000000 1.0
C      1  0.5196060000000  0.5400000000000  0.5430570000000 1.0
C      1  0.4295200000000  0.5446870000000  0.4190510000000 1.0
C      1  0.4088540000000  0.5300150000000  0.5055810000000 1.0
C      1  0.4981080000000  0.5935450000000  0.4811750000000 1.0
C      1  0.5593970000000  0.4378340000000  0.5415930000000 1.0
C      1  0.4513690000000  0.5336700000000  0.5813470000000 1.0
C      1  0.5315820000000  0.4310190000000  0.6667460000000 1.0
C      1  0.5622340000000  0.5569080000000  0.5233200000000 1.0
C      1  0.5643710000000  0.5009340000000  0.5399310000000 1.0
C      1  0.3613410000000  0.5204410000000  0.4006580000000 1.0
C      1  0.4258360000000  0.4800550000000  0.4448410000000 1.0
C      1  0.3734020000000  0.5559260000000  0.5797930000000 1.0
C      1  0.4073420000000  0.5289430000000  0.5581430000000 1.0
C      1  0.5313440000000  0.4567140000000  0.4677130000000 1.0
C      1  0.4879560000000  0.6501890000000  0.5086600000000 1.0
C      1  0.4675950000000  0.3917040000000  0.5717400000000 1.0
C      1  0.5053740000000  0.4480940000000  0.4013410000000 1.0
C      1  0.5034370000000  0.4972050000000  0.6495000000000 1.0
C      1  0.4619450000000  0.4036560000000  0.4731640000000 1.0
C      1  0.4047280000000  0.4335750000000  0.5178800000000 1.0
C      1  0.5253930000000  0.4236090000000  0.5740520000000 1.0
C      1  0.5950860000000  0.4549480000000  0.4734670000000 1.0
C      1  0.5527110000000  0.4020740000000  0.4394780000000 1.0
C      1  0.3988030000000  0.5013770000000  0.5582590000000 1.0
C      1  0.4594740000000  0.6446340000000  0.4670790000000 1.0
C      1  0.4965620000000  0.5241300000000  0.4251210000000 1.0
C      1  0.4575210000000  0.4550410000000  0.5991330000000 1.0
C      1  0.4639670000000  0.5957740000000  0.5837630000000 1.0
C      1  0.5955790000000  0.5866800000000  0.4427000000000 1.0
C      1  0.5824390000000  0.4568540000000  0.5354790000000 1.0
C      1  0.6120410000000  0.5014350000000  0.5717100000000 1.0
C      1  0.4846310000000  0.4656580000000  0.4403500000000 1.0
C      1  0.4674740000000  0.4523670000000  0.5301110000000 1.0
C      1  0.3104040000000  0.5192970000000  0.3876830000000 1.0
C      1  0.5213870000000  0.4946080000000  0.5716650000000 1.0
C      1  0.4971770000000  0.4825120000000  0.5606020000000 1.0
C      1  0.5562070000000  0.5472880000000  0.4979800000000 1.0
C      1  0.4311300000000  0.5924080000000  0.5059010000000 1.0
C      1  0.4703810000000  0.3755020000000  0.5507270000000 1.0
C      1  0.6205660000000  0.5169550000000  0.4542320000000 1.0
C      1  0.4838100000000  0.4491570000000  0.4849030000000 1.0
C      1  0.5718800000000  0.5263050000000  0.6360470000000 1.0
C      1  0.4895500000000  0.6240060000000  0.5198290000000 1.0
C      1  0.4711020000000  0.5123570000000  0.4972630000000 1.0
C      1  0.5797590000000  0.4833380000000  0.5258720000000 1.0
C      1  0.5501100000000  0.5468790000000  0.5973870000000 1.0
C      1  0.4330600000000  0.5677320000000  0.4909400000000 1.0
C      1  0.4388850000000  0.5474630000000  0.4463500000000 1.0
C      1  0.4097310000000  0.4821180000000  0.4960360000000 1.0
C      1  0.5881960000000  0.4621880000000  0.5941750000000 1.0
C      1  0.4798060000000  0.4042040000000  0.4523220000000 1.0
C      1  0.4086370000000  0.4574530000000  0.5356360000000 1.0
C      1  0.5118630000000  0.5341040000000  0.4740170000000 1.0
C      1  0.5614620000000  0.4781360000000  0.3865580000000 1.0
C      1  0.5379980000000  0.4736230000000  0.3718330000000 1.0
C      1  0.5349440000000  0.3692470000000  0.4764420000000 1.0
C      1  0.4666840000000  0.4991880000000  0.5222600000000 1.0
C      1  0.5799180000000  0.4137230000000  0.5006550000000 1.0
C      1  0.5924260000000  0.4900850000000  0.5883320000000 1.0
C      1  0.5675370000000  0.4137410000000  0.5246650000000 1.0
C      1  0.5462790000000  0.5675120000000  0.4258820000000 1.0
C      1  0.3885020000000  0.4403340000000  0.4947450000000 1.0
C      1  0.4124580000000  0.5903760000000  0.5274040000000 1.0
C      1  0.5009680000000  0.5889460000000  0.4534000000000 1.0
C      1  0.6261140000000  0.4321260000000  0.5810320000000 1.0
C      1  0.3956480000000  0.4634440000000  0.4797180000000 1.0
C      1  0.4552830000000  0.5074120000000  0.4743200000000 1.0
C      1  0.4296170000000  0.4552010000000  0.5979380000000 1.0
C      1  0.5254250000000  0.4874440000000  0.5133160000000 1.0
C      1  0.6067750000000  0.5321320000000  0.5300970000000 1.0
C      1  0.5757980000000  0.4687890000000  0.4088990000000 1.0
C      1  0.5474500000000  0.3835540000000  0.4578600000000 1.0
C      1  0.4752730000000  0.6572690000000  0.4854790000000 1.0
C      1  0.3838950000000  0.5257370000000  0.4990440000000 1.0
C      1  0.4932940000000  0.5305220000000  0.4958910000000 1.0
C      1  0.3907570000000  0.5748090000000  0.5383570000000 1.0
C      1  0.4477330000000  0.5543560000000  0.3988690000000 1.0
C      1  0.5672500000000  0.5640660000000  0.5824120000000 1.0
C      1  0.4710070000000  0.4694040000000  0.6189140000000 1.0
C      1  0.4868270000000  0.4833190000000  0.6349780000000 1.0
C      1  0.5418180000000  0.5397540000000  0.4376040000000 1.0
C      1  0.4283620000000  0.4965680000000  0.4213470000000 1.0
C      1  0.6136050000000  0.5492590000000  0.5727110000000 1.0
C      1  0.4353220000000  0.5348580000000  0.5581640000000 1.0
C      1  0.4799420000000  0.4129800000000  0.5851360000000 1.0
C      1  0.5905540000000  0.4300000000000  0.4821560000000 1.0
C      1  0.5936380000000  0.4933970000000  0.5031090000000 1.0
C      1  0.5308620000000  0.4438110000000  0.5320850000000 1.0
C      1  0.5229980000000  0.5871860000000  0.4331570000000 1.0
C      1  0.3869670000000  0.5209170000000  0.4073300000000 1.0
C      1  0.5448430000000  0.4838570000000  0.5856560000000 1.0
C      1  0.4989130000000  0.4110080000000  0.4339200000000 1.0
C      1  0.4807770000000  0.6047990000000  0.5007470000000 1.0
C      1  0.4511110000000  0.5943120000000  0.4521340000000 1.0
C      1  0.4821200000000  0.5016470000000  0.5455180000000 1.0
C      1  0.5119030000000  0.4365490000000  0.5518710000000 1.0
C      1  0.5483400000000  0.4470000000000  0.6195950000000 1.0
C      1  0.5684350000000  0.4949900000000  0.4602300000000 1.0
C      1  0.4268740000000  0.4161610000000  0.5109860000000 1.0
C      1  0.4077060000000  0.4608830000000  0.5839390000000 1.0
C      1  0.6086650000000  0.5178600000000  0.5051980000000 1.0
C      1  0.5120000000000  0.4505940000000  0.4873540000000 1.0
C      1  0.6261460000000  0.4342460000000  0.5542250000000 1.0
C      1  0.5434370000000  0.5649920000000  0.3953220000000 1.0
C      1  0.4815400000000  0.5873340000000  0.4094450000000 1.0
C      1  0.5404730000000  0.4389680000000  0.6435660000000 1.0
C      1  0.3656930000000  0.5815150000000  0.5285790000000 1.0
C      1  0.5724480000000  0.5786860000000  0.4337830000000 1.0
C      1  0.4514880000000  0.4757720000000  0.5240610000000 1.0
C      1  0.5005260000000  0.3610790000000  0.5099880000000 1.0
C      1  0.4716220000000  0.5932690000000  0.5575700000000 1.0
C      1  0.4809610000000  0.4526140000000  0.4159100000000 1.0
C      1  0.5226430000000  0.5601480000000  0.3785870000000 1.0
C      1  0.5891580000000  0.5621930000000  0.5645600000000 1.0
C      1  0.4696380000000  0.4625490000000  0.4638280000000 1.0
C      1  0.5019680000000  0.5389730000000  0.5214340000000 1.0
C      1  0.4552580000000  0.4994460000000  0.4126920000000 1.0
C      1  0.5259560000000  0.3247650000000  0.4918000000000 1.0
C      1  0.4623260000000  0.5712280000000  0.5420700000000 1.0
C      1  0.4134960000000  0.5206430000000  0.4154000000000 1.0
C      1  0.5447940000000  0.4811980000000  0.4698890000000 1.0
C      1  0.6123870000000  0.5016750000000  0.4334130000000 1.0
C      1  0.5205000000000  0.3515880000000  0.4927400000000 1.0
C      1  0.5089260000000  0.5966580000000  0.4089640000000 1.0
C      1  0.4863380000000  0.4528810000000  0.5557360000000 1.0
C      1  0.6177010000000  0.5249570000000  0.5571750000000 1.0
C      1  0.6203840000000  0.5250290000000  0.4801780000000 1.0
C      1  0.4679410000000  0.4907500000000  0.3891200000000 1.0
C      1  0.4025820000000  0.4660230000000  0.4526670000000 1.0
C      1  0.5581120000000  0.4554900000000  0.5926670000000 1.0
C      1  0.5213020000000  0.4598950000000  0.5123800000000 1.0
C      1  0.5213440000000  0.5241040000000  0.5669380000000 1.0
C      1  0.6085290000000  0.4460030000000  0.5378650000000 1.0
C      1  0.6087570000000  0.4436700000000  0.5979880000000 1.0
C      1  0.4721470000000  0.5399060000000  0.5970860000000 1.0
C      1  0.4960600000000  0.4953820000000  0.3862270000000 1.0
C      1  0.5396880000000  0.5595330000000  0.5397990000000 1.0
C      1  0.4242910000000  0.4748850000000  0.5187570000000 1.0
C      1  0.4382610000000  0.5702570000000  0.4627430000000 1.0
C      1  0.5230950000000  0.5406390000000  0.5904920000000 1.0
C      1  0.4449000000000  0.5495640000000  0.5353250000000 1.0
C      1  0.5077320000000  0.4102700000000  0.5910720000000 1.0
C      1  0.5061290000000  0.4825100000000  0.4413970000000 1.0
C      1  0.4722540000000  0.4403460000000  0.5799310000000 1.0
C      1  0.5389660000000  0.4685910000000  0.3177060000000 1.0
C      1  0.4524150000000  0.6079740000000  0.4957070000000 1.0
C      1  0.5634770000000  0.5251600000000  0.6101490000000 1.0
C      1  0.5892670000000  0.4824530000000  0.4767790000000 1.0
C      1  0.4494580000000  0.6181240000000  0.4686450000000 1.0
C      1  0.3356620000000  0.5198650000000  0.3941160000000 1.0
C      1  0.3573840000000  0.5582980000000  0.6002120000000 1.0
C      1  0.5869970000000  0.5536970000000  0.5361970000000 1.0
C      1  0.4314720000000  0.5460900000000  0.5094000000000 1.0
C      1  0.5457770000000  0.4244980000000  0.4238650000000 1.0
C      1  0.5369830000000  0.4992910000000  0.4913080000000 1.0
C      1  0.4745360000000  0.5638160000000  0.3943630000000 1.0
C      1  0.5668430000000  0.5023920000000  0.5938140000000 1.0
C      1  0.5578800000000  0.5229460000000  0.4558720000000 1.0
C      1  0.5178580000000  0.4264190000000  0.4170290000000 1.0
C      1  0.4868780000000  0.6142060000000  0.5459260000000 1.0
C      1  0.4828730000000  0.3659890000000  0.5292430000000 1.0
C      1  0.5390310000000  0.4662520000000  0.2917410000000 1.0
C      1  0.4562230000000  0.5261400000000  0.4532570000000 1.0
C      1  0.3908720000000  0.5529570000000  0.5579000000000 1.0
C      1  0.5015770000000  0.5219860000000  0.3968830000000 1.0
C      1  0.4753070000000  0.5899760000000  0.4378820000000 1.0
C      1  0.4478660000000  0.4810950000000  0.4646960000000 1.0
C      1  0.5525460000000  0.4342770000000  0.5719500000000 1.0
C      1  0.4977280000000  0.5477780000000  0.3845820000000 1.0
C      1  0.5650520000000  0.4448260000000  0.4196550000000 1.0
C      1  0.5974450000000  0.4839840000000  0.4194150000000 1.0
C      1  0.4523820000000  0.4157480000000  0.4977720000000 1.0
C      1  0.5138010000000  0.5345490000000  0.4447450000000 1.0
C      1  0.4010730000000  0.4723280000000  0.5592260000000 1.0
C      1  0.4704630000000  0.5161160000000  0.4309270000000 1.0
C      1  0.5132790000000  0.4716450000000  0.3857110000000 1.0
C      1  0.4979880000000  0.5454310000000  0.6021600000000 1.0
C      1  0.5388420000000  0.4709700000000  0.3440920000000 1.0
END
