TITL C-599890-3321-651 -27407.8709288051 125000 -1188.61896589046 0 0 195 (C1) n - 1
REM
REM in /home/nfs/bkarasulu/CARBON/AIRSS/Generating-Clusters/TERSOFF/Only-C1/FIRE-HFTN
REM
REM
REM
REM
REM
REM ./C.cell (11c1c37f851c82e70ff6c80c92926a4b)
REM AIRSS Version 0.9.1 bugfix July 2018 build 013d7b7c2542+ Fri, 06 Jul 2018 19:26:36 +0100
REM compiler GCC version 9.2.1 20190827 (Red Hat 9.2.1-1)
REM options -cpp -mtune=generic -march=x86-64 -g -O0 -fpre-include=/usr/include/finclude/math-vector-fortran.h
REM seed 268323658 -1940483436 1866154835 590461266 -2087819548 2019879600 -822986135 -2086205457 944701552 1424523854 547628069 -175510722 -1116071861 -2039613958 -160017490 1051772952 1057245975 1419663734 1218976990 -1004310898 2141382588 1222733414 1283366713 -672264689 -25155715 -651024154 -538329418 -1118827765 -228280914 1624437269 762096636 -1725503235 768394309
REM
CELL 1.54180   50.00000   50.00000   50.00000   90.00000   90.00000   90.00000
LATT -1
SFAC C  
C      1  0.4914050000000  0.3999440000000  0.5510430000000 1.0
C      1  0.4720360000000  0.3764070000000  0.5141760000000 1.0
C      1  0.5962280000000  0.4977570000000  0.4899260000000 1.0
C      1  0.5078060000000  0.5876010000000  0.4813300000000 1.0
C      1  0.5009620000000  0.5306680000000  0.6108400000000 1.0
C      1  0.4969990000000  0.5168840000000  0.5184440000000 1.0
C      1  0.4573500000000  0.5905800000000  0.4166340000000 1.0
C      1  0.5299360000000  0.4605540000000  0.4647340000000 1.0
C      1  0.4941620000000  0.5593180000000  0.6009120000000 1.0
C      1  0.4012620000000  0.4308680000000  0.5702060000000 1.0
C      1  0.4667570000000  0.5254950000000  0.3927530000000 1.0
C      1  0.4513680000000  0.5518000000000  0.5751530000000 1.0
C      1  0.5377550000000  0.5258290000000  0.3831470000000 1.0
C      1  0.3896210000000  0.5535160000000  0.5003380000000 1.0
C      1  0.4833480000000  0.3872130000000  0.4099410000000 1.0
C      1  0.4571010000000  0.4357430000000  0.6006690000000 1.0
C      1  0.4833360000000  0.3765720000000  0.4348820000000 1.0
C      1  0.5895320000000  0.5338260000000  0.5526020000000 1.0
C      1  0.3976460000000  0.4385180000000  0.4626600000000 1.0
C      1  0.4785820000000  0.4146150000000  0.4045840000000 1.0
C      1  0.4960790000000  0.5730880000000  0.5017890000000 1.0
C      1  0.5135640000000  0.3998800000000  0.5014660000000 1.0
C      1  0.5577770000000  0.5129650000000  0.5219290000000 1.0
C      1  0.4953600000000  0.6007960000000  0.5479940000000 1.0
C      1  0.5178620000000  0.5364030000000  0.5171360000000 1.0
C      1  0.5890570000000  0.6000720000000  0.4776290000000 1.0
C      1  0.4217010000000  0.4147260000000  0.5768010000000 1.0
C      1  0.5434390000000  0.6132060000000  0.4965420000000 1.0
C      1  0.5118890000000  0.5665740000000  0.4427720000000 1.0
C      1  0.5899210000000  0.5220660000000  0.6006050000000 1.0
C      1  0.4227720000000  0.5301210000000  0.4247080000000 1.0
C      1  0.5163760000000  0.5817200000000  0.5448570000000 1.0
C      1  0.4743980000000  0.4853190000000  0.4272590000000 1.0
C      1  0.5452620000000  0.5346450000000  0.5039940000000 1.0
C      1  0.4203160000000  0.5802510000000  0.5350950000000 1.0
C      1  0.5178200000000  0.6241380000000  0.5098030000000 1.0
C      1  0.5111060000000  0.3920300000000  0.4728120000000 1.0
C      1  0.5306170000000  0.4232140000000  0.5034870000000 1.0
C      1  0.4282540000000  0.5793630000000  0.4801820000000 1.0
C      1  0.5354680000000  0.5867120000000  0.4854960000000 1.0
C      1  0.4901190000000  0.4962600000000  0.4690350000000 1.0
C      1  0.4083860000000  0.5664650000000  0.5586750000000 1.0
C      1  0.3914050000000  0.4548350000000  0.5632390000000 1.0
C      1  0.4683240000000  0.5032820000000  0.4853340000000 1.0
C      1  0.4903890000000  0.4718390000000  0.5584450000000 1.0
C      1  0.4495360000000  0.6004010000000  0.4870670000000 1.0
C      1  0.3907140000000  0.5468760000000  0.5511120000000 1.0
C      1  0.5469570000000  0.4048640000000  0.5512370000000 1.0
C      1  0.5607980000000  0.4914860000000  0.5630940000000 1.0
C      1  0.5723050000000  0.6070510000000  0.4999610000000 1.0
C      1  0.3879440000000  0.5003340000000  0.5390180000000 1.0
C      1  0.5775460000000  0.3942060000000  0.5105670000000 1.0
C      1  0.5264380000000  0.5502420000000  0.3813780000000 1.0
C      1  0.5315380000000  0.4261920000000  0.5632060000000 1.0
C      1  0.5116700000000  0.5635580000000  0.5236010000000 1.0
C      1  0.4714840000000  0.5037460000000  0.5133850000000 1.0
C      1  0.5717940000000  0.5084390000000  0.6153830000000 1.0
C      1  0.5097230000000  0.6276050000000  0.4521940000000 1.0
C      1  0.5730040000000  0.5044120000000  0.4783190000000 1.0
C      1  0.5519860000000  0.5652410000000  0.4998510000000 1.0
C      1  0.5658470000000  0.4634470000000  0.5670460000000 1.0
C      1  0.5018910000000  0.4467680000000  0.6095860000000 1.0
C      1  0.6079770000000  0.5484340000000  0.5025220000000 1.0
C      1  0.6035470000000  0.5446940000000  0.5294660000000 1.0
C      1  0.4319790000000  0.5238630000000  0.5359500000000 1.0
C      1  0.4525120000000  0.5245010000000  0.4754490000000 1.0
C      1  0.4710340000000  0.4853560000000  0.6143400000000 1.0
C      1  0.4832110000000  0.4454600000000  0.5517360000000 1.0
C      1  0.5082770000000  0.4873440000000  0.3917640000000 1.0
C      1  0.5263470000000  0.4597820000000  0.6024510000000 1.0
C      1  0.5307610000000  0.5046330000000  0.4006090000000 1.0
C      1  0.5257570000000  0.5221350000000  0.5732740000000 1.0
C      1  0.6155360000000  0.4925820000000  0.5076550000000 1.0
C      1  0.4312960000000  0.4315330000000  0.4275010000000 1.0
C      1  0.4779170000000  0.5198200000000  0.5572140000000 1.0
C      1  0.5733320000000  0.4475290000000  0.5007870000000 1.0
C      1  0.5557600000000  0.4309610000000  0.4228720000000 1.0
C      1  0.5455780000000  0.4876480000000  0.5154850000000 1.0
C      1  0.4950870000000  0.6080020000000  0.4657040000000 1.0
C      1  0.4228430000000  0.4612810000000  0.4943190000000 1.0
C      1  0.4246790000000  0.4467700000000  0.4525380000000 1.0
C      1  0.5347260000000  0.5233700000000  0.4535430000000 1.0
C      1  0.5098440000000  0.4582100000000  0.4044790000000 1.0
C      1  0.5491280000000  0.5201180000000  0.4777870000000 1.0
C      1  0.4683510000000  0.3972550000000  0.5690770000000 1.0
C      1  0.4606350000000  0.5588350000000  0.5263420000000 1.0
C      1  0.5813700000000  0.4343460000000  0.4364190000000 1.0
C      1  0.4492410000000  0.4140030000000  0.5836360000000 1.0
C      1  0.4826130000000  0.4400840000000  0.4458610000000 1.0
C      1  0.5863830000000  0.5421130000000  0.5805680000000 1.0
C      1  0.4272300000000  0.5113350000000  0.5922470000000 1.0
C      1  0.4417570000000  0.4509910000000  0.4748390000000 1.0
C      1  0.4723810000000  0.5697210000000  0.5827540000000 1.0
C      1  0.4824620000000  0.5013880000000  0.3828680000000 1.0
C      1  0.4952050000000  0.3900290000000  0.5236210000000 1.0
C      1  0.5418820000000  0.4745870000000  0.4394020000000 1.0
C      1  0.4080830000000  0.4005370000000  0.4886330000000 1.0
C      1  0.4747290000000  0.4559760000000  0.6098160000000 1.0
C      1  0.5946850000000  0.4131990000000  0.5241410000000 1.0
C      1  0.5835210000000  0.4393730000000  0.5266210000000 1.0
C      1  0.4445750000000  0.4977500000000  0.5278920000000 1.0
C      1  0.5234960000000  0.4861530000000  0.6156180000000 1.0
C      1  0.4669540000000  0.6093620000000  0.4666010000000 1.0
C      1  0.5331050000000  0.4967850000000  0.5644260000000 1.0
C      1  0.6088230000000  0.5299760000000  0.4538880000000 1.0
C      1  0.3972680000000  0.4819910000000  0.5591030000000 1.0
C      1  0.4199530000000  0.4102010000000  0.5114370000000 1.0
C      1  0.4408140000000  0.5714620000000  0.4264520000000 1.0
C      1  0.5924430000000  0.4421150000000  0.4805410000000 1.0
C      1  0.5931060000000  0.5758130000000  0.4625780000000 1.0
C      1  0.6090590000000  0.4580410000000  0.4645410000000 1.0
C      1  0.4869580000000  0.5309010000000  0.4343370000000 1.0
C      1  0.4874830000000  0.5389310000000  0.4073020000000 1.0
C      1  0.5037340000000  0.4656400000000  0.5032960000000 1.0
C      1  0.5435560000000  0.5755510000000  0.5851920000000 1.0
C      1  0.3962840000000  0.4533630000000  0.4869660000000 1.0
C      1  0.3755870000000  0.5301900000000  0.5018330000000 1.0
C      1  0.5444780000000  0.5048330000000  0.4301920000000 1.0
C      1  0.5156530000000  0.4797050000000  0.5501940000000 1.0
C      1  0.4272860000000  0.5625430000000  0.4478770000000 1.0
C      1  0.4858210000000  0.5047860000000  0.4428300000000 1.0
C      1  0.4853120000000  0.3872320000000  0.4608960000000 1.0
C      1  0.3722950000000  0.5066020000000  0.5157270000000 1.0
C      1  0.4720890000000  0.4923020000000  0.5629290000000 1.0
C      1  0.5035400000000  0.4253840000000  0.5560230000000 1.0
C      1  0.5055260000000  0.5587250000000  0.3978430000000 1.0
C      1  0.5725910000000  0.5117390000000  0.5460240000000 1.0
C      1  0.4977690000000  0.4327540000000  0.3922790000000 1.0
C      1  0.5697650000000  0.5824500000000  0.5164890000000 1.0
C      1  0.6051100000000  0.5514240000000  0.4736150000000 1.0
C      1  0.4555190000000  0.3865800000000  0.4954410000000 1.0
C      1  0.5780050000000  0.3968290000000  0.4812860000000 1.0
C      1  0.4843970000000  0.4453540000000  0.4980650000000 1.0
C      1  0.3814040000000  0.5033980000000  0.4280270000000 1.0
C      1  0.6119620000000  0.4680140000000  0.5510030000000 1.0
C      1  0.4503330000000  0.4861670000000  0.4145630000000 1.0
C      1  0.6009670000000  0.4857360000000  0.4271450000000 1.0
C      1  0.5056760000000  0.5797820000000  0.4173030000000 1.0
C      1  0.4720390000000  0.5597680000000  0.5002440000000 1.0
C      1  0.4276390000000  0.4815550000000  0.5114430000000 1.0
C      1  0.4153010000000  0.4056280000000  0.4357080000000 1.0
C      1  0.4257020000000  0.5211020000000  0.4732190000000 1.0
C      1  0.4682900000000  0.5483270000000  0.4747560000000 1.0
C      1  0.4562400000000  0.5386540000000  0.5481250000000 1.0
C      1  0.5430000000000  0.4484820000000  0.5795140000000 1.0
C      1  0.4081040000000  0.5048660000000  0.4220700000000 1.0
C      1  0.4193360000000  0.4524710000000  0.4078150000000 1.0
C      1  0.4892840000000  0.4624220000000  0.4271400000000 1.0
C      1  0.6230020000000  0.4828280000000  0.5314270000000 1.0
C      1  0.5361110000000  0.5512040000000  0.4435200000000 1.0
C      1  0.4455900000000  0.4859060000000  0.5557060000000 1.0
C      1  0.5293300000000  0.5275910000000  0.6010150000000 1.0
C      1  0.4266600000000  0.5456720000000  0.5837350000000 1.0
C      1  0.4584660000000  0.4374450000000  0.5386950000000 1.0
C      1  0.4618300000000  0.4262690000000  0.4259260000000 1.0
C      1  0.5872610000000  0.4540560000000  0.5505320000000 1.0
C      1  0.4467030000000  0.5008830000000  0.6110540000000 1.0
C      1  0.4907150000000  0.6161110000000  0.5225310000000 1.0
C      1  0.5838980000000  0.4194140000000  0.4636510000000 1.0
C      1  0.5025920000000  0.5316010000000  0.5618720000000 1.0
C      1  0.5628250000000  0.5515250000000  0.4315040000000 1.0
C      1  0.5988940000000  0.4594250000000  0.4373580000000 1.0
C      1  0.5962550000000  0.5132620000000  0.4334890000000 1.0
C      1  0.4039900000000  0.5241810000000  0.5413330000000 1.0
C      1  0.4220590000000  0.4914450000000  0.5714760000000 1.0
C      1  0.4613430000000  0.6062750000000  0.5142250000000 1.0
C      1  0.5461670000000  0.4444620000000  0.4916750000000 1.0
C      1  0.5095850000000  0.4783550000000  0.4781610000000 1.0
C      1  0.5439010000000  0.5068470000000  0.6148660000000 1.0
C      1  0.4648810000000  0.4027800000000  0.4743240000000 1.0
C      1  0.5867640000000  0.5909750000000  0.4165890000000 1.0
C      1  0.4380280000000  0.4239110000000  0.5266770000000 1.0
C      1  0.5643170000000  0.5860360000000  0.5434430000000 1.0
C      1  0.5417840000000  0.4076710000000  0.4321980000000 1.0
C      1  0.4114180000000  0.5721170000000  0.5048020000000 1.0
C      1  0.5809070000000  0.5730660000000  0.4364680000000 1.0
C      1  0.5407790000000  0.5837400000000  0.5583220000000 1.0
C      1  0.4012150000000  0.4093360000000  0.4621620000000 1.0
C      1  0.4883130000000  0.5517590000000  0.4535990000000 1.0
C      1  0.5569380000000  0.3898120000000  0.5305580000000 1.0
C      1  0.5687350000000  0.5629600000000  0.5892330000000 1.0
C      1  0.4228730000000  0.4812870000000  0.4128730000000 1.0
C      1  0.4676250000000  0.4352340000000  0.4742910000000 1.0
C      1  0.4506220000000  0.5864370000000  0.5364400000000 1.0
C      1  0.5709420000000  0.5231100000000  0.4245740000000 1.0
C      1  0.4834460000000  0.5969250000000  0.4147790000000 1.0
C      1  0.5245850000000  0.6451850000000  0.4399700000000 1.0
C      1  0.5192170000000  0.5747000000000  0.6001630000000 1.0
C      1  0.4957970000000  0.5007920000000  0.6170100000000 1.0
C      1  0.5387120000000  0.4544090000000  0.4175080000000 1.0
C      1  0.5219570000000  0.4744200000000  0.5233370000000 1.0
C      1  0.5240560000000  0.4096450000000  0.4539710000000 1.0
C      1  0.5120420000000  0.4354440000000  0.4553290000000 1.0
C      1  0.4420340000000  0.5366410000000  0.4063270000000 1.0
C      1  0.4715230000000  0.5906680000000  0.5611610000000 1.0
END
