TITL C-599892-9790-606 -0.0362423653970434 125000 -340.827340496471 0 0 57 (C1) n - 1
REM
REM in /home/nfs/bkarasulu/CARBON/AIRSS/Generating-Clusters/TERSOFF/Only-C1/FIRE-HFTN
REM
REM
REM
REM
REM
REM ./C.cell (11c1c37f851c82e70ff6c80c92926a4b)
REM AIRSS Version 0.9.1 bugfix July 2018 build 013d7b7c2542+ Fri, 06 Jul 2018 19:26:36 +0100
REM compiler GCC version 9.2.1 20190827 (Red Hat 9.2.1-1)
REM options -cpp -mtune=generic -march=x86-64 -g -O0 -fpre-include=/usr/include/finclude/math-vector-fortran.h
REM seed -976950543 -2033990368 -1040357079 1221765927 1057632503 1577987683 363357452 -1831562710 780293109 -1449481807 -1570254815 1163305958 1579478707 853156564 -132603759 -1846948153 -560956248 -591159253 859100766 -1176478903 1677905094 -13338136 -1009945497 -1013262650 -991812501 225918120 -175595596 1998636394 1635004445 -1093221235 399379198 1489585571 1239692434
REM
CELL 1.54180   50.00000   50.00000   50.00000   90.00000   90.00000   90.00000
LATT -1
SFAC C  
C      1  0.5561820000000  0.4851180000000  0.5022160000000 1.0
C      1  0.4452670000000  0.5018780000000  0.4532810000000 1.0
C      1  0.4740450000000  0.5288580000000  0.5188720000000 1.0
C      1  0.4691790000000  0.5238730000000  0.5473100000000 1.0
C      1  0.5706690000000  0.5567660000000  0.4712820000000 1.0
C      1  0.4998390000000  0.5774260000000  0.5493600000000 1.0
C      1  0.5789450000000  0.5494470000000  0.4972280000000 1.0
C      1  0.3918020000000  0.4775930000000  0.5255070000000 1.0
C      1  0.4716760000000  0.5441660000000  0.4708750000000 1.0
C      1  0.4232320000000  0.4944450000000  0.4387820000000 1.0
C      1  0.5052490000000  0.4501720000000  0.5432000000000 1.0
C      1  0.5295480000000  0.4365750000000  0.4737860000000 1.0
C      1  0.4601990000000  0.4673000000000  0.5001230000000 1.0
C      1  0.5648100000000  0.5616520000000  0.5183160000000 1.0
C      1  0.5076070000000  0.5529060000000  0.5629090000000 1.0
C      1  0.4580910000000  0.4992150000000  0.5554100000000 1.0
C      1  0.4595840000000  0.5296150000000  0.4929180000000 1.0
C      1  0.5551740000000  0.4791970000000  0.4733660000000 1.0
C      1  0.4655700000000  0.4739470000000  0.5604700000000 1.0
C      1  0.5676460000000  0.5068510000000  0.5444590000000 1.0
C      1  0.4785360000000  0.5328350000000  0.4466500000000 1.0
C      1  0.4382380000000  0.4852250000000  0.4986660000000 1.0
C      1  0.5308980000000  0.4821080000000  0.5158960000000 1.0
C      1  0.5237100000000  0.4553300000000  0.5226610000000 1.0
C      1  0.4774130000000  0.4606680000000  0.4556090000000 1.0
C      1  0.4743750000000  0.4337520000000  0.4494550000000 1.0
C      1  0.5168180000000  0.4158270000000  0.4598290000000 1.0
C      1  0.5114890000000  0.5014050000000  0.5082110000000 1.0
C      1  0.5358380000000  0.4613020000000  0.4604920000000 1.0
C      1  0.4893900000000  0.5949870000000  0.5036730000000 1.0
C      1  0.5149200000000  0.5118080000000  0.4637530000000 1.0
C      1  0.5740940000000  0.5023000000000  0.5167560000000 1.0
C      1  0.3702990000000  0.4739460000000  0.5397870000000 1.0
C      1  0.5511440000000  0.5211620000000  0.5607520000000 1.0
C      1  0.4776450000000  0.5326930000000  0.5947270000000 1.0
C      1  0.4833720000000  0.3869880000000  0.4393370000000 1.0
C      1  0.5605250000000  0.5014480000000  0.4567060000000 1.0
C      1  0.4139150000000  0.4813020000000  0.5114000000000 1.0
C      1  0.4911880000000  0.4111560000000  0.4491210000000 1.0
C      1  0.5403010000000  0.5539960000000  0.5288840000000 1.0
C      1  0.5503910000000  0.5476330000000  0.4559780000000 1.0
C      1  0.5179910000000  0.4726710000000  0.4392580000000 1.0
C      1  0.5003220000000  0.5769290000000  0.5206350000000 1.0
C      1  0.5027410000000  0.5279070000000  0.5141980000000 1.0
C      1  0.5291480000000  0.4366240000000  0.5021200000000 1.0
C      1  0.4773910000000  0.4538840000000  0.5447760000000 1.0
C      1  0.4719520000000  0.5053070000000  0.4403030000000 1.0
C      1  0.4437750000000  0.5075960000000  0.4821140000000 1.0
C      1  0.4809840000000  0.4725380000000  0.4814680000000 1.0
C      1  0.5159890000000  0.5534540000000  0.5138850000000 1.0
C      1  0.4634430000000  0.4488270000000  0.5207800000000 1.0
C      1  0.5006820000000  0.4943500000000  0.4825700000000 1.0
C      1  0.5403350000000  0.5214660000000  0.4552330000000 1.0
C      1  0.4891740000000  0.4806960000000  0.4377850000000 1.0
C      1  0.4850360000000  0.5363320000000  0.5685000000000 1.0
C      1  0.5876980000000  0.5230930000000  0.5030730000000 1.0
C      1  0.5345260000000  0.5434530000000  0.5552900000000 1.0
END
