TITL C-599896-8500-579 6.76203035621693 125000 -998.890843208078 0 0 161 (C1) n - 1
REM
REM in /home/nfs/bkarasulu/CARBON/AIRSS/Generating-Clusters/TERSOFF/Only-C1/FIRE-HFTN
REM
REM
REM
REM
REM
REM ./C.cell (11c1c37f851c82e70ff6c80c92926a4b)
REM AIRSS Version 0.9.1 bugfix July 2018 build 013d7b7c2542+ Fri, 06 Jul 2018 19:26:36 +0100
REM compiler GCC version 9.2.1 20190827 (Red Hat 9.2.1-1)
REM options -cpp -mtune=generic -march=x86-64 -g -O0 -fpre-include=/usr/include/finclude/math-vector-fortran.h
REM seed 1712740277 120101470 -1016622387 -1740951268 -1519770141 -1187118844 -2030760575 -871274281 904367955 1389625474 -228184490 20719270 1617663803 -794855159 -729621953 147255121 1290177103 -1466293875 -651954409 1187136759 -2089078555 -280966725 -1644623196 -788552513 -470679972 1167743939 -158714805 -198540217 1158232912 -1405348285 -100994181 363085886 -96322444
REM
CELL 1.54180   50.00000   50.00000   50.00000   90.00000   90.00000   90.00000
LATT -1
SFAC C  
C      1  0.4776990000000  0.5359400000000  0.6150920000000 1.0
C      1  0.4519890000000  0.5685530000000  0.5343290000000 1.0
C      1  0.6035300000000  0.4732410000000  0.4838350000000 1.0
C      1  0.4667570000000  0.4150810000000  0.5010600000000 1.0
C      1  0.4945740000000  0.4059100000000  0.4643710000000 1.0
C      1  0.4708960000000  0.4809050000000  0.5991830000000 1.0
C      1  0.4888990000000  0.4549200000000  0.6736440000000 1.0
C      1  0.5920280000000  0.5078910000000  0.4553590000000 1.0
C      1  0.4565270000000  0.4178000000000  0.3910230000000 1.0
C      1  0.6310420000000  0.5170100000000  0.5057950000000 1.0
C      1  0.4765710000000  0.5608630000000  0.4954170000000 1.0
C      1  0.3787740000000  0.5363170000000  0.4752830000000 1.0
C      1  0.4917690000000  0.4001290000000  0.4940940000000 1.0
C      1  0.5492820000000  0.4570250000000  0.4161120000000 1.0
C      1  0.5087010000000  0.4311060000000  0.5504660000000 1.0
C      1  0.3819340000000  0.5249650000000  0.5028830000000 1.0
C      1  0.4356940000000  0.4152550000000  0.4439530000000 1.0
C      1  0.5678160000000  0.5096790000000  0.4965510000000 1.0
C      1  0.4242600000000  0.4153330000000  0.4708360000000 1.0
C      1  0.5026900000000  0.5490880000000  0.5055900000000 1.0
C      1  0.4877020000000  0.4309790000000  0.4509910000000 1.0
C      1  0.4177340000000  0.5128600000000  0.4593510000000 1.0
C      1  0.5072650000000  0.4802800000000  0.5040880000000 1.0
C      1  0.4236580000000  0.5744120000000  0.4860680000000 1.0
C      1  0.5262670000000  0.4130080000000  0.5354340000000 1.0
C      1  0.4335260000000  0.5763460000000  0.5555320000000 1.0
C      1  0.5626960000000  0.5733760000000  0.5409280000000 1.0
C      1  0.4719880000000  0.4475840000000  0.4685860000000 1.0
C      1  0.5950750000000  0.4619970000000  0.5520650000000 1.0
C      1  0.5011380000000  0.6065950000000  0.5467850000000 1.0
C      1  0.5909720000000  0.5094850000000  0.5403120000000 1.0
C      1  0.3867050000000  0.4396050000000  0.4509220000000 1.0
C      1  0.5571550000000  0.4209960000000  0.4477480000000 1.0
C      1  0.6216370000000  0.5391780000000  0.4930740000000 1.0
C      1  0.4018310000000  0.4473560000000  0.4297060000000 1.0
C      1  0.5370190000000  0.6062970000000  0.4364750000000 1.0
C      1  0.4896810000000  0.5494390000000  0.3642200000000 1.0
C      1  0.5502960000000  0.4728590000000  0.5333650000000 1.0
C      1  0.3965110000000  0.4228700000000  0.4700150000000 1.0
C      1  0.6053950000000  0.5570080000000  0.4805740000000 1.0
C      1  0.5710280000000  0.5924050000000  0.4892900000000 1.0
C      1  0.4430620000000  0.4842920000000  0.5904570000000 1.0
C      1  0.5610270000000  0.4425980000000  0.4913370000000 1.0
C      1  0.5691620000000  0.5078090000000  0.4398820000000 1.0
C      1  0.5958060000000  0.4498380000000  0.4410480000000 1.0
C      1  0.5584750000000  0.5337850000000  0.4052960000000 1.0
C      1  0.4476080000000  0.4666180000000  0.3880510000000 1.0
C      1  0.4428630000000  0.4411310000000  0.4000030000000 1.0
C      1  0.4552710000000  0.4883870000000  0.4880300000000 1.0
C      1  0.4819650000000  0.5537200000000  0.4476800000000 1.0
C      1  0.5247500000000  0.5072450000000  0.6167880000000 1.0
C      1  0.5283710000000  0.4847550000000  0.5468190000000 1.0
C      1  0.4290640000000  0.5134580000000  0.4335880000000 1.0
C      1  0.4873820000000  0.5309460000000  0.5549830000000 1.0
C      1  0.4371250000000  0.4185780000000  0.4970050000000 1.0
C      1  0.5448330000000  0.5880850000000  0.5561940000000 1.0
C      1  0.4676070000000  0.4830460000000  0.4403010000000 1.0
C      1  0.5247950000000  0.4393060000000  0.4187480000000 1.0
C      1  0.4937460000000  0.4861380000000  0.5820830000000 1.0
C      1  0.5402670000000  0.4003030000000  0.4903330000000 1.0
C      1  0.5089900000000  0.5397810000000  0.5345080000000 1.0
C      1  0.6087140000000  0.4560740000000  0.4637350000000 1.0
C      1  0.5717800000000  0.5546540000000  0.4212430000000 1.0
C      1  0.4461790000000  0.4804060000000  0.5131760000000 1.0
C      1  0.5969480000000  0.5172290000000  0.5665220000000 1.0
C      1  0.4602680000000  0.4725900000000  0.4651950000000 1.0
C      1  0.5695350000000  0.4439550000000  0.4336440000000 1.0
C      1  0.5035300000000  0.4392690000000  0.7216570000000 1.0
C      1  0.5159610000000  0.4726370000000  0.5702850000000 1.0
C      1  0.5517700000000  0.4402150000000  0.5693920000000 1.0
C      1  0.4753830000000  0.4713070000000  0.6251220000000 1.0
C      1  0.5170040000000  0.5911470000000  0.5643550000000 1.0
C      1  0.5454700000000  0.5172080000000  0.4531810000000 1.0
C      1  0.5353770000000  0.4147050000000  0.4301440000000 1.0
C      1  0.5668230000000  0.4859070000000  0.5914400000000 1.0
C      1  0.4502520000000  0.3940940000000  0.4318120000000 1.0
C      1  0.4960870000000  0.5976480000000  0.5203500000000 1.0
C      1  0.5548940000000  0.4198200000000  0.4760220000000 1.0
C      1  0.5136980000000  0.5160160000000  0.3906520000000 1.0
C      1  0.4943540000000  0.4554440000000  0.5103430000000 1.0
C      1  0.4466320000000  0.5382030000000  0.5325600000000 1.0
C      1  0.5208300000000  0.4900300000000  0.4813550000000 1.0
C      1  0.4526180000000  0.4930120000000  0.3967380000000 1.0
C      1  0.5481950000000  0.6029890000000  0.5005440000000 1.0
C      1  0.5248300000000  0.5299550000000  0.4369990000000 1.0
C      1  0.4379760000000  0.5716840000000  0.4614830000000 1.0
C      1  0.5588810000000  0.5457080000000  0.5326730000000 1.0
C      1  0.4614740000000  0.4881840000000  0.5363930000000 1.0
C      1  0.4015450000000  0.5409620000000  0.5174850000000 1.0
C      1  0.3826960000000  0.4983750000000  0.5140940000000 1.0
C      1  0.4649690000000  0.5171980000000  0.5403280000000 1.0
C      1  0.4498400000000  0.5657880000000  0.3834280000000 1.0
C      1  0.4962750000000  0.4470290000000  0.6978500000000 1.0
C      1  0.4681690000000  0.4618390000000  0.5485470000000 1.0
C      1  0.4715600000000  0.5803590000000  0.5165650000000 1.0
C      1  0.5265990000000  0.4907260000000  0.3872780000000 1.0
C      1  0.5231520000000  0.4453840000000  0.5713490000000 1.0
C      1  0.5192180000000  0.5516930000000  0.5929840000000 1.0
C      1  0.5536220000000  0.4186610000000  0.5481160000000 1.0
C      1  0.4739730000000  0.5940870000000  0.3515150000000 1.0
C      1  0.5027960000000  0.5713340000000  0.5798570000000 1.0
C      1  0.5402280000000  0.5423650000000  0.5765960000000 1.0
C      1  0.5442630000000  0.4892020000000  0.6095840000000 1.0
C      1  0.3922500000000  0.5505760000000  0.4548150000000 1.0
C      1  0.5692230000000  0.5702120000000  0.4457600000000 1.0
C      1  0.5181930000000  0.4018880000000  0.5088530000000 1.0
C      1  0.4785400000000  0.5559540000000  0.5723440000000 1.0
C      1  0.5118580000000  0.4844910000000  0.4554390000000 1.0
C      1  0.4344270000000  0.5357590000000  0.5860170000000 1.0
C      1  0.5902340000000  0.4979910000000  0.4818270000000 1.0
C      1  0.5092380000000  0.5495410000000  0.4487860000000 1.0
C      1  0.4903180000000  0.4481650000000  0.5375010000000 1.0
C      1  0.5839040000000  0.5733120000000  0.4711370000000 1.0
C      1  0.4653380000000  0.5634810000000  0.4680180000000 1.0
C      1  0.4482800000000  0.4473500000000  0.5626300000000 1.0
C      1  0.4603380000000  0.5458180000000  0.5940150000000 1.0
C      1  0.5586230000000  0.4592370000000  0.5119280000000 1.0
C      1  0.6277910000000  0.4936820000000  0.5200260000000 1.0
C      1  0.5052410000000  0.5279360000000  0.6051200000000 1.0
C      1  0.4816360000000  0.4628620000000  0.6494300000000 1.0
C      1  0.5114490000000  0.4955750000000  0.5273120000000 1.0
C      1  0.5497040000000  0.4826390000000  0.4027250000000 1.0
C      1  0.4999680000000  0.4470420000000  0.4300690000000 1.0
C      1  0.5804040000000  0.4157230000000  0.5390910000000 1.0
C      1  0.5213080000000  0.5929950000000  0.5045910000000 1.0
C      1  0.4030800000000  0.4865370000000  0.5315480000000 1.0
C      1  0.4195220000000  0.5532510000000  0.5671020000000 1.0
C      1  0.4454690000000  0.5419070000000  0.3980030000000 1.0
C      1  0.4190700000000  0.5489990000000  0.4967950000000 1.0
C      1  0.5245760000000  0.5676650000000  0.4638910000000 1.0
C      1  0.4889870000000  0.5255050000000  0.3797460000000 1.0
C      1  0.5352900000000  0.5392240000000  0.5477640000000 1.0
C      1  0.4299100000000  0.5399690000000  0.4222380000000 1.0
C      1  0.4548990000000  0.5161510000000  0.4857240000000 1.0
C      1  0.5292090000000  0.5322370000000  0.4086390000000 1.0
C      1  0.4483720000000  0.4952170000000  0.4247640000000 1.0
C      1  0.4291420000000  0.5070820000000  0.5794150000000 1.0
C      1  0.4968470000000  0.5136230000000  0.5782200000000 1.0
C      1  0.4763370000000  0.4415270000000  0.4949210000000 1.0
C      1  0.4598580000000  0.3956290000000  0.4064120000000 1.0
C      1  0.5625410000000  0.5339720000000  0.5910200000000 1.0
C      1  0.5432340000000  0.5825990000000  0.4485070000000 1.0
C      1  0.5209980000000  0.5670690000000  0.4918990000000 1.0
C      1  0.5725440000000  0.4625730000000  0.5731810000000 1.0
C      1  0.5790670000000  0.5118420000000  0.5869330000000 1.0
C      1  0.5660220000000  0.5054700000000  0.4117200000000 1.0
C      1  0.4331950000000  0.4590450000000  0.5817770000000 1.0
C      1  0.4137070000000  0.5051270000000  0.5528860000000 1.0
C      1  0.4713000000000  0.5709970000000  0.3656270000000 1.0
C      1  0.5991690000000  0.4353360000000  0.5418970000000 1.0
C      1  0.6053330000000  0.4847440000000  0.5360610000000 1.0
C      1  0.4295690000000  0.5269730000000  0.4811750000000 1.0
C      1  0.4191580000000  0.5587630000000  0.4420410000000 1.0
C      1  0.4166790000000  0.5342490000000  0.5423460000000 1.0
C      1  0.4216240000000  0.4672150000000  0.5192100000000 1.0
C      1  0.4947490000000  0.4749920000000  0.4353850000000 1.0
C      1  0.5730230000000  0.5228540000000  0.5220860000000 1.0
C      1  0.4275940000000  0.4365530000000  0.4245050000000 1.0
C      1  0.5431110000000  0.5082850000000  0.4809020000000 1.0
C      1  0.4620500000000  0.5188340000000  0.3885490000000 1.0
C      1  0.4232460000000  0.4388950000000  0.5135490000000 1.0
END
