TITL C-599893-4344-1153 0.412459350772009 125000 -337.017373781067 0 0 57 (C1) n - 1
REM
REM in /home/nfs/bkarasulu/CARBON/AIRSS/Generating-Clusters/TERSOFF/Only-C1/FIRE-HFTN
REM
REM
REM
REM
REM
REM ./C.cell (11c1c37f851c82e70ff6c80c92926a4b)
REM AIRSS Version 0.9.1 bugfix July 2018 build 013d7b7c2542+ Fri, 06 Jul 2018 19:26:36 +0100
REM compiler GCC version 9.2.1 20190827 (Red Hat 9.2.1-1)
REM options -cpp -mtune=generic -march=x86-64 -g -O0 -fpre-include=/usr/include/finclude/math-vector-fortran.h
REM seed 1633310093 351120840 -1625646810 1250081856 -1210339909 -1975992303 319815015 -728958806 -347000805 -2112846175 -1066974659 798124529 166711896 -995320281 -805711297 -770041178 1696557050 1577959663 -647971385 -1796322860 191239441 -636927942 1286237359 664061614 -329413194 -1093176231 -1772036004 -646008745 979248677 613814638 -148519859 -928753931 1919858242
REM
CELL 1.54180   50.00000   50.00000   50.00000   90.00000   90.00000   90.00000
LATT -1
SFAC C  
C      1  0.5237610000000  0.4658890000000  0.4743300000000 1.0
C      1  0.5912750000000  0.5119540000000  0.4821460000000 1.0
C      1  0.4456930000000  0.5091480000000  0.4094320000000 1.0
C      1  0.5717720000000  0.5298820000000  0.4888940000000 1.0
C      1  0.4635540000000  0.5248450000000  0.5549060000000 1.0
C      1  0.4272770000000  0.5059670000000  0.4949110000000 1.0
C      1  0.5488090000000  0.5329950000000  0.4727350000000 1.0
C      1  0.5262470000000  0.5176190000000  0.5486800000000 1.0
C      1  0.5737270000000  0.3554580000000  0.4880540000000 1.0
C      1  0.4827400000000  0.5426220000000  0.4241410000000 1.0
C      1  0.4139570000000  0.5162240000000  0.4719040000000 1.0
C      1  0.4926900000000  0.4514950000000  0.5338510000000 1.0
C      1  0.5250480000000  0.4109910000000  0.5174870000000 1.0
C      1  0.5960580000000  0.6178060000000  0.5743930000000 1.0
C      1  0.4649320000000  0.5362100000000  0.5092440000000 1.0
C      1  0.5218740000000  0.4913440000000  0.4873870000000 1.0
C      1  0.4106070000000  0.5441800000000  0.4696550000000 1.0
C      1  0.3981570000000  0.4396120000000  0.4897360000000 1.0
C      1  0.4697540000000  0.5250990000000  0.5817800000000 1.0
C      1  0.4282550000000  0.5639800000000  0.4651900000000 1.0
C      1  0.5283640000000  0.5131430000000  0.4697640000000 1.0
C      1  0.5753640000000  0.5762820000000  0.5496820000000 1.0
C      1  0.4852920000000  0.5219480000000  0.6318810000000 1.0
C      1  0.4616620000000  0.4724640000000  0.5025950000000 1.0
C      1  0.4866420000000  0.4721370000000  0.5152930000000 1.0
C      1  0.4387850000000  0.5233130000000  0.5139870000000 1.0
C      1  0.5740370000000  0.5455830000000  0.5118890000000 1.0
C      1  0.4666870000000  0.5256040000000  0.4087060000000 1.0
C      1  0.4772080000000  0.5238950000000  0.6071730000000 1.0
C      1  0.5857950000000  0.5972120000000  0.5621370000000 1.0
C      1  0.4687960000000  0.5542340000000  0.4884440000000 1.0
C      1  0.4349010000000  0.4784890000000  0.4966250000000 1.0
C      1  0.4257380000000  0.4995970000000  0.4243550000000 1.0
C      1  0.5292040000000  0.5562750000000  0.4341910000000 1.0
C      1  0.5159730000000  0.5116150000000  0.4430970000000 1.0
C      1  0.5095430000000  0.5362520000000  0.4302850000000 1.0
C      1  0.4814880000000  0.5292850000000  0.5321040000000 1.0
C      1  0.4376780000000  0.5206630000000  0.5427340000000 1.0
C      1  0.5467070000000  0.5549520000000  0.4548330000000 1.0
C      1  0.5574920000000  0.3739370000000  0.4979120000000 1.0
C      1  0.4160760000000  0.4581800000000  0.4933810000000 1.0
C      1  0.6059370000000  0.3187950000000  0.4684940000000 1.0
C      1  0.5432090000000  0.5397590000000  0.5475280000000 1.0
C      1  0.4564590000000  0.5635210000000  0.4648850000000 1.0
C      1  0.5134580000000  0.4854070000000  0.4326520000000 1.0
C      1  0.5056090000000  0.5146960000000  0.5294170000000 1.0
C      1  0.4133810000000  0.5015120000000  0.4479560000000 1.0
C      1  0.5090460000000  0.4301960000000  0.5262390000000 1.0
C      1  0.5058020000000  0.4930780000000  0.5107350000000 1.0
C      1  0.5899660000000  0.3369750000000  0.4781930000000 1.0
C      1  0.4701030000000  0.5617100000000  0.4405300000000 1.0
C      1  0.5412580000000  0.3924180000000  0.5077680000000 1.0
C      1  0.5644110000000  0.5542830000000  0.5366130000000 1.0
C      1  0.5182890000000  0.4633220000000  0.4477790000000 1.0
C      1  0.4820620000000  0.4525970000000  0.5596600000000 1.0
C      1  0.4716750000000  0.4546530000000  0.5834710000000 1.0
C      1  0.5297160000000  0.4986980000000  0.5681580000000 1.0
END
