TITL C-599890-3321-882 15986.4245090533 125000 -1175.88238627505 0 0 192 (C1) n - 1
REM
REM in /home/nfs/bkarasulu/CARBON/AIRSS/Generating-Clusters/TERSOFF/Only-C1/FIRE-HFTN
REM
REM
REM
REM
REM
REM ./C.cell (11c1c37f851c82e70ff6c80c92926a4b)
REM AIRSS Version 0.9.1 bugfix July 2018 build 013d7b7c2542+ Fri, 06 Jul 2018 19:26:36 +0100
REM compiler GCC version 9.2.1 20190827 (Red Hat 9.2.1-1)
REM options -cpp -mtune=generic -march=x86-64 -g -O0 -fpre-include=/usr/include/finclude/math-vector-fortran.h
REM seed -1227272346 178497663 1478112749 517024430 -1236867993 1739563474 -332531689 -1587280311 2137065514 -1924593194 1948672378 -463756075 1652711241 1311929410 91800717 -331891830 1276847878 1186157358 -2067607845 512544139 318673262 1822102150 -16193982 693023319 -60224842 1998330376 890891846 1525617112 953024868 878197376 1656373341 683869655 535475169
REM
CELL 1.54180   50.00000   50.00000   50.00000   90.00000   90.00000   90.00000
LATT -1
SFAC C  
C      1  0.6085640000000  0.4896170000000  0.4216460000000 1.0
C      1  0.4688720000000  0.4420220000000  0.4093850000000 1.0
C      1  0.5482370000000  0.4234740000000  0.3961850000000 1.0
C      1  0.6184230000000  0.4976480000000  0.4952850000000 1.0
C      1  0.4910670000000  0.3841270000000  0.5098280000000 1.0
C      1  0.5033790000000  0.3868490000000  0.5595840000000 1.0
C      1  0.5243200000000  0.6084040000000  0.5465840000000 1.0
C      1  0.5712180000000  0.4535000000000  0.4265790000000 1.0
C      1  0.5547930000000  0.4021180000000  0.5536080000000 1.0
C      1  0.4275230000000  0.4827860000000  0.5789060000000 1.0
C      1  0.4705870000000  0.4697240000000  0.4695830000000 1.0
C      1  0.5285960000000  0.5636920000000  0.5889420000000 1.0
C      1  0.4786960000000  0.6148310000000  0.5173680000000 1.0
C      1  0.3881870000000  0.4195370000000  0.4110220000000 1.0
C      1  0.5129490000000  0.5008380000000  0.4705840000000 1.0
C      1  0.5293370000000  0.4548300000000  0.4789750000000 1.0
C      1  0.4679810000000  0.5382540000000  0.4333800000000 1.0
C      1  0.5726080000000  0.6069800000000  0.5004810000000 1.0
C      1  0.4991050000000  0.4354200000000  0.5335960000000 1.0
C      1  0.5113240000000  0.6297500000000  0.4146060000000 1.0
C      1  0.5508980000000  0.5005110000000  0.4399690000000 1.0
C      1  0.5149740000000  0.4660030000000  0.6182160000000 1.0
C      1  0.4961110000000  0.5688130000000  0.4589900000000 1.0
C      1  0.4664890000000  0.4505230000000  0.4901490000000 1.0
C      1  0.4846870000000  0.5173600000000  0.5660380000000 1.0
C      1  0.3678590000000  0.4983970000000  0.4320430000000 1.0
C      1  0.4907640000000  0.5560340000000  0.3736400000000 1.0
C      1  0.5302690000000  0.3875290000000  0.5560960000000 1.0
C      1  0.5294720000000  0.6194720000000  0.5203510000000 1.0
C      1  0.4403620000000  0.5465170000000  0.3868540000000 1.0
C      1  0.5434480000000  0.5675200000000  0.4638900000000 1.0
C      1  0.4875310000000  0.3923630000000  0.4521010000000 1.0
C      1  0.5654300000000  0.4450000000000  0.5057760000000 1.0
C      1  0.4233200000000  0.6306910000000  0.4674680000000 1.0
C      1  0.5201200000000  0.5279150000000  0.4757870000000 1.0
C      1  0.4109300000000  0.5026220000000  0.4819210000000 1.0
C      1  0.4242150000000  0.4201590000000  0.4726080000000 1.0
C      1  0.3306200000000  0.5248720000000  0.5278410000000 1.0
C      1  0.6038810000000  0.5059300000000  0.5679540000000 1.0
C      1  0.4053600000000  0.6151300000000  0.4792420000000 1.0
C      1  0.4364330000000  0.5304780000000  0.5826990000000 1.0
C      1  0.4350380000000  0.4687180000000  0.5556900000000 1.0
C      1  0.5585940000000  0.4931160000000  0.4915380000000 1.0
C      1  0.5484020000000  0.4923810000000  0.5410680000000 1.0
C      1  0.6407580000000  0.4656160000000  0.5254390000000 1.0
C      1  0.5980070000000  0.4567210000000  0.5715270000000 1.0
C      1  0.4861710000000  0.4110420000000  0.4709650000000 1.0
C      1  0.4869340000000  0.6082950000000  0.4921700000000 1.0
C      1  0.4881130000000  0.4285130000000  0.3922590000000 1.0
C      1  0.4571930000000  0.4014550000000  0.5383070000000 1.0
C      1  0.4164990000000  0.5092770000000  0.5738680000000 1.0
C      1  0.5020200000000  0.4088270000000  0.4084190000000 1.0
C      1  0.4850290000000  0.5621010000000  0.5283880000000 1.0
C      1  0.4716090000000  0.4223510000000  0.4918280000000 1.0
C      1  0.5376180000000  0.4855750000000  0.6149140000000 1.0
C      1  0.4655730000000  0.6415810000000  0.4381360000000 1.0
C      1  0.5721620000000  0.4030780000000  0.5298140000000 1.0
C      1  0.3965240000000  0.4839240000000  0.5319180000000 1.0
C      1  0.5566460000000  0.4247980000000  0.5719190000000 1.0
C      1  0.5444180000000  0.6093480000000  0.4975290000000 1.0
C      1  0.4219690000000  0.4603130000000  0.4996590000000 1.0
C      1  0.6314870000000  0.5884450000000  0.5275520000000 1.0
C      1  0.4877320000000  0.4931010000000  0.5243510000000 1.0
C      1  0.6308880000000  0.5253050000000  0.4575270000000 1.0
C      1  0.4951030000000  0.4813310000000  0.4601770000000 1.0
C      1  0.4875090000000  0.5377530000000  0.6138430000000 1.0
C      1  0.4723210000000  0.5536350000000  0.4563320000000 1.0
C      1  0.5802960000000  0.5247570000000  0.5273470000000 1.0
C      1  0.4461360000000  0.5165570000000  0.5307230000000 1.0
C      1  0.4090970000000  0.4188470000000  0.4265580000000 1.0
C      1  0.5661420000000  0.5500710000000  0.4701350000000 1.0
C      1  0.4479520000000  0.5562820000000  0.5924850000000 1.0
C      1  0.5679810000000  0.5432160000000  0.3828430000000 1.0
C      1  0.4486530000000  0.4596820000000  0.5096840000000 1.0
C      1  0.5610650000000  0.3965720000000  0.4789210000000 1.0
C      1  0.6071930000000  0.4535260000000  0.4585190000000 1.0
C      1  0.4121510000000  0.5748230000000  0.5514880000000 1.0
C      1  0.5131150000000  0.4383440000000  0.6062410000000 1.0
C      1  0.5522700000000  0.4710610000000  0.4399670000000 1.0
C      1  0.3971950000000  0.5080020000000  0.5511470000000 1.0
C      1  0.5086160000000  0.4803600000000  0.5104260000000 1.0
C      1  0.4676490000000  0.4118820000000  0.5847400000000 1.0
C      1  0.4609630000000  0.5170690000000  0.5768450000000 1.0
C      1  0.4042190000000  0.5287460000000  0.4213900000000 1.0
C      1  0.4766880000000  0.3968570000000  0.5608570000000 1.0
C      1  0.4710420000000  0.4716650000000  0.5988530000000 1.0
C      1  0.5299510000000  0.5131970000000  0.6071130000000 1.0
C      1  0.4883780000000  0.6378180000000  0.4251550000000 1.0
C      1  0.5338230000000  0.6197760000000  0.4060050000000 1.0
C      1  0.4776370000000  0.5598700000000  0.5975090000000 1.0
C      1  0.5407190000000  0.5665800000000  0.5331360000000 1.0
C      1  0.6203120000000  0.5017520000000  0.4668960000000 1.0
C      1  0.4066770000000  0.4841730000000  0.5036560000000 1.0
C      1  0.5429070000000  0.4938560000000  0.3925660000000 1.0
C      1  0.5686670000000  0.5383810000000  0.5773970000000 1.0
C      1  0.5028620000000  0.5933330000000  0.4738430000000 1.0
C      1  0.4201810000000  0.5383280000000  0.4022970000000 1.0
C      1  0.5004610000000  0.5755090000000  0.5843770000000 1.0
C      1  0.4392740000000  0.4184520000000  0.5768660000000 1.0
C      1  0.5418120000000  0.5355840000000  0.5922300000000 1.0
C      1  0.5603710000000  0.5470090000000  0.5159400000000 1.0
C      1  0.4820920000000  0.4609660000000  0.5740190000000 1.0
C      1  0.5056210000000  0.4747180000000  0.5674080000000 1.0
C      1  0.6260570000000  0.4708840000000  0.5030820000000 1.0
C      1  0.5436850000000  0.5525830000000  0.3769410000000 1.0
C      1  0.6065550000000  0.5177790000000  0.5122900000000 1.0
C      1  0.5740170000000  0.4673900000000  0.4908000000000 1.0
C      1  0.4379220000000  0.5673730000000  0.5423840000000 1.0
C      1  0.5748610000000  0.3898110000000  0.5039120000000 1.0
C      1  0.5034100000000  0.4638630000000  0.4379510000000 1.0
C      1  0.5644340000000  0.4160760000000  0.4565450000000 1.0
C      1  0.4504450000000  0.4847890000000  0.4537520000000 1.0
C      1  0.5620330000000  0.5153440000000  0.4641590000000 1.0
C      1  0.4882370000000  0.4226800000000  0.6024730000000 1.0
C      1  0.4769040000000  0.4477210000000  0.5485770000000 1.0
C      1  0.5289040000000  0.4832690000000  0.4888300000000 1.0
C      1  0.5882680000000  0.5840310000000  0.5061520000000 1.0
C      1  0.4573770000000  0.5164690000000  0.4870630000000 1.0
C      1  0.5643030000000  0.5006910000000  0.5198380000000 1.0
C      1  0.5257010000000  0.5092070000000  0.5431400000000 1.0
C      1  0.5001080000000  0.4983520000000  0.5516720000000 1.0
C      1  0.5292580000000  0.4611130000000  0.5696760000000 1.0
C      1  0.3830590000000  0.5684930000000  0.4864990000000 1.0
C      1  0.5325400000000  0.5930200000000  0.4767640000000 1.0
C      1  0.4640310000000  0.4890980000000  0.4276670000000 1.0
C      1  0.3543410000000  0.5285390000000  0.5390560000000 1.0
C      1  0.5432420000000  0.5882170000000  0.5510870000000 1.0
C      1  0.4913290000000  0.4840960000000  0.6152430000000 1.0
C      1  0.5720640000000  0.4491550000000  0.5647720000000 1.0
C      1  0.5944600000000  0.5762560000000  0.5559600000000 1.0
C      1  0.3910000000000  0.5577240000000  0.5525530000000 1.0
C      1  0.4644430000000  0.5775710000000  0.5424960000000 1.0
C      1  0.4320440000000  0.4199010000000  0.4434480000000 1.0
C      1  0.4756340000000  0.5563610000000  0.5028140000000 1.0
C      1  0.3488470000000  0.4811540000000  0.4254770000000 1.0
C      1  0.4796460000000  0.4654940000000  0.4206610000000 1.0
C      1  0.5186620000000  0.4236340000000  0.5153000000000 1.0
C      1  0.5839220000000  0.5233120000000  0.5581860000000 1.0
C      1  0.6122300000000  0.4808680000000  0.4482060000000 1.0
C      1  0.5194030000000  0.5516760000000  0.4600590000000 1.0
C      1  0.4801440000000  0.4006020000000  0.4266750000000 1.0
C      1  0.6046770000000  0.5829530000000  0.5300140000000 1.0
C      1  0.4115270000000  0.4274850000000  0.5295170000000 1.0
C      1  0.5064760000000  0.5140960000000  0.4172580000000 1.0
C      1  0.5503010000000  0.5799600000000  0.5768450000000 1.0
C      1  0.4378620000000  0.5029570000000  0.4714630000000 1.0
C      1  0.4764960000000  0.6032330000000  0.5438310000000 1.0
C      1  0.4321700000000  0.4144300000000  0.5476540000000 1.0
C      1  0.5126430000000  0.5553350000000  0.5327040000000 1.0
C      1  0.5189390000000  0.5288280000000  0.5242500000000 1.0
C      1  0.3829930000000  0.5425940000000  0.4807570000000 1.0
C      1  0.5338670000000  0.3885860000000  0.4845570000000 1.0
C      1  0.5379260000000  0.4230970000000  0.4422700000000 1.0
C      1  0.5851440000000  0.4373840000000  0.4471020000000 1.0
C      1  0.3078550000000  0.5211110000000  0.5157110000000 1.0
C      1  0.5006830000000  0.5126740000000  0.6136900000000 1.0
C      1  0.5340850000000  0.5070330000000  0.4164390000000 1.0
C      1  0.4365430000000  0.5410770000000  0.5326440000000 1.0
C      1  0.4153230000000  0.4316770000000  0.4988120000000 1.0
C      1  0.5549460000000  0.4708560000000  0.3850720000000 1.0
C      1  0.3300750000000  0.4641490000000  0.4193070000000 1.0
C      1  0.5292030000000  0.4519510000000  0.4489800000000 1.0
C      1  0.5758010000000  0.5668210000000  0.5753910000000 1.0
C      1  0.5629230000000  0.4477570000000  0.3995330000000 1.0
C      1  0.3911950000000  0.5937380000000  0.4859750000000 1.0
C      1  0.5878440000000  0.5276540000000  0.3915900000000 1.0
C      1  0.4436350000000  0.6395030000000  0.4528810000000 1.0
C      1  0.5344780000000  0.5313060000000  0.5011040000000 1.0
C      1  0.6100600000000  0.4805490000000  0.5733890000000 1.0
C      1  0.5322840000000  0.4361950000000  0.5845510000000 1.0
C      1  0.4532180000000  0.4580980000000  0.5371470000000 1.0
C      1  0.3960800000000  0.4534230000000  0.5390620000000 1.0
C      1  0.5160970000000  0.3963380000000  0.5051450000000 1.0
C      1  0.3925440000000  0.5194160000000  0.4684610000000 1.0
C      1  0.4648580000000  0.5428160000000  0.4812980000000 1.0
C      1  0.4574900000000  0.4208160000000  0.4274540000000 1.0
C      1  0.4645560000000  0.5526330000000  0.3773550000000 1.0
C      1  0.5774740000000  0.5599390000000  0.4948230000000 1.0
C      1  0.4434010000000  0.4762010000000  0.6012280000000 1.0
C      1  0.4996130000000  0.6019170000000  0.5609280000000 1.0
C      1  0.4650640000000  0.5060970000000  0.5130420000000 1.0
C      1  0.5379030000000  0.4387970000000  0.5008220000000 1.0
C      1  0.6012590000000  0.5079460000000  0.4036180000000 1.0
C      1  0.4684720000000  0.4019390000000  0.5125180000000 1.0
C      1  0.5528800000000  0.4698120000000  0.5569480000000 1.0
C      1  0.3881760000000  0.5156300000000  0.4404380000000 1.0
C      1  0.3807670000000  0.5315620000000  0.5475890000000 1.0
C      1  0.5804460000000  0.4297290000000  0.5233960000000 1.0
C      1  0.4783330000000  0.5141370000000  0.4231120000000 1.0
C      1  0.5174420000000  0.5563130000000  0.3738570000000 1.0
C      1  0.5295410000000  0.4140180000000  0.4157600000000 1.0
C      1  0.6194850000000  0.4503820000000  0.4840700000000 1.0
END
