TITL C-599892-9790-791 30.3291274064859 125000 -355.379890215735 0 0 59 (C1) n - 1
REM
REM in /home/nfs/bkarasulu/CARBON/AIRSS/Generating-Clusters/TERSOFF/Only-C1/FIRE-HFTN
REM
REM
REM
REM
REM
REM ./C.cell (11c1c37f851c82e70ff6c80c92926a4b)
REM AIRSS Version 0.9.1 bugfix July 2018 build 013d7b7c2542+ Fri, 06 Jul 2018 19:26:36 +0100
REM compiler GCC version 9.2.1 20190827 (Red Hat 9.2.1-1)
REM options -cpp -mtune=generic -march=x86-64 -g -O0 -fpre-include=/usr/include/finclude/math-vector-fortran.h
REM seed 491203455 1006092535 -790187129 -364421606 -1631079689 -36430688 164640888 -1901417419 41381611 -1140436909 -1707054740 1684152417 480553149 1579155689 -1574953256 -1478504385 214398129 896792010 96336260 -1449536774 120882244 -1338343536 -1383888472 1853108025 413093577 -278634077 -1936973007 -880390005 -252015985 2115580280 -1226097535 2146568019 1396258950
REM
CELL 1.54180   50.00000   50.00000   50.00000   90.00000   90.00000   90.00000
LATT -1
SFAC C  
C      1  0.3434690000000  0.4391590000000  0.6229710000000 1.0
C      1  0.4423640000000  0.4596370000000  0.5121240000000 1.0
C      1  0.4021890000000  0.4397410000000  0.5700130000000 1.0
C      1  0.6171310000000  0.5287810000000  0.5120820000000 1.0
C      1  0.5048010000000  0.5235680000000  0.5512890000000 1.0
C      1  0.4974950000000  0.4103670000000  0.5000910000000 1.0
C      1  0.5557920000000  0.5589140000000  0.5180320000000 1.0
C      1  0.4426100000000  0.4409530000000  0.5337190000000 1.0
C      1  0.5519320000000  0.5559550000000  0.4893820000000 1.0
C      1  0.4431260000000  0.5126710000000  0.5184500000000 1.0
C      1  0.5053050000000  0.4953960000000  0.4960490000000 1.0
C      1  0.5305800000000  0.5034300000000  0.4312980000000 1.0
C      1  0.4716600000000  0.4078630000000  0.5121590000000 1.0
C      1  0.4864720000000  0.4260920000000  0.5532620000000 1.0
C      1  0.5217080000000  0.4767380000000  0.4327340000000 1.0
C      1  0.4501650000000  0.4512310000000  0.4865180000000 1.0
C      1  0.3628280000000  0.4393500000000  0.6055110000000 1.0
C      1  0.4802430000000  0.5317810000000  0.5431190000000 1.0
C      1  0.5513020000000  0.5029940000000  0.4990570000000 1.0
C      1  0.5261000000000  0.5129780000000  0.4880790000000 1.0
C      1  0.4494940000000  0.4641650000000  0.4404550000000 1.0
C      1  0.5180570000000  0.4134430000000  0.5196350000000 1.0
C      1  0.5342730000000  0.5728680000000  0.5306140000000 1.0
C      1  0.4625320000000  0.4508230000000  0.4613570000000 1.0
C      1  0.4520740000000  0.5317750000000  0.4534220000000 1.0
C      1  0.6689340000000  0.5357850000000  0.5175750000000 1.0
C      1  0.4988140000000  0.4208520000000  0.4742700000000 1.0
C      1  0.5077920000000  0.4870480000000  0.5221170000000 1.0
C      1  0.4218580000000  0.4400270000000  0.5522770000000 1.0
C      1  0.5121210000000  0.4213080000000  0.5451290000000 1.0
C      1  0.5073300000000  0.4563530000000  0.4420100000000 1.0
C      1  0.3825110000000  0.4395450000000  0.5877590000000 1.0
C      1  0.4839670000000  0.5169610000000  0.4202990000000 1.0
C      1  0.5492850000000  0.5113160000000  0.5283680000000 1.0
C      1  0.5898660000000  0.5254830000000  0.5088350000000 1.0
C      1  0.5758090000000  0.5125190000000  0.4862660000000 1.0
C      1  0.6432410000000  0.5322980000000  0.5148650000000 1.0
C      1  0.4933100000000  0.5569990000000  0.4595990000000 1.0
C      1  0.4645150000000  0.4231270000000  0.5352770000000 1.0
C      1  0.5609810000000  0.5518920000000  0.4622890000000 1.0
C      1  0.4668690000000  0.5485470000000  0.4703930000000 1.0
C      1  0.5263420000000  0.5415860000000  0.4882400000000 1.0
C      1  0.5682620000000  0.5344480000000  0.5277620000000 1.0
C      1  0.5062250000000  0.5792090000000  0.5285480000000 1.0
C      1  0.5228060000000  0.5051660000000  0.5392380000000 1.0
C      1  0.5571190000000  0.5094670000000  0.4399010000000 1.0
C      1  0.5708370000000  0.5243510000000  0.4600390000000 1.0
C      1  0.4895230000000  0.4418940000000  0.4581630000000 1.0
C      1  0.4588280000000  0.5136350000000  0.4327700000000 1.0
C      1  0.5406410000000  0.5593240000000  0.4427330000000 1.0
C      1  0.4614600000000  0.5335400000000  0.5215300000000 1.0
C      1  0.4463220000000  0.4887560000000  0.4306570000000 1.0
C      1  0.5133020000000  0.5496990000000  0.4393710000000 1.0
C      1  0.5070820000000  0.5610770000000  0.4841560000000 1.0
C      1  0.5103860000000  0.5238170000000  0.4273570000000 1.0
C      1  0.4670810000000  0.5524930000000  0.5007770000000 1.0
C      1  0.4942860000000  0.5954950000000  0.5470000000000 1.0
C      1  0.4372260000000  0.4868170000000  0.5164990000000 1.0
C      1  0.4913690000000  0.5684910000000  0.5065100000000 1.0
END
