TITL C-599893-4344-1112 33.9597016709372 125000 -1065.06337731825 0 0 175 (C1) n - 1
REM
REM in /home/nfs/bkarasulu/CARBON/AIRSS/Generating-Clusters/TERSOFF/Only-C1/FIRE-HFTN
REM
REM
REM
REM
REM
REM ./C.cell (11c1c37f851c82e70ff6c80c92926a4b)
REM AIRSS Version 0.9.1 bugfix July 2018 build 013d7b7c2542+ Fri, 06 Jul 2018 19:26:36 +0100
REM compiler GCC version 9.2.1 20190827 (Red Hat 9.2.1-1)
REM options -cpp -mtune=generic -march=x86-64 -g -O0 -fpre-include=/usr/include/finclude/math-vector-fortran.h
REM seed -1805931109 87051430 926745871 399807485 -740893621 -1258535677 -617671789 1070793758 2046419078 -1970041603 -1287697602 -199604438 1744616501 522271344 -1196451997 1389149192 757915774 -2114634641 737005793 -666012126 1932451928 -1251857723 150512829 882639868 -1746298847 704832526 1137141671 -2125298371 554276142 -1162996044 -816059178 205113711 1888929529
REM
CELL 1.54180   50.00000   50.00000   50.00000   90.00000   90.00000   90.00000
LATT -1
SFAC C  
C      1  0.5551470000000  0.4939610000000  0.5879490000000 1.0
C      1  0.5715680000000  0.5115670000000  0.3957030000000 1.0
C      1  0.4950260000000  0.5677720000000  0.4652950000000 1.0
C      1  0.4540400000000  0.3900240000000  0.4661270000000 1.0
C      1  0.5341350000000  0.4874750000000  0.4533700000000 1.0
C      1  0.4278950000000  0.4880520000000  0.3741340000000 1.0
C      1  0.5606030000000  0.4580710000000  0.4027690000000 1.0
C      1  0.5394630000000  0.6077090000000  0.5059340000000 1.0
C      1  0.4664070000000  0.5338580000000  0.4503000000000 1.0
C      1  0.4668670000000  0.5046900000000  0.4965180000000 1.0
C      1  0.3700700000000  0.5151130000000  0.5284630000000 1.0
C      1  0.4011340000000  0.6255160000000  0.5467220000000 1.0
C      1  0.4459140000000  0.4814300000000  0.4972070000000 1.0
C      1  0.5263020000000  0.4758290000000  0.5423110000000 1.0
C      1  0.4277590000000  0.5233810000000  0.5169250000000 1.0
C      1  0.6179190000000  0.5479880000000  0.5132380000000 1.0
C      1  0.5311060000000  0.6105690000000  0.4800660000000 1.0
C      1  0.5362350000000  0.4184860000000  0.4203000000000 1.0
C      1  0.5871000000000  0.5054620000000  0.4637430000000 1.0
C      1  0.4664520000000  0.5906310000000  0.5814570000000 1.0
C      1  0.4769160000000  0.4360550000000  0.3942980000000 1.0
C      1  0.4604610000000  0.3977210000000  0.4937520000000 1.0
C      1  0.4344380000000  0.4859190000000  0.5940530000000 1.0
C      1  0.4869860000000  0.5439550000000  0.5521820000000 1.0
C      1  0.4172250000000  0.4198250000000  0.5229100000000 1.0
C      1  0.4430000000000  0.4638760000000  0.4730890000000 1.0
C      1  0.5699840000000  0.5275890000000  0.4535010000000 1.0
C      1  0.3985850000000  0.5543820000000  0.5523530000000 1.0
C      1  0.4193160000000  0.5142180000000  0.5438000000000 1.0
C      1  0.4229310000000  0.5425150000000  0.4547780000000 1.0
C      1  0.5442510000000  0.4517780000000  0.5314910000000 1.0
C      1  0.6137930000000  0.5419410000000  0.4852920000000 1.0
C      1  0.5413270000000  0.4481790000000  0.4226360000000 1.0
C      1  0.5422230000000  0.4239200000000  0.4847820000000 1.0
C      1  0.4441470000000  0.5758090000000  0.5309220000000 1.0
C      1  0.5629850000000  0.5833430000000  0.4204190000000 1.0
C      1  0.5669270000000  0.5373880000000  0.5025040000000 1.0
C      1  0.4693440000000  0.4874760000000  0.3934310000000 1.0
C      1  0.4639220000000  0.3952460000000  0.5227530000000 1.0
C      1  0.4276210000000  0.6353170000000  0.5083570000000 1.0
C      1  0.5032970000000  0.3889330000000  0.4516680000000 1.0
C      1  0.5425870000000  0.4498120000000  0.5997680000000 1.0
C      1  0.4956220000000  0.4304640000000  0.4961110000000 1.0
C      1  0.4022910000000  0.5087380000000  0.4802670000000 1.0
C      1  0.5208300000000  0.5519060000000  0.4664870000000 1.0
C      1  0.4478750000000  0.4329570000000  0.5572810000000 1.0
C      1  0.5159590000000  0.5659740000000  0.5857010000000 1.0
C      1  0.5864180000000  0.5498050000000  0.4450390000000 1.0
C      1  0.4420660000000  0.4783250000000  0.4472850000000 1.0
C      1  0.6228340000000  0.4476680000000  0.4797890000000 1.0
C      1  0.4686710000000  0.4734110000000  0.4369530000000 1.0
C      1  0.4053910000000  0.5370330000000  0.4763350000000 1.0
C      1  0.4417310000000  0.4574910000000  0.5440320000000 1.0
C      1  0.4802590000000  0.4503600000000  0.4492500000000 1.0
C      1  0.6194800000000  0.4940790000000  0.4998890000000 1.0
C      1  0.5750070000000  0.5380330000000  0.4004390000000 1.0
C      1  0.4430170000000  0.6028730000000  0.5402510000000 1.0
C      1  0.4232250000000  0.5215100000000  0.4329280000000 1.0
C      1  0.5603310000000  0.4697390000000  0.4862640000000 1.0
C      1  0.4664120000000  0.4676720000000  0.6224580000000 1.0
C      1  0.4759850000000  0.4225340000000  0.5951750000000 1.0
C      1  0.5830340000000  0.4574220000000  0.5654390000000 1.0
C      1  0.5753680000000  0.4846740000000  0.5705710000000 1.0
C      1  0.5558870000000  0.4111260000000  0.4002040000000 1.0
C      1  0.5150390000000  0.3843510000000  0.4789330000000 1.0
C      1  0.6169140000000  0.4644920000000  0.5004200000000 1.0
C      1  0.4386050000000  0.4626560000000  0.3704580000000 1.0
C      1  0.4900810000000  0.5053390000000  0.4807930000000 1.0
C      1  0.4939070000000  0.5848870000000  0.5904690000000 1.0
C      1  0.4381840000000  0.5116310000000  0.5868180000000 1.0
C      1  0.4214480000000  0.4991650000000  0.4994910000000 1.0
C      1  0.4998880000000  0.3984560000000  0.5590870000000 1.0
C      1  0.4582770000000  0.5218820000000  0.5182140000000 1.0
C      1  0.5620300000000  0.4693800000000  0.5146840000000 1.0
C      1  0.3788550000000  0.5385340000000  0.5409440000000 1.0
C      1  0.5788080000000  0.5033820000000  0.5492240000000 1.0
C      1  0.5125020000000  0.4951950000000  0.4952560000000 1.0
C      1  0.5313850000000  0.5606570000000  0.4913820000000 1.0
C      1  0.5996980000000  0.5609990000000  0.4679190000000 1.0
C      1  0.5755190000000  0.5498400000000  0.5717420000000 1.0
C      1  0.3840760000000  0.4683150000000  0.4773770000000 1.0
C      1  0.5672340000000  0.6188960000000  0.5435650000000 1.0
C      1  0.4450570000000  0.5050380000000  0.3903900000000 1.0
C      1  0.5105920000000  0.4066160000000  0.4274950000000 1.0
C      1  0.4683860000000  0.5659820000000  0.4814430000000 1.0
C      1  0.5501660000000  0.5678420000000  0.5746070000000 1.0
C      1  0.4922530000000  0.5647390000000  0.5274910000000 1.0
C      1  0.4977490000000  0.4408810000000  0.5211680000000 1.0
C      1  0.4827160000000  0.3981790000000  0.5817230000000 1.0
C      1  0.5378160000000  0.5137290000000  0.5766230000000 1.0
C      1  0.4976070000000  0.4399710000000  0.6027730000000 1.0
C      1  0.4701080000000  0.4243370000000  0.4887220000000 1.0
C      1  0.5062230000000  0.5781730000000  0.4000920000000 1.0
C      1  0.5673020000000  0.4849510000000  0.3975940000000 1.0
C      1  0.5010340000000  0.5104110000000  0.4280030000000 1.0
C      1  0.4759240000000  0.3791570000000  0.4514440000000 1.0
C      1  0.5078060000000  0.4481700000000  0.4553250000000 1.0
C      1  0.4566220000000  0.4673960000000  0.5221400000000 1.0
C      1  0.5562260000000  0.5122630000000  0.5036680000000 1.0
C      1  0.5041140000000  0.5292930000000  0.4047860000000 1.0
C      1  0.4893290000000  0.4174280000000  0.4100430000000 1.0
C      1  0.5397890000000  0.4924790000000  0.4830610000000 1.0
C      1  0.4617020000000  0.5749980000000  0.4148590000000 1.0
C      1  0.5797860000000  0.4778920000000  0.4666940000000 1.0
C      1  0.6139380000000  0.5299100000000  0.5350920000000 1.0
C      1  0.4478200000000  0.5535420000000  0.4056820000000 1.0
C      1  0.4992440000000  0.5897030000000  0.4466970000000 1.0
C      1  0.5400260000000  0.5334140000000  0.4514340000000 1.0
C      1  0.5505470000000  0.6002970000000  0.5318220000000 1.0
C      1  0.5280600000000  0.4623960000000  0.4424880000000 1.0
C      1  0.5596430000000  0.5629240000000  0.4935510000000 1.0
C      1  0.4939580000000  0.4659320000000  0.6164550000000 1.0
C      1  0.4933890000000  0.3906000000000  0.5313300000000 1.0
C      1  0.4851420000000  0.4661680000000  0.5234280000000 1.0
C      1  0.4375290000000  0.5268780000000  0.4079420000000 1.0
C      1  0.4473090000000  0.4619510000000  0.6015910000000 1.0
C      1  0.4867980000000  0.5161790000000  0.4543670000000 1.0
C      1  0.5383370000000  0.5273160000000  0.5517370000000 1.0
C      1  0.5180430000000  0.4206520000000  0.5604590000000 1.0
C      1  0.4649720000000  0.5273620000000  0.5458650000000 1.0
C      1  0.3853520000000  0.4642640000000  0.5066520000000 1.0
C      1  0.3965700000000  0.4887680000000  0.4608640000000 1.0
C      1  0.3987260000000  0.4390280000000  0.5151920000000 1.0
C      1  0.5674460000000  0.4957260000000  0.5245080000000 1.0
C      1  0.4639210000000  0.6092820000000  0.5592680000000 1.0
C      1  0.5462370000000  0.5757160000000  0.5465450000000 1.0
C      1  0.5122640000000  0.4680980000000  0.5662890000000 1.0
C      1  0.4143110000000  0.5456840000000  0.5022860000000 1.0
C      1  0.4298310000000  0.5578620000000  0.5590960000000 1.0
C      1  0.6235910000000  0.5031670000000  0.5282810000000 1.0
C      1  0.5906280000000  0.5301280000000  0.5537560000000 1.0
C      1  0.4176020000000  0.4680990000000  0.5524390000000 1.0
C      1  0.4643160000000  0.4594940000000  0.3836440000000 1.0
C      1  0.4577710000000  0.4380740000000  0.4660680000000 1.0
C      1  0.5246240000000  0.6033850000000  0.4526970000000 1.0
C      1  0.4236560000000  0.6215070000000  0.5316710000000 1.0
C      1  0.5163120000000  0.4337340000000  0.4777200000000 1.0
C      1  0.6118760000000  0.4553720000000  0.5279640000000 1.0
C      1  0.5177450000000  0.5548960000000  0.5152090000000 1.0
C      1  0.5692200000000  0.4333540000000  0.3900810000000 1.0
C      1  0.5124020000000  0.5162860000000  0.5908440000000 1.0
C      1  0.5470550000000  0.4085570000000  0.5102430000000 1.0
C      1  0.5204080000000  0.4333080000000  0.5354160000000 1.0
C      1  0.4224770000000  0.4157890000000  0.4353010000000 1.0
C      1  0.4492460000000  0.5520380000000  0.4633640000000 1.0
C      1  0.6239450000000  0.4781320000000  0.5431320000000 1.0
C      1  0.5016960000000  0.5409750000000  0.5780400000000 1.0
C      1  0.5202730000000  0.3900510000000  0.5092970000000 1.0
C      1  0.4437420000000  0.5728050000000  0.5820760000000 1.0
C      1  0.4391960000000  0.5279490000000  0.5623560000000 1.0
C      1  0.5646560000000  0.4270370000000  0.5299120000000 1.0
C      1  0.5457960000000  0.5990630000000  0.4340230000000 1.0
C      1  0.5778310000000  0.5591840000000  0.4195640000000 1.0
C      1  0.5359320000000  0.5507380000000  0.5362110000000 1.0
C      1  0.4424280000000  0.4143410000000  0.4535480000000 1.0
C      1  0.4996780000000  0.5935930000000  0.5344580000000 1.0
C      1  0.4884890000000  0.6146570000000  0.5467250000000 1.0
C      1  0.4877810000000  0.4798640000000  0.5701610000000 1.0
C      1  0.4827220000000  0.4886860000000  0.4180470000000 1.0
C      1  0.5197680000000  0.4412450000000  0.5823190000000 1.0
C      1  0.5131700000000  0.4877710000000  0.6108920000000 1.0
C      1  0.5811090000000  0.5773490000000  0.4824200000000 1.0
C      1  0.5284100000000  0.5103390000000  0.4389270000000 1.0
C      1  0.3821640000000  0.4881860000000  0.5258380000000 1.0
C      1  0.4877620000000  0.5855680000000  0.4203820000000 1.0
C      1  0.5075020000000  0.4849850000000  0.5214260000000 1.0
C      1  0.4530270000000  0.4371020000000  0.5856990000000 1.0
C      1  0.5411850000000  0.4776160000000  0.6064890000000 1.0
C      1  0.4655940000000  0.5685400000000  0.5114310000000 1.0
C      1  0.4041070000000  0.4905220000000  0.5447020000000 1.0
C      1  0.4185660000000  0.4935230000000  0.4416650000000 1.0
C      1  0.5895340000000  0.4412970000000  0.5413490000000 1.0
C      1  0.6099010000000  0.5132530000000  0.4803250000000 1.0
C      1  0.5111360000000  0.5525030000000  0.3936130000000 1.0
C      1  0.4427030000000  0.4117220000000  0.5372940000000 1.0
END
