TITL C-599896-8500-301 0.0756629723711605 125000 -710.791397737622 0 0 117 (C1) n - 1
REM
REM in /home/nfs/bkarasulu/CARBON/AIRSS/Generating-Clusters/TERSOFF/Only-C1/FIRE-HFTN
REM
REM
REM
REM
REM
REM ./C.cell (11c1c37f851c82e70ff6c80c92926a4b)
REM AIRSS Version 0.9.1 bugfix July 2018 build 013d7b7c2542+ Fri, 06 Jul 2018 19:26:36 +0100
REM compiler GCC version 9.2.1 20190827 (Red Hat 9.2.1-1)
REM options -cpp -mtune=generic -march=x86-64 -g -O0 -fpre-include=/usr/include/finclude/math-vector-fortran.h
REM seed -1349004818 -1035541883 1090307614 -1945014111 -1090420678 1296566588 1446698951 1198237195 486656524 -609041365 852767754 573824110 -130194537 -2068483622 -679155381 1768280434 228944007 -1500142943 101960447 862635570 40812341 1089000755 351368692 99835441 292370207 -1954142040 1602786091 -1105930349 1034166611 1207076544 122335079 1154756791 1376560348
REM
CELL 1.54180   50.00000   50.00000   50.00000   90.00000   90.00000   90.00000
LATT -1
SFAC C  
C      1  0.4857550000000  0.4934890000000  0.3775730000000 1.0
C      1  0.5285510000000  0.5367340000000  0.3837530000000 1.0
C      1  0.4866020000000  0.4195330000000  0.4670710000000 1.0
C      1  0.5657380000000  0.5757530000000  0.5243370000000 1.0
C      1  0.4038600000000  0.4954540000000  0.5510930000000 1.0
C      1  0.4479370000000  0.4782220000000  0.5018470000000 1.0
C      1  0.4323060000000  0.4950560000000  0.4417450000000 1.0
C      1  0.4885410000000  0.5269170000000  0.4454630000000 1.0
C      1  0.4749060000000  0.5755730000000  0.5393510000000 1.0
C      1  0.5995170000000  0.4004400000000  0.5159450000000 1.0
C      1  0.5643110000000  0.5139400000000  0.4397380000000 1.0
C      1  0.4627250000000  0.4175020000000  0.5366780000000 1.0
C      1  0.5395780000000  0.4731980000000  0.4423940000000 1.0
C      1  0.4929190000000  0.4449830000000  0.6050620000000 1.0
C      1  0.5701330000000  0.5382450000000  0.4270360000000 1.0
C      1  0.5727540000000  0.5341490000000  0.5604170000000 1.0
C      1  0.5523400000000  0.5425190000000  0.5782270000000 1.0
C      1  0.4995870000000  0.5879320000000  0.5464720000000 1.0
C      1  0.4623980000000  0.4796250000000  0.5790840000000 1.0
C      1  0.4994610000000  0.5698100000000  0.4315600000000 1.0
C      1  0.6070250000000  0.5683800000000  0.5474580000000 1.0
C      1  0.5171350000000  0.6571860000000  0.5315810000000 1.0
C      1  0.3856910000000  0.4594480000000  0.4759730000000 1.0
C      1  0.4834790000000  0.5188510000000  0.3898540000000 1.0
C      1  0.4875050000000  0.3825530000000  0.5581890000000 1.0
C      1  0.4344960000000  0.4620510000000  0.4815610000000 1.0
C      1  0.5503700000000  0.5609880000000  0.4801970000000 1.0
C      1  0.5137680000000  0.4567020000000  0.5261660000000 1.0
C      1  0.5447760000000  0.5167260000000  0.4614170000000 1.0
C      1  0.5098080000000  0.5033780000000  0.5644250000000 1.0
C      1  0.5261950000000  0.4424650000000  0.5477990000000 1.0
C      1  0.4060990000000  0.4604840000000  0.5188190000000 1.0
C      1  0.5320050000000  0.5600750000000  0.5788240000000 1.0
C      1  0.4128380000000  0.5448850000000  0.5501980000000 1.0
C      1  0.4861090000000  0.4096100000000  0.5522630000000 1.0
C      1  0.5205160000000  0.5903650000000  0.5025600000000 1.0
C      1  0.4632200000000  0.5650490000000  0.4602620000000 1.0
C      1  0.5598570000000  0.4809060000000  0.5622360000000 1.0
C      1  0.5256190000000  0.4943200000000  0.4607610000000 1.0
C      1  0.5083450000000  0.4255280000000  0.5625070000000 1.0
C      1  0.5761890000000  0.5056320000000  0.5519990000000 1.0
C      1  0.5557150000000  0.4511810000000  0.5509800000000 1.0
C      1  0.6073810000000  0.5940950000000  0.5374030000000 1.0
C      1  0.5143450000000  0.6314200000000  0.5288630000000 1.0
C      1  0.5792100000000  0.4248630000000  0.4793530000000 1.0
C      1  0.4412930000000  0.5063030000000  0.4977800000000 1.0
C      1  0.5041590000000  0.5414490000000  0.4260690000000 1.0
C      1  0.4163470000000  0.4484080000000  0.5435400000000 1.0
C      1  0.4272570000000  0.5668440000000  0.5455020000000 1.0
C      1  0.5454320000000  0.5756790000000  0.5039230000000 1.0
C      1  0.5653400000000  0.5073490000000  0.5241010000000 1.0
C      1  0.4933920000000  0.5155700000000  0.5473200000000 1.0
C      1  0.4491650000000  0.5019480000000  0.5895860000000 1.0
C      1  0.5809940000000  0.5556860000000  0.5427150000000 1.0
C      1  0.5732460000000  0.4382710000000  0.5308970000000 1.0
C      1  0.4771650000000  0.4711530000000  0.3902710000000 1.0
C      1  0.3971390000000  0.5067650000000  0.4759840000000 1.0
C      1  0.4591530000000  0.5237780000000  0.4055110000000 1.0
C      1  0.5542980000000  0.5333090000000  0.4820020000000 1.0
C      1  0.4448640000000  0.6109800000000  0.5530780000000 1.0
C      1  0.5676440000000  0.4856720000000  0.4393650000000 1.0
C      1  0.5818290000000  0.4686680000000  0.4584810000000 1.0
C      1  0.5334030000000  0.4924180000000  0.5555830000000 1.0
C      1  0.4650300000000  0.4696810000000  0.5232160000000 1.0
C      1  0.5166490000000  0.5809210000000  0.4523720000000 1.0
C      1  0.4747330000000  0.4350230000000  0.4465660000000 1.0
C      1  0.5601410000000  0.5628130000000  0.4329530000000 1.0
C      1  0.5328690000000  0.4735400000000  0.5132060000000 1.0
C      1  0.4892770000000  0.4595580000000  0.5129470000000 1.0
C      1  0.4592030000000  0.4563280000000  0.4371940000000 1.0
C      1  0.5344520000000  0.4373650000000  0.4839440000000 1.0
C      1  0.5148680000000  0.5773100000000  0.5676220000000 1.0
C      1  0.4116270000000  0.5199290000000  0.5629280000000 1.0
C      1  0.4124860000000  0.5115680000000  0.4526740000000 1.0
C      1  0.5085180000000  0.4288070000000  0.5905310000000 1.0
C      1  0.4898170000000  0.5271720000000  0.5222460000000 1.0
C      1  0.6297680000000  0.3598500000000  0.5300970000000 1.0
C      1  0.5357420000000  0.4262740000000  0.4234490000000 1.0
C      1  0.3782240000000  0.4855360000000  0.4729140000000 1.0
C      1  0.5437990000000  0.5717570000000  0.4543170000000 1.0
C      1  0.4761980000000  0.5828370000000  0.4782820000000 1.0
C      1  0.5726440000000  0.4727450000000  0.4854910000000 1.0
C      1  0.6147650000000  0.3799810000000  0.5230760000000 1.0
C      1  0.4489410000000  0.5848200000000  0.5461570000000 1.0
C      1  0.5066970000000  0.5323490000000  0.3993880000000 1.0
C      1  0.4893130000000  0.5141630000000  0.4965070000000 1.0
C      1  0.4089840000000  0.4690030000000  0.5631060000000 1.0
C      1  0.5732420000000  0.4400810000000  0.4551280000000 1.0
C      1  0.4638370000000  0.4100460000000  0.5093360000000 1.0
C      1  0.5387670000000  0.4965950000000  0.5270840000000 1.0
C      1  0.4120700000000  0.5072690000000  0.5009230000000 1.0
C      1  0.5834290000000  0.5994460000000  0.5246660000000 1.0
C      1  0.4027010000000  0.4902480000000  0.5226820000000 1.0
C      1  0.5134860000000  0.4233100000000  0.4748500000000 1.0
C      1  0.5477340000000  0.4608720000000  0.4936410000000 1.0
C      1  0.4673890000000  0.5365620000000  0.4631070000000 1.0
C      1  0.4277210000000  0.5172920000000  0.5858580000000 1.0
C      1  0.5706840000000  0.5225160000000  0.5017880000000 1.0
C      1  0.5115680000000  0.6038690000000  0.5260110000000 1.0
C      1  0.4701190000000  0.4025220000000  0.4830280000000 1.0
C      1  0.4606820000000  0.3789960000000  0.4727160000000 1.0
C      1  0.4557680000000  0.5514910000000  0.4136900000000 1.0
C      1  0.4933470000000  0.4681590000000  0.4859040000000 1.0
C      1  0.5035160000000  0.4940190000000  0.4798780000000 1.0
C      1  0.4746820000000  0.4629260000000  0.5977740000000 1.0
C      1  0.4624550000000  0.4747330000000  0.5510270000000 1.0
C      1  0.5043430000000  0.5878790000000  0.4782280000000 1.0
C      1  0.4397890000000  0.4692910000000  0.4544560000000 1.0
C      1  0.4626540000000  0.5206760000000  0.4857190000000 1.0
C      1  0.4088270000000  0.4532170000000  0.4913320000000 1.0
C      1  0.4691310000000  0.5701020000000  0.4317800000000 1.0
C      1  0.4780980000000  0.5526290000000  0.5237540000000 1.0
C      1  0.5471440000000  0.4443600000000  0.4403130000000 1.0
C      1  0.5832370000000  0.4222190000000  0.5083990000000 1.0
C      1  0.4487680000000  0.4997370000000  0.4183880000000 1.0
C      1  0.4622820000000  0.4732480000000  0.4139950000000 1.0
C      1  0.4380510000000  0.4298950000000  0.5451580000000 1.0
END
