TITL C-599894-471-267 1.84712378715279e-05 125000 -549.579459294422 0 0 90 (C1) n - 1
REM
REM in /home/nfs/bkarasulu/CARBON/AIRSS/Generating-Clusters/TERSOFF/Only-C1/FIRE-HFTN
REM
REM
REM
REM
REM
REM ./C.cell (11c1c37f851c82e70ff6c80c92926a4b)
REM AIRSS Version 0.9.1 bugfix July 2018 build 013d7b7c2542+ Fri, 06 Jul 2018 19:26:36 +0100
REM compiler GCC version 9.2.1 20190827 (Red Hat 9.2.1-1)
REM options -cpp -mtune=generic -march=x86-64 -g -O0 -fpre-include=/usr/include/finclude/math-vector-fortran.h
REM seed -1578069609 1077492185 625635187 -222334058 -359888658 -703155310 1521125002 -1286469754 1619805519 -1055902961 -1957701045 -348252875 -1455568825 1657230791 129131404 -530434176 2089046204 1976114650 1838064264 -1487723192 565036666 -355569552 47867534 1930562332 -1494319954 -371856127 1698610642 -2128988484 -1229491209 -1241540956 -1953725431 -1020544245 686170559
REM
CELL 1.54180   50.00000   50.00000   50.00000   90.00000   90.00000   90.00000
LATT -1
SFAC C  
C      1  0.4849390000000  0.4342560000000  0.6017650000000 1.0
C      1  0.5644320000000  0.5674820000000  0.5312430000000 1.0
C      1  0.5647360000000  0.5017840000000  0.5600440000000 1.0
C      1  0.4699500000000  0.5443280000000  0.4371730000000 1.0
C      1  0.4614560000000  0.4536930000000  0.4374880000000 1.0
C      1  0.4797420000000  0.4992530000000  0.4123980000000 1.0
C      1  0.5189660000000  0.4388520000000  0.4678110000000 1.0
C      1  0.4428860000000  0.5592830000000  0.5099820000000 1.0
C      1  0.5078350000000  0.4870210000000  0.5802250000000 1.0
C      1  0.5518420000000  0.4911810000000  0.4715900000000 1.0
C      1  0.5514750000000  0.4568480000000  0.5326110000000 1.0
C      1  0.4601680000000  0.5192200000000  0.4233320000000 1.0
C      1  0.5972540000000  0.4947960000000  0.4843980000000 1.0
C      1  0.5835410000000  0.5417890000000  0.4667720000000 1.0
C      1  0.4951640000000  0.5905600000000  0.4936770000000 1.0
C      1  0.4185000000000  0.5118340000000  0.5301740000000 1.0
C      1  0.4280710000000  0.4438060000000  0.4914440000000 1.0
C      1  0.5615460000000  0.5586240000000  0.4761560000000 1.0
C      1  0.4587310000000  0.5618340000000  0.4581080000000 1.0
C      1  0.5346580000000  0.5598670000000  0.4658580000000 1.0
C      1  0.4609230000000  0.4484110000000  0.5251620000000 1.0
C      1  0.5082740000000  0.4394060000000  0.5358940000000 1.0
C      1  0.5074720000000  0.4247020000000  0.5600050000000 1.0
C      1  0.4975390000000  0.4780560000000  0.4553240000000 1.0
C      1  0.4260430000000  0.4925540000000  0.4508050000000 1.0
C      1  0.5017250000000  0.4284030000000  0.5104000000000 1.0
C      1  0.5234770000000  0.5434820000000  0.4438860000000 1.0
C      1  0.4725310000000  0.5286810000000  0.4925070000000 1.0
C      1  0.5129290000000  0.4767310000000  0.4305600000000 1.0
C      1  0.4744530000000  0.4907520000000  0.5440670000000 1.0
C      1  0.5094010000000  0.4472320000000  0.6096790000000 1.0
C      1  0.5724190000000  0.4537780000000  0.4349010000000 1.0
C      1  0.5308630000000  0.5175760000000  0.4332330000000 1.0
C      1  0.4078030000000  0.4824980000000  0.4709770000000 1.0
C      1  0.5514700000000  0.4992410000000  0.4438300000000 1.0
C      1  0.5283310000000  0.4922220000000  0.5134950000000 1.0
C      1  0.5288950000000  0.4846230000000  0.4867990000000 1.0
C      1  0.5312890000000  0.4213890000000  0.5757350000000 1.0
C      1  0.5662590000000  0.4763650000000  0.5492460000000 1.0
C      1  0.4838810000000  0.4239950000000  0.5763250000000 1.0
C      1  0.5125510000000  0.4663350000000  0.4747220000000 1.0
C      1  0.4720180000000  0.5188150000000  0.5409740000000 1.0
C      1  0.5036560000000  0.5803330000000  0.5447280000000 1.0
C      1  0.4622940000000  0.5900980000000  0.4563030000000 1.0
C      1  0.5089340000000  0.5024900000000  0.4189880000000 1.0
C      1  0.5208990000000  0.5577900000000  0.5416830000000 1.0
C      1  0.4279750000000  0.4852200000000  0.5202350000000 1.0
C      1  0.4267350000000  0.5230090000000  0.4876100000000 1.0
C      1  0.4856680000000  0.5280790000000  0.5175230000000 1.0
C      1  0.4776230000000  0.6029920000000  0.4748190000000 1.0
C      1  0.5742020000000  0.4387250000000  0.4577710000000 1.0
C      1  0.5652220000000  0.5560540000000  0.5056380000000 1.0
C      1  0.5010870000000  0.4827200000000  0.5531460000000 1.0
C      1  0.4859790000000  0.5857810000000  0.5207410000000 1.0
C      1  0.4513840000000  0.4912460000000  0.4649570000000 1.0
C      1  0.5259260000000  0.4284900000000  0.4938570000000 1.0
C      1  0.5169300000000  0.5764430000000  0.4814710000000 1.0
C      1  0.5104590000000  0.5393430000000  0.5230720000000 1.0
C      1  0.4848500000000  0.5775210000000  0.5666040000000 1.0
C      1  0.5214340000000  0.4678930000000  0.5344340000000 1.0
C      1  0.5322570000000  0.4321120000000  0.6009780000000 1.0
C      1  0.4175020000000  0.4703040000000  0.4959900000000 1.0
C      1  0.4238900000000  0.5357340000000  0.5132510000000 1.0
C      1  0.4586730000000  0.5742040000000  0.5287090000000 1.0
C      1  0.5712300000000  0.4492730000000  0.4844610000000 1.0
C      1  0.4353620000000  0.5263710000000  0.5725430000000 1.0
C      1  0.4614470000000  0.5643400000000  0.5564280000000 1.0
C      1  0.4529510000000  0.4315630000000  0.4826950000000 1.0
C      1  0.4977150000000  0.5506610000000  0.4340570000000 1.0
C      1  0.5493330000000  0.5111850000000  0.5177780000000 1.0
C      1  0.4152810000000  0.5156180000000  0.5579830000000 1.0
C      1  0.5124460000000  0.4324110000000  0.4397730000000 1.0
C      1  0.5520360000000  0.4407060000000  0.5055020000000 1.0
C      1  0.5706130000000  0.5271950000000  0.5079800000000 1.0
C      1  0.5649740000000  0.4792120000000  0.4280520000000 1.0
C      1  0.4534940000000  0.4747990000000  0.5318870000000 1.0
C      1  0.5571770000000  0.5282650000000  0.5614610000000 1.0
C      1  0.4584240000000  0.5362880000000  0.5596660000000 1.0
C      1  0.5033460000000  0.4522130000000  0.4191800000000 1.0
C      1  0.4526210000000  0.5107870000000  0.4837850000000 1.0
C      1  0.4755670000000  0.4618800000000  0.4132270000000 1.0
C      1  0.5103740000000  0.4748900000000  0.6040790000000 1.0
C      1  0.5478950000000  0.5535000000000  0.5501670000000 1.0
C      1  0.4560070000000  0.4310450000000  0.4540460000000 1.0
C      1  0.4733120000000  0.4326560000000  0.5040700000000 1.0
C      1  0.5903970000000  0.5217560000000  0.4868390000000 1.0
C      1  0.4330310000000  0.5092700000000  0.4283620000000 1.0
C      1  0.5754210000000  0.4775720000000  0.4817630000000 1.0
C      1  0.4702150000000  0.4745710000000  0.4553160000000 1.0
C      1  0.4593170000000  0.5538340000000  0.4856170000000 1.0
END
