TITL C-599890-3321-740 0.383141898744231 125000 -147.081607905416 0 0 27 (C1) n - 1
REM
REM in /home/nfs/bkarasulu/CARBON/AIRSS/Generating-Clusters/TERSOFF/Only-C1/FIRE-HFTN
REM
REM
REM
REM
REM
REM ./C.cell (11c1c37f851c82e70ff6c80c92926a4b)
REM AIRSS Version 0.9.1 bugfix July 2018 build 013d7b7c2542+ Fri, 06 Jul 2018 19:26:36 +0100
REM compiler GCC version 9.2.1 20190827 (Red Hat 9.2.1-1)
REM options -cpp -mtune=generic -march=x86-64 -g -O0 -fpre-include=/usr/include/finclude/math-vector-fortran.h
REM seed 152138747 834271040 658371745 2099959366 -268652525 194460559 1088036206 -2030001660 925185070 -1704851790 1752188543 -1584031196 328167372 -407058826 1565176784 -711969803 453306469 821891002 -235377200 1240894850 -1490093122 1361674083 2000734910 -2083034808 -2104174402 867902109 1324555139 1825658457 -718862930 -1561598811 -692048742 -954746057 -755960263
REM
CELL 1.54180   50.00000   50.00000   50.00000   90.00000   90.00000   90.00000
LATT -1
SFAC C  
C      1  0.5945460000000  0.4937440000000  0.5438750000000 1.0
C      1  0.4483260000000  0.4561580000000  0.5949710000000 1.0
C      1  0.4609400000000  0.5174230000000  0.4596170000000 1.0
C      1  0.4640390000000  0.4257410000000  0.5576770000000 1.0
C      1  0.5305700000000  0.5583960000000  0.4722230000000 1.0
C      1  0.4645080000000  0.4540080000000  0.4614240000000 1.0
C      1  0.4743840000000  0.4292500000000  0.5321840000000 1.0
C      1  0.5613900000000  0.5007720000000  0.5018540000000 1.0
C      1  0.4535010000000  0.4978630000000  0.4788420000000 1.0
C      1  0.5784130000000  0.4970420000000  0.5236750000000 1.0
C      1  0.5348140000000  0.5859810000000  0.4713940000000 1.0
C      1  0.4766080000000  0.4574410000000  0.5256130000000 1.0
C      1  0.5371520000000  0.4869660000000  0.5003580000000 1.0
C      1  0.4127270000000  0.5063640000000  0.5131580000000 1.0
C      1  0.4824680000000  0.5343920000000  0.4650780000000 1.0
C      1  0.5048480000000  0.5480190000000  0.4688800000000 1.0
C      1  0.5124500000000  0.4774490000000  0.4998920000000 1.0
C      1  0.5909590000000  0.5147760000000  0.4661360000000 1.0
C      1  0.4584570000000  0.4512350000000  0.5703840000000 1.0
C      1  0.4320960000000  0.5026350000000  0.4961270000000 1.0
C      1  0.5685200000000  0.5189750000000  0.4812040000000 1.0
C      1  0.5388000000000  0.6117250000000  0.4706190000000 1.0
C      1  0.4471940000000  0.5194850000000  0.4360490000000 1.0
C      1  0.4679180000000  0.4734270000000  0.4804030000000 1.0
C      1  0.4665540000000  0.4703550000000  0.5498420000000 1.0
C      1  0.4858090000000  0.4693750000000  0.5021170000000 1.0
C      1  0.5520070000000  0.5410030000000  0.4764040000000 1.0
END
