TITL C-599895-9959-828 -789.822668074008 125000 -1178.93877637737 0 0 190 (C1) n - 1
REM
REM in /home/nfs/bkarasulu/CARBON/AIRSS/Generating-Clusters/TERSOFF/Only-C1/FIRE-HFTN
REM
REM
REM
REM
REM
REM ./C.cell (11c1c37f851c82e70ff6c80c92926a4b)
REM AIRSS Version 0.9.1 bugfix July 2018 build 013d7b7c2542+ Fri, 06 Jul 2018 19:26:36 +0100
REM compiler GCC version 9.2.1 20190827 (Red Hat 9.2.1-1)
REM options -cpp -mtune=generic -march=x86-64 -g -O0 -fpre-include=/usr/include/finclude/math-vector-fortran.h
REM seed -1444859485 846415173 1726018676 -2044386471 1773553340 784970399 -457845587 -1407816452 717005255 547071237 999350693 -298530969 -675577589 132594336 1069561940 314295302 -1868817812 1416117562 1202237341 885609584 -1542050011 -441086240 246811991 1506501445 -364504273 -1776371247 1718011790 -1375713544 1515664942 364965745 816822405 131123930 -848768626
REM
CELL 1.54180   50.00000   50.00000   50.00000   90.00000   90.00000   90.00000
LATT -1
SFAC C  
C      1  0.4667530000000  0.4445630000000  0.5558130000000 1.0
C      1  0.5494240000000  0.3989880000000  0.5257670000000 1.0
C      1  0.5186600000000  0.6214700000000  0.5758850000000 1.0
C      1  0.4111410000000  0.6104690000000  0.5188820000000 1.0
C      1  0.6053090000000  0.4652190000000  0.4165140000000 1.0
C      1  0.4723040000000  0.6034640000000  0.3894710000000 1.0
C      1  0.5540850000000  0.4642060000000  0.5604420000000 1.0
C      1  0.4208030000000  0.4078190000000  0.4654030000000 1.0
C      1  0.5218950000000  0.4101040000000  0.4151970000000 1.0
C      1  0.3775370000000  0.5168050000000  0.4798030000000 1.0
C      1  0.4344480000000  0.6025100000000  0.5856310000000 1.0
C      1  0.4019120000000  0.5870510000000  0.5278880000000 1.0
C      1  0.5068770000000  0.5502200000000  0.5912440000000 1.0
C      1  0.5377910000000  0.3904210000000  0.4581390000000 1.0
C      1  0.4482330000000  0.5458020000000  0.5130850000000 1.0
C      1  0.4776550000000  0.6107340000000  0.4630300000000 1.0
C      1  0.5324810000000  0.5519770000000  0.6470290000000 1.0
C      1  0.5642450000000  0.5607890000000  0.6060970000000 1.0
C      1  0.3887530000000  0.5153370000000  0.4526540000000 1.0
C      1  0.4911920000000  0.5903790000000  0.4779460000000 1.0
C      1  0.5311520000000  0.5272790000000  0.5397380000000 1.0
C      1  0.5879090000000  0.4641450000000  0.3729900000000 1.0
C      1  0.5571310000000  0.5315170000000  0.4723200000000 1.0
C      1  0.4616790000000  0.4169360000000  0.5611570000000 1.0
C      1  0.4199990000000  0.3887460000000  0.5459130000000 1.0
C      1  0.3999450000000  0.3837290000000  0.5020770000000 1.0
C      1  0.5206970000000  0.4156550000000  0.6061420000000 1.0
C      1  0.4859410000000  0.5011160000000  0.5377560000000 1.0
C      1  0.4420100000000  0.5617150000000  0.4441450000000 1.0
C      1  0.5922340000000  0.4640680000000  0.4651510000000 1.0
C      1  0.6244410000000  0.4968170000000  0.3827600000000 1.0
C      1  0.5146840000000  0.4372540000000  0.5669770000000 1.0
C      1  0.5356490000000  0.4369480000000  0.6155040000000 1.0
C      1  0.5971260000000  0.5304920000000  0.4449560000000 1.0
C      1  0.5212120000000  0.4290080000000  0.3939190000000 1.0
C      1  0.4368700000000  0.4046120000000  0.5589250000000 1.0
C      1  0.3864800000000  0.5412250000000  0.4956620000000 1.0
C      1  0.4909920000000  0.5575450000000  0.5463840000000 1.0
C      1  0.4905210000000  0.6073260000000  0.5394280000000 1.0
C      1  0.3545350000000  0.3857350000000  0.4458530000000 1.0
C      1  0.4748710000000  0.4357070000000  0.4521310000000 1.0
C      1  0.4423190000000  0.5272370000000  0.5988900000000 1.0
C      1  0.5660040000000  0.5206420000000  0.5794330000000 1.0
C      1  0.6093770000000  0.5058600000000  0.4411470000000 1.0
C      1  0.4781720000000  0.5376940000000  0.4675740000000 1.0
C      1  0.5510400000000  0.5604510000000  0.6295210000000 1.0
C      1  0.5493910000000  0.4925660000000  0.4341830000000 1.0
C      1  0.4645760000000  0.6318490000000  0.4761330000000 1.0
C      1  0.4813840000000  0.4674800000000  0.5941900000000 1.0
C      1  0.5660240000000  0.4565440000000  0.5075980000000 1.0
C      1  0.5114620000000  0.5370420000000  0.6547500000000 1.0
C      1  0.5454910000000  0.5461100000000  0.5216920000000 1.0
C      1  0.5100190000000  0.5715020000000  0.4670340000000 1.0
C      1  0.5149430000000  0.5030520000000  0.6089650000000 1.0
C      1  0.4908120000000  0.5654750000000  0.5746520000000 1.0
C      1  0.5182410000000  0.3703120000000  0.4564420000000 1.0
C      1  0.5558340000000  0.5933530000000  0.5292790000000 1.0
C      1  0.5386480000000  0.5139750000000  0.4549790000000 1.0
C      1  0.5396370000000  0.6055910000000  0.4175780000000 1.0
C      1  0.4128780000000  0.5612320000000  0.5674190000000 1.0
C      1  0.5802470000000  0.4676710000000  0.5505800000000 1.0
C      1  0.4032160000000  0.5613630000000  0.5400600000000 1.0
C      1  0.4556290000000  0.5546330000000  0.4678510000000 1.0
C      1  0.5116340000000  0.6017200000000  0.4179050000000 1.0
C      1  0.4975450000000  0.4533120000000  0.4531500000000 1.0
C      1  0.4712650000000  0.4877930000000  0.6115420000000 1.0
C      1  0.4919840000000  0.5000830000000  0.4375200000000 1.0
C      1  0.4898290000000  0.4537790000000  0.5708030000000 1.0
C      1  0.5678390000000  0.3913590000000  0.5045880000000 1.0
C      1  0.4556470000000  0.4632180000000  0.5372470000000 1.0
C      1  0.4664050000000  0.6029020000000  0.4378790000000 1.0
C      1  0.4434430000000  0.6368860000000  0.4917290000000 1.0
C      1  0.3997710000000  0.5873130000000  0.4692940000000 1.0
C      1  0.4253950000000  0.4840120000000  0.5944530000000 1.0
C      1  0.4943320000000  0.3933090000000  0.5366140000000 1.0
C      1  0.4062180000000  0.4997970000000  0.4331630000000 1.0
C      1  0.3986020000000  0.3937120000000  0.4759890000000 1.0
C      1  0.5401070000000  0.4694760000000  0.4722120000000 1.0
C      1  0.5896560000000  0.4408360000000  0.4130860000000 1.0
C      1  0.4136280000000  0.3728020000000  0.5238660000000 1.0
C      1  0.4537720000000  0.5661060000000  0.4945060000000 1.0
C      1  0.6039630000000  0.4784570000000  0.4421560000000 1.0
C      1  0.6022330000000  0.4187060000000  0.4837370000000 1.0
C      1  0.6025140000000  0.5360160000000  0.4923000000000 1.0
C      1  0.5574170000000  0.5900150000000  0.4336760000000 1.0
C      1  0.5451850000000  0.5492650000000  0.4921860000000 1.0
C      1  0.4826370000000  0.5197420000000  0.4892410000000 1.0
C      1  0.5956640000000  0.4349340000000  0.4616410000000 1.0
C      1  0.4594370000000  0.4591410000000  0.5094050000000 1.0
C      1  0.4150510000000  0.4726890000000  0.4301390000000 1.0
C      1  0.6231750000000  0.5535070000000  0.5318190000000 1.0
C      1  0.5154430000000  0.4529860000000  0.4743260000000 1.0
C      1  0.4172290000000  0.6004490000000  0.4528510000000 1.0
C      1  0.4667160000000  0.6176390000000  0.5517960000000 1.0
C      1  0.5914370000000  0.4081280000000  0.5078330000000 1.0
C      1  0.5526380000000  0.4355780000000  0.4403580000000 1.0
C      1  0.6071540000000  0.4772490000000  0.3902630000000 1.0
C      1  0.4611070000000  0.6031130000000  0.3659410000000 1.0
C      1  0.4481120000000  0.6333550000000  0.5385640000000 1.0
C      1  0.4142010000000  0.4995580000000  0.5027690000000 1.0
C      1  0.4163150000000  0.4890410000000  0.5694600000000 1.0
C      1  0.5856570000000  0.4524650000000  0.5276950000000 1.0
C      1  0.4519880000000  0.5114790000000  0.3750260000000 1.0
C      1  0.5689640000000  0.4688350000000  0.4825340000000 1.0
C      1  0.5430810000000  0.4376560000000  0.5591260000000 1.0
C      1  0.4441250000000  0.3325770000000  0.5088270000000 1.0
C      1  0.4983610000000  0.4828040000000  0.5152690000000 1.0
C      1  0.4318810000000  0.6292300000000  0.5160670000000 1.0
C      1  0.4884480000000  0.4550660000000  0.5061850000000 1.0
C      1  0.4709080000000  0.4197780000000  0.4755640000000 1.0
C      1  0.4877200000000  0.5807570000000  0.5278200000000 1.0
C      1  0.4467230000000  0.4054890000000  0.4765150000000 1.0
C      1  0.5010660000000  0.5288130000000  0.5412510000000 1.0
C      1  0.5535920000000  0.5883430000000  0.4616920000000 1.0
C      1  0.5469060000000  0.4365320000000  0.3841770000000 1.0
C      1  0.5276840000000  0.4962540000000  0.4776120000000 1.0
C      1  0.4863070000000  0.4013710000000  0.5629020000000 1.0
C      1  0.6504140000000  0.5337130000000  0.4973350000000 1.0
C      1  0.4571640000000  0.4919250000000  0.5437110000000 1.0
C      1  0.5918980000000  0.5510020000000  0.4266110000000 1.0
C      1  0.4876110000000  0.4262870000000  0.4985550000000 1.0
C      1  0.5768800000000  0.5728360000000  0.4227190000000 1.0
C      1  0.5283470000000  0.4820350000000  0.5963110000000 1.0
C      1  0.4645910000000  0.3285810000000  0.4923960000000 1.0
C      1  0.5014910000000  0.3507950000000  0.4628440000000 1.0
C      1  0.3934780000000  0.5600140000000  0.4734830000000 1.0
C      1  0.5604550000000  0.5665420000000  0.5359600000000 1.0
C      1  0.5362640000000  0.4122130000000  0.4394580000000 1.0
C      1  0.3980340000000  0.5437470000000  0.4497180000000 1.0
C      1  0.4939650000000  0.5173560000000  0.6484800000000 1.0
C      1  0.4258880000000  0.3478460000000  0.5206490000000 1.0
C      1  0.5119410000000  0.5227550000000  0.4423820000000 1.0
C      1  0.4969030000000  0.4437810000000  0.3917690000000 1.0
C      1  0.6259060000000  0.5409460000000  0.5069630000000 1.0
C      1  0.5706780000000  0.5485820000000  0.5814640000000 1.0
C      1  0.4653340000000  0.4990610000000  0.4494850000000 1.0
C      1  0.4136950000000  0.5864410000000  0.5803500000000 1.0
C      1  0.3986800000000  0.5387350000000  0.5228800000000 1.0
C      1  0.4806730000000  0.4571060000000  0.4109600000000 1.0
C      1  0.4258400000000  0.5028340000000  0.4789750000000 1.0
C      1  0.6060810000000  0.5615020000000  0.5505620000000 1.0
C      1  0.5072270000000  0.4119660000000  0.5807980000000 1.0
C      1  0.4218980000000  0.5448090000000  0.4338950000000 1.0
C      1  0.4624810000000  0.5232140000000  0.5089680000000 1.0
C      1  0.5465500000000  0.4644990000000  0.4424270000000 1.0
C      1  0.5570960000000  0.3871590000000  0.4787050000000 1.0
C      1  0.4591310000000  0.4447160000000  0.4281350000000 1.0
C      1  0.5833250000000  0.4701620000000  0.3463470000000 1.0
C      1  0.4129590000000  0.5136350000000  0.5270030000000 1.0
C      1  0.4370490000000  0.5157870000000  0.3959380000000 1.0
C      1  0.4840890000000  0.3355410000000  0.4758000000000 1.0
C      1  0.5501200000000  0.6251590000000  0.4014520000000 1.0
C      1  0.4407480000000  0.5900750000000  0.4403060000000 1.0
C      1  0.4966120000000  0.4724250000000  0.4309010000000 1.0
C      1  0.4178680000000  0.4264350000000  0.4444220000000 1.0
C      1  0.4605960000000  0.6048020000000  0.5764230000000 1.0
C      1  0.5158850000000  0.6176650000000  0.5478290000000 1.0
C      1  0.5450020000000  0.4637980000000  0.6118410000000 1.0
C      1  0.5298370000000  0.4166420000000  0.5151520000000 1.0
C      1  0.5740790000000  0.4433460000000  0.3880790000000 1.0
C      1  0.4461430000000  0.4998510000000  0.6056260000000 1.0
C      1  0.5788620000000  0.5608390000000  0.5571570000000 1.0
C      1  0.4294770000000  0.5018360000000  0.5476270000000 1.0
C      1  0.5012700000000  0.5470030000000  0.4544410000000 1.0
C      1  0.5451480000000  0.5118410000000  0.5605740000000 1.0
C      1  0.5045600000000  0.6074400000000  0.5943710000000 1.0
C      1  0.4276490000000  0.5416080000000  0.5813780000000 1.0
C      1  0.5190890000000  0.5289040000000  0.6002350000000 1.0
C      1  0.4830000000000  0.5905490000000  0.5863230000000 1.0
C      1  0.5378070000000  0.4854090000000  0.5692390000000 1.0
C      1  0.5760060000000  0.5014240000000  0.5987000000000 1.0
C      1  0.4305200000000  0.4483870000000  0.4316150000000 1.0
C      1  0.4483740000000  0.4653580000000  0.4846530000000 1.0
C      1  0.5030270000000  0.4092400000000  0.5147380000000 1.0
C      1  0.5387620000000  0.6135380000000  0.5324530000000 1.0
C      1  0.5787810000000  0.4758550000000  0.3213260000000 1.0
C      1  0.3757530000000  0.3894700000000  0.4605170000000 1.0
C      1  0.4834800000000  0.6027180000000  0.4150630000000 1.0
C      1  0.5616850000000  0.4161140000000  0.5468910000000 1.0
C      1  0.5701320000000  0.4783660000000  0.6126730000000 1.0
C      1  0.5413160000000  0.4421230000000  0.5104480000000 1.0
C      1  0.5805130000000  0.4300370000000  0.4374000000000 1.0
C      1  0.5042590000000  0.5009530000000  0.4930320000000 1.0
C      1  0.4920680000000  0.5006980000000  0.6257950000000 1.0
C      1  0.4470490000000  0.4883290000000  0.4681150000000 1.0
C      1  0.4230520000000  0.5200160000000  0.4194880000000 1.0
C      1  0.5875830000000  0.4240960000000  0.5325310000000 1.0
C      1  0.5853060000000  0.5329190000000  0.4705430000000 1.0
C      1  0.4772270000000  0.5811230000000  0.5012810000000 1.0
C      1  0.5363090000000  0.5725160000000  0.4773010000000 1.0
END
