TITL C-599890-3321-700 4.81497198708252e-06 125000 -760.259001068468 0 0 123 (C1) n - 1
REM
REM in /home/nfs/bkarasulu/CARBON/AIRSS/Generating-Clusters/TERSOFF/Only-C1/FIRE-HFTN
REM
REM
REM
REM
REM
REM ./C.cell (11c1c37f851c82e70ff6c80c92926a4b)
REM AIRSS Version 0.9.1 bugfix July 2018 build 013d7b7c2542+ Fri, 06 Jul 2018 19:26:36 +0100
REM compiler GCC version 9.2.1 20190827 (Red Hat 9.2.1-1)
REM options -cpp -mtune=generic -march=x86-64 -g -O0 -fpre-include=/usr/include/finclude/math-vector-fortran.h
REM seed 800470516 -1638268152 -1491543182 -1402265313 437254677 1432769217 -634581412 1454671466 -142139850 -1986014744 522488152 1316202609 1353591851 523104309 -1927798289 1712834732 1514660763 -855329486 948383330 1898084331 -546403354 45502469 835965746 1623684790 664863389 -307923212 -1923282558 -1689300849 -964721879 -1932206285 12016604 1590368381 -39067886
REM
CELL 1.54180   50.00000   50.00000   50.00000   90.00000   90.00000   90.00000
LATT -1
SFAC C  
C      1  0.5203290000000  0.4131320000000  0.4617890000000 1.0
C      1  0.4261130000000  0.5658320000000  0.5095970000000 1.0
C      1  0.4362320000000  0.5225900000000  0.3796690000000 1.0
C      1  0.4588110000000  0.5074540000000  0.5159660000000 1.0
C      1  0.4728300000000  0.4751470000000  0.3936830000000 1.0
C      1  0.5043250000000  0.4890510000000  0.4596510000000 1.0
C      1  0.4992900000000  0.4474970000000  0.5695860000000 1.0
C      1  0.4150550000000  0.5527940000000  0.4858000000000 1.0
C      1  0.4197940000000  0.5489740000000  0.5346310000000 1.0
C      1  0.6041320000000  0.4768560000000  0.4374740000000 1.0
C      1  0.4405790000000  0.4459930000000  0.5666800000000 1.0
C      1  0.5454940000000  0.4812990000000  0.5557990000000 1.0
C      1  0.4560790000000  0.4260930000000  0.5545680000000 1.0
C      1  0.5204840000000  0.5772120000000  0.5384260000000 1.0
C      1  0.5716040000000  0.5075990000000  0.5240320000000 1.0
C      1  0.4640090000000  0.5458160000000  0.4115610000000 1.0
C      1  0.4111790000000  0.5235370000000  0.5225230000000 1.0
C      1  0.4956820000000  0.4963830000000  0.4857170000000 1.0
C      1  0.6050120000000  0.5427750000000  0.5817090000000 1.0
C      1  0.4962220000000  0.4215550000000  0.5243830000000 1.0
C      1  0.4334660000000  0.5465180000000  0.4651840000000 1.0
C      1  0.4548090000000  0.5432980000000  0.5769180000000 1.0
C      1  0.4195620000000  0.4758660000000  0.5178940000000 1.0
C      1  0.5060880000000  0.5321030000000  0.5208750000000 1.0
C      1  0.4659210000000  0.4567050000000  0.4390870000000 1.0
C      1  0.5227230000000  0.4943580000000  0.5464720000000 1.0
C      1  0.4367240000000  0.4964000000000  0.4458700000000 1.0
C      1  0.3995330000000  0.5311070000000  0.4971070000000 1.0
C      1  0.5518940000000  0.5786780000000  0.4681210000000 1.0
C      1  0.6167370000000  0.5184320000000  0.4981650000000 1.0
C      1  0.5209060000000  0.5221790000000  0.5452070000000 1.0
C      1  0.5729550000000  0.4447000000000  0.5434510000000 1.0
C      1  0.6113910000000  0.5451230000000  0.5069620000000 1.0
C      1  0.4303940000000  0.5022980000000  0.5214150000000 1.0
C      1  0.6161270000000  0.4919430000000  0.5039680000000 1.0
C      1  0.5877260000000  0.5437570000000  0.6020520000000 1.0
C      1  0.4491220000000  0.4658180000000  0.3808810000000 1.0
C      1  0.4834340000000  0.6077680000000  0.5542310000000 1.0
C      1  0.4818530000000  0.4574250000000  0.4144820000000 1.0
C      1  0.5404720000000  0.5263430000000  0.5910480000000 1.0
C      1  0.4667050000000  0.5601470000000  0.4342090000000 1.0
C      1  0.4789270000000  0.4453270000000  0.4857460000000 1.0
C      1  0.5230510000000  0.5725040000000  0.4694570000000 1.0
C      1  0.5898700000000  0.4969620000000  0.4459310000000 1.0
C      1  0.5644230000000  0.5680660000000  0.4445120000000 1.0
C      1  0.4594060000000  0.5237310000000  0.3942420000000 1.0
C      1  0.4257320000000  0.4544770000000  0.3880140000000 1.0
C      1  0.4763250000000  0.5288510000000  0.5244410000000 1.0
C      1  0.5325020000000  0.5654030000000  0.5605590000000 1.0
C      1  0.4707200000000  0.4898720000000  0.4973390000000 1.0
C      1  0.4812110000000  0.3755980000000  0.5113920000000 1.0
C      1  0.4551450000000  0.5691770000000  0.5091140000000 1.0
C      1  0.4217130000000  0.4105190000000  0.4992450000000 1.0
C      1  0.4636610000000  0.5528100000000  0.5313340000000 1.0
C      1  0.5302730000000  0.4452350000000  0.4166890000000 1.0
C      1  0.4890640000000  0.4735590000000  0.5824440000000 1.0
C      1  0.4628550000000  0.5168040000000  0.5861100000000 1.0
C      1  0.5887240000000  0.4472780000000  0.5196290000000 1.0
C      1  0.5455420000000  0.4729950000000  0.5012440000000 1.0
C      1  0.4627890000000  0.4886410000000  0.5761400000000 1.0
C      1  0.5029830000000  0.4374320000000  0.4187530000000 1.0
C      1  0.4974840000000  0.5086440000000  0.4409780000000 1.0
C      1  0.4666980000000  0.6242180000000  0.5369800000000 1.0
C      1  0.5315410000000  0.5379840000000  0.5664540000000 1.0
C      1  0.5741320000000  0.5179470000000  0.4553940000000 1.0
C      1  0.4362290000000  0.3945760000000  0.5171780000000 1.0
C      1  0.5015940000000  0.5786030000000  0.4913360000000 1.0
C      1  0.5314430000000  0.5268120000000  0.4779350000000 1.0
C      1  0.4408360000000  0.4692020000000  0.4414400000000 1.0
C      1  0.5128190000000  0.5609580000000  0.5158540000000 1.0
C      1  0.5447790000000  0.4285850000000  0.4592970000000 1.0
C      1  0.4183080000000  0.4519340000000  0.4375750000000 1.0
C      1  0.4675410000000  0.5674530000000  0.5861850000000 1.0
C      1  0.5022410000000  0.4932260000000  0.6006630000000 1.0
C      1  0.5121640000000  0.5322900000000  0.4347510000000 1.0
C      1  0.5277640000000  0.4412130000000  0.5701780000000 1.0
C      1  0.4842870000000  0.4304080000000  0.5501230000000 1.0
C      1  0.5740790000000  0.5429050000000  0.4419540000000 1.0
C      1  0.4597660000000  0.4641120000000  0.4941790000000 1.0
C      1  0.5925470000000  0.5634700000000  0.4963290000000 1.0
C      1  0.4122040000000  0.4477170000000  0.4103960000000 1.0
C      1  0.4096820000000  0.4391150000000  0.4609930000000 1.0
C      1  0.4418380000000  0.4053750000000  0.5424540000000 1.0
C      1  0.5274390000000  0.4737280000000  0.4541030000000 1.0
C      1  0.6068630000000  0.4687500000000  0.5143830000000 1.0
C      1  0.5604020000000  0.4970950000000  0.5004210000000 1.0
C      1  0.4717320000000  0.5707310000000  0.4851010000000 1.0
C      1  0.5006020000000  0.4419790000000  0.5043180000000 1.0
C      1  0.5409920000000  0.4517560000000  0.4424080000000 1.0
C      1  0.5619510000000  0.5375350000000  0.6050310000000 1.0
C      1  0.5506060000000  0.4537850000000  0.5585020000000 1.0
C      1  0.5059370000000  0.6011440000000  0.5363240000000 1.0
C      1  0.4982210000000  0.6059680000000  0.5073100000000 1.0
C      1  0.4752310000000  0.6234570000000  0.5104770000000 1.0
C      1  0.5002210000000  0.3962390000000  0.5099250000000 1.0
C      1  0.4407960000000  0.4721380000000  0.5717960000000 1.0
C      1  0.4832320000000  0.5144520000000  0.6065230000000 1.0
C      1  0.6180280000000  0.5493340000000  0.5343000000000 1.0
C      1  0.4780750000000  0.4387350000000  0.4583090000000 1.0
C      1  0.5568090000000  0.5143530000000  0.4778580000000 1.0
C      1  0.4544190000000  0.3746780000000  0.5092120000000 1.0
C      1  0.5011840000000  0.4806090000000  0.5372050000000 1.0
C      1  0.4987170000000  0.4232550000000  0.4451410000000 1.0
C      1  0.5817060000000  0.4310150000000  0.4975500000000 1.0
C      1  0.4583220000000  0.5610390000000  0.4611740000000 1.0
C      1  0.3964780000000  0.4683980000000  0.5305990000000 1.0
C      1  0.5214180000000  0.5453410000000  0.4583820000000 1.0
C      1  0.5286340000000  0.5024340000000  0.6003570000000 1.0
C      1  0.5253210000000  0.4554700000000  0.5030120000000 1.0
C      1  0.5121320000000  0.5169080000000  0.4961740000000 1.0
C      1  0.5150430000000  0.3981240000000  0.4853480000000 1.0
C      1  0.4196580000000  0.4358630000000  0.4872450000000 1.0
C      1  0.5700710000000  0.5771700000000  0.4900150000000 1.0
C      1  0.5183510000000  0.5319970000000  0.4071140000000 1.0
C      1  0.6039350000000  0.5360990000000  0.5547100000000 1.0
C      1  0.5847650000000  0.5177790000000  0.5449440000000 1.0
C      1  0.4326920000000  0.4581710000000  0.4998780000000 1.0
C      1  0.5061420000000  0.5143680000000  0.3901060000000 1.0
C      1  0.4798180000000  0.5033340000000  0.3911740000000 1.0
C      1  0.4431510000000  0.5483290000000  0.5514490000000 1.0
C      1  0.4312310000000  0.5214860000000  0.4525240000000 1.0
C      1  0.4760020000000  0.5910820000000  0.5757890000000 1.0
C      1  0.5669840000000  0.4253320000000  0.4760020000000 1.0
END
