TITL C-599894-471-1180 -171.142575621687 125000 -924.188403569146 0 0 152 (C1) n - 1
REM
REM in /home/nfs/bkarasulu/CARBON/AIRSS/Generating-Clusters/TERSOFF/Only-C1/FIRE-HFTN
REM
REM
REM
REM
REM
REM ./C.cell (11c1c37f851c82e70ff6c80c92926a4b)
REM AIRSS Version 0.9.1 bugfix July 2018 build 013d7b7c2542+ Fri, 06 Jul 2018 19:26:36 +0100
REM compiler GCC version 9.2.1 20190827 (Red Hat 9.2.1-1)
REM options -cpp -mtune=generic -march=x86-64 -g -O0 -fpre-include=/usr/include/finclude/math-vector-fortran.h
REM seed -1951627346 737816585 -818964697 -502960098 -991038868 -900650320 611180651 1758942010 -1890714148 -1144298834 1860245932 -1399728886 351948625 180477421 -1372154366 -2034098248 -1494426096 1636006988 -53824585 1755399198 -1948921223 1902013401 -641785933 1444425333 -542702609 -1570889935 1807476931 1730523906 1946816449 -1209188862 -70699156 -1712115801 316122462
REM
CELL 1.54180   50.00000   50.00000   50.00000   90.00000   90.00000   90.00000
LATT -1
SFAC C  
C      1  0.4802870000000  0.4360560000000  0.4195130000000 1.0
C      1  0.4335090000000  0.4375880000000  0.5419890000000 1.0
C      1  0.5268690000000  0.4667390000000  0.6168870000000 1.0
C      1  0.5793010000000  0.5771250000000  0.5288860000000 1.0
C      1  0.4861040000000  0.3761360000000  0.4791380000000 1.0
C      1  0.4291610000000  0.5474350000000  0.4245540000000 1.0
C      1  0.4293140000000  0.4297220000000  0.4287680000000 1.0
C      1  0.4510590000000  0.6054160000000  0.5170780000000 1.0
C      1  0.4990430000000  0.4500790000000  0.4367240000000 1.0
C      1  0.4009620000000  0.5644710000000  0.4924960000000 1.0
C      1  0.4531220000000  0.4836610000000  0.4031140000000 1.0
C      1  0.4556530000000  0.5380830000000  0.5818950000000 1.0
C      1  0.5996330000000  0.4905500000000  0.4986350000000 1.0
C      1  0.4893850000000  0.4984680000000  0.5117700000000 1.0
C      1  0.4596860000000  0.4755840000000  0.5993750000000 1.0
C      1  0.5324410000000  0.5915730000000  0.5298880000000 1.0
C      1  0.5308470000000  0.5408260000000  0.5608190000000 1.0
C      1  0.5110630000000  0.5089590000000  0.4970470000000 1.0
C      1  0.5151460000000  0.4949950000000  0.4290960000000 1.0
C      1  0.5137120000000  0.4151660000000  0.5505060000000 1.0
C      1  0.5884940000000  0.5105910000000  0.4833680000000 1.0
C      1  0.5180920000000  0.5452990000000  0.4610370000000 1.0
C      1  0.5100560000000  0.4441850000000  0.5486330000000 1.0
C      1  0.6012250000000  0.4526700000000  0.5665790000000 1.0
C      1  0.5352420000000  0.5035150000000  0.5104940000000 1.0
C      1  0.4844420000000  0.5202820000000  0.3966470000000 1.0
C      1  0.4198770000000  0.5622650000000  0.5136770000000 1.0
C      1  0.4932730000000  0.4516040000000  0.4668210000000 1.0
C      1  0.4589280000000  0.4874060000000  0.4306990000000 1.0
C      1  0.4892550000000  0.4042660000000  0.5628350000000 1.0
C      1  0.5308420000000  0.5538970000000  0.4369920000000 1.0
C      1  0.5016260000000  0.6106920000000  0.4573610000000 1.0
C      1  0.6064630000000  0.5382100000000  0.5601730000000 1.0
C      1  0.5030210000000  0.5311820000000  0.5656940000000 1.0
C      1  0.4736210000000  0.6172170000000  0.5085970000000 1.0
C      1  0.4020490000000  0.5413330000000  0.4732350000000 1.0
C      1  0.4731630000000  0.5464460000000  0.3934700000000 1.0
C      1  0.5658030000000  0.4533030000000  0.4375100000000 1.0
C      1  0.5017490000000  0.6184970000000  0.5059630000000 1.0
C      1  0.4043540000000  0.5887860000000  0.4773330000000 1.0
C      1  0.4804370000000  0.3832580000000  0.5043490000000 1.0
C      1  0.5455020000000  0.4818470000000  0.4646960000000 1.0
C      1  0.5660230000000  0.4199590000000  0.5528260000000 1.0
C      1  0.5442500000000  0.4560760000000  0.4181210000000 1.0
C      1  0.4880430000000  0.3945860000000  0.4578890000000 1.0
C      1  0.4182190000000  0.5553190000000  0.4494130000000 1.0
C      1  0.4364720000000  0.5208390000000  0.5361240000000 1.0
C      1  0.5859980000000  0.4235780000000  0.5296250000000 1.0
C      1  0.5163960000000  0.5189220000000  0.4709270000000 1.0
C      1  0.4088710000000  0.4904400000000  0.4710500000000 1.0
C      1  0.5825670000000  0.5061150000000  0.4549270000000 1.0
C      1  0.5350270000000  0.4957520000000  0.5675950000000 1.0
C      1  0.4231170000000  0.4371170000000  0.4565560000000 1.0
C      1  0.5696310000000  0.5502260000000  0.4714080000000 1.0
C      1  0.5716650000000  0.5321600000000  0.4945100000000 1.0
C      1  0.4125050000000  0.4363090000000  0.5230250000000 1.0
C      1  0.5177480000000  0.5706080000000  0.3943380000000 1.0
C      1  0.5766730000000  0.4811970000000  0.5435990000000 1.0
C      1  0.4068600000000  0.4551730000000  0.4732520000000 1.0
C      1  0.4645680000000  0.4540010000000  0.4690290000000 1.0
C      1  0.4758650000000  0.4072450000000  0.5149630000000 1.0
C      1  0.5180710000000  0.4668920000000  0.4230890000000 1.0
C      1  0.5780650000000  0.4356820000000  0.5746350000000 1.0
C      1  0.5704370000000  0.4796710000000  0.4504070000000 1.0
C      1  0.4455020000000  0.4983510000000  0.5477400000000 1.0
C      1  0.4412060000000  0.4803340000000  0.5062260000000 1.0
C      1  0.5580500000000  0.5932490000000  0.5165980000000 1.0
C      1  0.5772580000000  0.5251780000000  0.3862040000000 1.0
C      1  0.4630440000000  0.4102710000000  0.5699490000000 1.0
C      1  0.5372570000000  0.4210540000000  0.6022790000000 1.0
C      1  0.5211500000000  0.5763470000000  0.4220590000000 1.0
C      1  0.5161170000000  0.6141040000000  0.5299010000000 1.0
C      1  0.4913090000000  0.5664380000000  0.3856690000000 1.0
C      1  0.4469630000000  0.6012130000000  0.4530000000000 1.0
C      1  0.4723210000000  0.6116340000000  0.4555220000000 1.0
C      1  0.5065240000000  0.5024180000000  0.5605060000000 1.0
C      1  0.5011850000000  0.5616020000000  0.5024240000000 1.0
C      1  0.5370560000000  0.5451460000000  0.5330000000000 1.0
C      1  0.4382210000000  0.4259810000000  0.5679680000000 1.0
C      1  0.5613130000000  0.5772710000000  0.4716070000000 1.0
C      1  0.4161960000000  0.4846810000000  0.5144830000000 1.0
C      1  0.5466880000000  0.5212720000000  0.5750930000000 1.0
C      1  0.4776440000000  0.5675920000000  0.4611150000000 1.0
C      1  0.4017410000000  0.4439510000000  0.4992480000000 1.0
C      1  0.5350010000000  0.4788410000000  0.5245520000000 1.0
C      1  0.4719310000000  0.5128050000000  0.4413680000000 1.0
C      1  0.5544750000000  0.5407680000000  0.4266770000000 1.0
C      1  0.5909990000000  0.5561390000000  0.5427290000000 1.0
C      1  0.5271790000000  0.4998900000000  0.4540770000000 1.0
C      1  0.6076820000000  0.4222030000000  0.4721750000000 1.0
C      1  0.4699570000000  0.4985300000000  0.3857030000000 1.0
C      1  0.6047230000000  0.5095610000000  0.5664590000000 1.0
C      1  0.4731230000000  0.4333520000000  0.5196380000000 1.0
C      1  0.4637260000000  0.4090470000000  0.4525560000000 1.0
C      1  0.5494070000000  0.4809060000000  0.5484190000000 1.0
C      1  0.4867550000000  0.4672150000000  0.5940290000000 1.0
C      1  0.4649390000000  0.4777200000000  0.5455110000000 1.0
C      1  0.5471100000000  0.4050720000000  0.5134390000000 1.0
C      1  0.4328960000000  0.5861920000000  0.5217870000000 1.0
C      1  0.5172220000000  0.6114870000000  0.4821650000000 1.0
C      1  0.5398580000000  0.5564410000000  0.3836490000000 1.0
C      1  0.5631900000000  0.4286910000000  0.4546920000000 1.0
C      1  0.6467210000000  0.5636250000000  0.5864220000000 1.0
C      1  0.4420530000000  0.5175280000000  0.5961530000000 1.0
C      1  0.4476440000000  0.5503140000000  0.4051820000000 1.0
C      1  0.4206190000000  0.4983450000000  0.5857180000000 1.0
C      1  0.4324270000000  0.4707890000000  0.5909740000000 1.0
C      1  0.5723370000000  0.4168550000000  0.5043620000000 1.0
C      1  0.5162770000000  0.4564950000000  0.5213530000000 1.0
C      1  0.5805780000000  0.4226990000000  0.4773500000000 1.0
C      1  0.5398070000000  0.4121320000000  0.4508050000000 1.0
C      1  0.6274770000000  0.5513560000000  0.5738370000000 1.0
C      1  0.5217940000000  0.5662360000000  0.5217890000000 1.0
C      1  0.6083830000000  0.4385920000000  0.5410610000000 1.0
C      1  0.4343620000000  0.5376890000000  0.5136910000000 1.0
C      1  0.5405910000000  0.4086410000000  0.5419730000000 1.0
C      1  0.4570590000000  0.5363640000000  0.4948840000000 1.0
C      1  0.4581330000000  0.4513550000000  0.5352260000000 1.0
C      1  0.5059520000000  0.4526110000000  0.5770380000000 1.0
C      1  0.5965560000000  0.4817860000000  0.5639790000000 1.0
C      1  0.5492540000000  0.5968850000000  0.4881360000000 1.0
C      1  0.5273570000000  0.4458590000000  0.5970070000000 1.0
C      1  0.4722190000000  0.5543730000000  0.5391610000000 1.0
C      1  0.4860840000000  0.5028720000000  0.6251730000000 1.0
C      1  0.4237230000000  0.5845170000000  0.4562240000000 1.0
C      1  0.4602660000000  0.5023290000000  0.6129160000000 1.0
C      1  0.5025870000000  0.4815310000000  0.6158690000000 1.0
C      1  0.4775140000000  0.5433860000000  0.5643870000000 1.0
C      1  0.4773390000000  0.5502270000000  0.5116330000000 1.0
C      1  0.5146760000000  0.4020660000000  0.4502980000000 1.0
C      1  0.5580920000000  0.5402650000000  0.3983800000000 1.0
C      1  0.5876500000000  0.4776470000000  0.5183200000000 1.0
C      1  0.3888420000000  0.5101340000000  0.5419690000000 1.0
C      1  0.4269090000000  0.4432160000000  0.5876730000000 1.0
C      1  0.3954110000000  0.5048920000000  0.5142080000000 1.0
C      1  0.3995680000000  0.5050900000000  0.5669760000000 1.0
C      1  0.4572800000000  0.4201270000000  0.4255400000000 1.0
C      1  0.5147020000000  0.6004130000000  0.4345460000000 1.0
C      1  0.4558370000000  0.5199560000000  0.4677450000000 1.0
C      1  0.5117540000000  0.4522190000000  0.4910210000000 1.0
C      1  0.4900780000000  0.4913800000000  0.5401260000000 1.0
C      1  0.5723490000000  0.5330200000000  0.4471110000000 1.0
C      1  0.5009830000000  0.5626500000000  0.4743190000000 1.0
C      1  0.4944820000000  0.5140650000000  0.4228380000000 1.0
C      1  0.4496850000000  0.4292540000000  0.4691610000000 1.0
C      1  0.4660380000000  0.4884080000000  0.5003910000000 1.0
C      1  0.5510300000000  0.5271640000000  0.5146470000000 1.0
C      1  0.5372310000000  0.4606270000000  0.4803580000000 1.0
C      1  0.4513230000000  0.4751100000000  0.4550800000000 1.0
C      1  0.3957870000000  0.5135140000000  0.4848300000000 1.0
C      1  0.4360220000000  0.4968510000000  0.4667120000000 1.0
C      1  0.4313630000000  0.4703420000000  0.3935830000000 1.0
END
