TITL C-599897-7526-475 2.89198939123901 125000 -255.050433629375 0 0 45 (C1) n - 1
REM
REM in /home/nfs/bkarasulu/CARBON/AIRSS/Generating-Clusters/TERSOFF/Only-C1/FIRE-HFTN
REM
REM
REM
REM
REM
REM ./C.cell (11c1c37f851c82e70ff6c80c92926a4b)
REM AIRSS Version 0.9.1 bugfix July 2018 build 013d7b7c2542+ Fri, 06 Jul 2018 19:26:36 +0100
REM compiler GCC version 9.2.1 20190827 (Red Hat 9.2.1-1)
REM options -cpp -mtune=generic -march=x86-64 -g -O0 -fpre-include=/usr/include/finclude/math-vector-fortran.h
REM seed -1135931798 973841484 -277837190 -1742801906 -131765384 753625184 -469273412 -1088938313 1819194019 -1088457291 -524656163 999237533 711899405 604199819 2003601573 445858642 -468323899 -2085674152 74098145 -672097337 716768272 1817208490 1166223459 -451124967 -825766630 1184433981 -1222325098 1485840768 -1806621214 2056596973 -1237520094 423811149 -2082513109
REM
CELL 1.54180   50.00000   50.00000   50.00000   90.00000   90.00000   90.00000
LATT -1
SFAC C  
C      1  0.6155800000000  0.5604920000000  0.5210530000000 1.0
C      1  0.5804360000000  0.5859150000000  0.5821090000000 1.0
C      1  0.4051980000000  0.5611980000000  0.5113770000000 1.0
C      1  0.5194300000000  0.5502270000000  0.5044870000000 1.0
C      1  0.4307400000000  0.4775490000000  0.5277150000000 1.0
C      1  0.5097560000000  0.5107660000000  0.4446810000000 1.0
C      1  0.4092430000000  0.3981510000000  0.5068270000000 1.0
C      1  0.5879110000000  0.5287690000000  0.5024480000000 1.0
C      1  0.6070410000000  0.5702260000000  0.4966630000000 1.0
C      1  0.4339740000000  0.4068040000000  0.5028680000000 1.0
C      1  0.4832190000000  0.4285380000000  0.4955120000000 1.0
C      1  0.3353310000000  0.3727010000000  0.5187590000000 1.0
C      1  0.4472230000000  0.5603570000000  0.4881290000000 1.0
C      1  0.5100860000000  0.5366670000000  0.4822470000000 1.0
C      1  0.5083210000000  0.4700660000000  0.4879800000000 1.0
C      1  0.5067270000000  0.4157440000000  0.5038590000000 1.0
C      1  0.4288360000000  0.5487150000000  0.5056660000000 1.0
C      1  0.5728910000000  0.5058210000000  0.4985490000000 1.0
C      1  0.3844750000000  0.3896210000000  0.5108250000000 1.0
C      1  0.4852380000000  0.4544690000000  0.4838400000000 1.0
C      1  0.5221890000000  0.5126370000000  0.4707790000000 1.0
C      1  0.3596990000000  0.3810910000000  0.5148250000000 1.0
C      1  0.5287390000000  0.4893200000000  0.4851400000000 1.0
C      1  0.4867990000000  0.5437330000000  0.4662920000000 1.0
C      1  0.4459890000000  0.5002800000000  0.5271910000000 1.0
C      1  0.5537170000000  0.4340000000000  0.5091340000000 1.0
C      1  0.5895190000000  0.5512700000000  0.4837260000000 1.0
C      1  0.4731620000000  0.5895230000000  0.4600670000000 1.0
C      1  0.4646840000000  0.4647680000000  0.4677010000000 1.0
C      1  0.5615370000000  0.4589620000000  0.5041510000000 1.0
C      1  0.4718210000000  0.5000410000000  0.5362730000000 1.0
C      1  0.4549710000000  0.4840150000000  0.4519520000000 1.0
C      1  0.4839170000000  0.5240860000000  0.4447820000000 1.0
C      1  0.4583910000000  0.4163450000000  0.4990780000000 1.0
C      1  0.5463070000000  0.5707480000000  0.5451370000000 1.0
C      1  0.5629740000000  0.5788020000000  0.5641060000000 1.0
C      1  0.5547100000000  0.4848620000000  0.4958700000000 1.0
C      1  0.4690850000000  0.5649520000000  0.4713270000000 1.0
C      1  0.6078680000000  0.5187600000000  0.5479260000000 1.0
C      1  0.6042860000000  0.5344030000000  0.5260980000000 1.0
C      1  0.4612910000000  0.5079570000000  0.4416210000000 1.0
C      1  0.5315060000000  0.5613160000000  0.5252850000000 1.0
C      1  0.5327940000000  0.4174930000000  0.5090230000000 1.0
C      1  0.5773060000000  0.5537910000000  0.4596730000000 1.0
C      1  0.4350860000000  0.5240510000000  0.5172480000000 1.0
END
