TITL C-599895-9959-649 -831.342409419132 125000 -761.792809188538 0 0 127 (C1) n - 1
REM
REM in /home/nfs/bkarasulu/CARBON/AIRSS/Generating-Clusters/TERSOFF/Only-C1/FIRE-HFTN
REM
REM
REM
REM
REM
REM ./C.cell (11c1c37f851c82e70ff6c80c92926a4b)
REM AIRSS Version 0.9.1 bugfix July 2018 build 013d7b7c2542+ Fri, 06 Jul 2018 19:26:36 +0100
REM compiler GCC version 9.2.1 20190827 (Red Hat 9.2.1-1)
REM options -cpp -mtune=generic -march=x86-64 -g -O0 -fpre-include=/usr/include/finclude/math-vector-fortran.h
REM seed -1430404750 1427968172 223741398 -1565264776 1234521717 22497965 345316263 1584101996 496639624 674095611 215638876 1190838320 1462855911 -1712641466 2090871021 53585555 -1469971777 -1107775695 -1790335006 284585952 -906000162 1369320907 999990648 19812317 -1155164039 1369721390 -1463646329 -608524437 -798694207 1575793589 -2104868538 -765732884 930864079
REM
CELL 1.54180   50.00000   50.00000   50.00000   90.00000   90.00000   90.00000
LATT -1
SFAC C  
C      1  0.5199650000000  0.5330210000000  0.5718230000000 1.0
C      1  0.4817730000000  0.4970620000000  0.4113150000000 1.0
C      1  0.5611630000000  0.5056760000000  0.4821840000000 1.0
C      1  0.5679740000000  0.4498550000000  0.4536350000000 1.0
C      1  0.5920820000000  0.5154420000000  0.5540600000000 1.0
C      1  0.4248450000000  0.5811590000000  0.5377530000000 1.0
C      1  0.5842190000000  0.5411250000000  0.4370450000000 1.0
C      1  0.4371080000000  0.4763710000000  0.4297520000000 1.0
C      1  0.4883810000000  0.4615780000000  0.5770570000000 1.0
C      1  0.6171640000000  0.5946470000000  0.4753160000000 1.0
C      1  0.4684740000000  0.4764070000000  0.5633310000000 1.0
C      1  0.5014960000000  0.5145480000000  0.4214020000000 1.0
C      1  0.4392560000000  0.4099200000000  0.4682230000000 1.0
C      1  0.5059980000000  0.4780850000000  0.5925900000000 1.0
C      1  0.4735890000000  0.6331620000000  0.4615080000000 1.0
C      1  0.4915180000000  0.4614600000000  0.5123740000000 1.0
C      1  0.4302550000000  0.4507070000000  0.4434520000000 1.0
C      1  0.4989380000000  0.5839200000000  0.5073180000000 1.0
C      1  0.5219540000000  0.4968680000000  0.5381130000000 1.0
C      1  0.4607290000000  0.5616830000000  0.4187340000000 1.0
C      1  0.4395730000000  0.5528700000000  0.5750640000000 1.0
C      1  0.5393000000000  0.5612230000000  0.4330230000000 1.0
C      1  0.5139860000000  0.4511350000000  0.5003960000000 1.0
C      1  0.5468150000000  0.4855150000000  0.4965450000000 1.0
C      1  0.5006540000000  0.5236690000000  0.4486560000000 1.0
C      1  0.4474550000000  0.4722280000000  0.5150150000000 1.0
C      1  0.6317670000000  0.5441150000000  0.5633170000000 1.0
C      1  0.4425610000000  0.5423460000000  0.4233030000000 1.0
C      1  0.4595250000000  0.4823030000000  0.4138750000000 1.0
C      1  0.4164820000000  0.5243970000000  0.5070960000000 1.0
C      1  0.4851160000000  0.5759740000000  0.4180990000000 1.0
C      1  0.4878580000000  0.4134850000000  0.4773020000000 1.0
C      1  0.4771510000000  0.5212290000000  0.5956590000000 1.0
C      1  0.5645280000000  0.4625470000000  0.4062840000000 1.0
C      1  0.4645030000000  0.4492570000000  0.5180210000000 1.0
C      1  0.5579330000000  0.5438070000000  0.4463280000000 1.0
C      1  0.4448860000000  0.5247560000000  0.5817300000000 1.0
C      1  0.4134680000000  0.4984550000000  0.4943120000000 1.0
C      1  0.5069370000000  0.5145800000000  0.5539710000000 1.0
C      1  0.4739950000000  0.4383550000000  0.4775100000000 1.0
C      1  0.4345970000000  0.4007220000000  0.5649380000000 1.0
C      1  0.5542590000000  0.4297150000000  0.4967110000000 1.0
C      1  0.4915480000000  0.3944200000000  0.4976940000000 1.0
C      1  0.6060520000000  0.5046990000000  0.5303220000000 1.0
C      1  0.4639820000000  0.6106810000000  0.5289360000000 1.0
C      1  0.6043920000000  0.5244410000000  0.4320900000000 1.0
C      1  0.5054040000000  0.5692500000000  0.3990900000000 1.0
C      1  0.4067490000000  0.4851600000000  0.5587580000000 1.0
C      1  0.3964940000000  0.4465770000000  0.4893640000000 1.0
C      1  0.5453410000000  0.5347650000000  0.5574920000000 1.0
C      1  0.5341410000000  0.4789420000000  0.5863870000000 1.0
C      1  0.5537610000000  0.4617980000000  0.4313980000000 1.0
C      1  0.4235550000000  0.4986850000000  0.4428760000000 1.0
C      1  0.4779260000000  0.5152780000000  0.4642940000000 1.0
C      1  0.4453860000000  0.5838430000000  0.4950290000000 1.0
C      1  0.5219010000000  0.5254940000000  0.4053690000000 1.0
C      1  0.5286490000000  0.4288280000000  0.5067300000000 1.0
C      1  0.4973480000000  0.5425950000000  0.5889880000000 1.0
C      1  0.5050920000000  0.3918340000000  0.5211650000000 1.0
C      1  0.6305940000000  0.5183650000000  0.5242640000000 1.0
C      1  0.4234580000000  0.3905620000000  0.5862040000000 1.0
C      1  0.4784850000000  0.4197100000000  0.4059210000000 1.0
C      1  0.4736680000000  0.5466850000000  0.5411430000000 1.0
C      1  0.4896760000000  0.4916090000000  0.5079300000000 1.0
C      1  0.4844730000000  0.6109270000000  0.4533510000000 1.0
C      1  0.5001510000000  0.4138670000000  0.4509240000000 1.0
C      1  0.5235570000000  0.5809800000000  0.4463950000000 1.0
C      1  0.4239680000000  0.5431660000000  0.4868550000000 1.0
C      1  0.4836990000000  0.4856340000000  0.4637430000000 1.0
C      1  0.5249940000000  0.4102140000000  0.5283410000000 1.0
C      1  0.5162230000000  0.5385740000000  0.5125080000000 1.0
C      1  0.4484850000000  0.5568690000000  0.4879600000000 1.0
C      1  0.5999960000000  0.4827400000000  0.5135800000000 1.0
C      1  0.4470630000000  0.4259640000000  0.4452280000000 1.0
C      1  0.6134550000000  0.4995250000000  0.4348540000000 1.0
C      1  0.5206500000000  0.5223030000000  0.4691620000000 1.0
C      1  0.4850340000000  0.5682480000000  0.5894810000000 1.0
C      1  0.4005130000000  0.4580890000000  0.5161610000000 1.0
C      1  0.4964920000000  0.5566570000000  0.5006950000000 1.0
C      1  0.4680560000000  0.4633670000000  0.4698400000000 1.0
C      1  0.4417080000000  0.5955840000000  0.5204600000000 1.0
C      1  0.5796900000000  0.5736200000000  0.5055700000000 1.0
C      1  0.4456110000000  0.4117870000000  0.5435270000000 1.0
C      1  0.4511930000000  0.4238180000000  0.5189470000000 1.0
C      1  0.4583620000000  0.5717710000000  0.5849760000000 1.0
C      1  0.4738010000000  0.5436940000000  0.4852600000000 1.0
C      1  0.4755760000000  0.4198840000000  0.4331190000000 1.0
C      1  0.5646540000000  0.5120750000000  0.5619210000000 1.0
C      1  0.6077390000000  0.5333510000000  0.5700460000000 1.0
C      1  0.4403210000000  0.4117950000000  0.4952890000000 1.0
C      1  0.5616820000000  0.4394590000000  0.5347520000000 1.0
C      1  0.6432670000000  0.5366960000000  0.5398150000000 1.0
C      1  0.5121830000000  0.4770750000000  0.4594530000000 1.0
C      1  0.5536000000000  0.4290960000000  0.4674990000000 1.0
C      1  0.4631970000000  0.4951450000000  0.5191260000000 1.0
C      1  0.6086370000000  0.4757580000000  0.4459560000000 1.0
C      1  0.5968220000000  0.4674980000000  0.4916170000000 1.0
C      1  0.5293770000000  0.4176980000000  0.4532780000000 1.0
C      1  0.5274230000000  0.5530550000000  0.4076610000000 1.0
C      1  0.4247980000000  0.5558420000000  0.5500040000000 1.0
C      1  0.5989140000000  0.5844410000000  0.4908840000000 1.0
C      1  0.5435640000000  0.4840030000000  0.5246730000000 1.0
C      1  0.4941250000000  0.4091590000000  0.5853370000000 1.0
C      1  0.5103040000000  0.5139030000000  0.4970370000000 1.0
C      1  0.4186240000000  0.5297690000000  0.5368320000000 1.0
C      1  0.3950000000000  0.4649550000000  0.5437950000000 1.0
C      1  0.4892080000000  0.6047040000000  0.5212570000000 1.0
C      1  0.5401600000000  0.5446060000000  0.5293810000000 1.0
C      1  0.4211900000000  0.4768410000000  0.5103330000000 1.0
C      1  0.4250170000000  0.5269950000000  0.4394110000000 1.0
C      1  0.5577990000000  0.4668160000000  0.5430610000000 1.0
C      1  0.4649490000000  0.4992860000000  0.5468330000000 1.0
C      1  0.5485110000000  0.5250330000000  0.4657770000000 1.0
C      1  0.4899740000000  0.4339070000000  0.5782580000000 1.0
C      1  0.4967620000000  0.5894550000000  0.4407710000000 1.0
C      1  0.5264850000000  0.4702700000000  0.4833060000000 1.0
C      1  0.4095270000000  0.4582120000000  0.4655160000000 1.0
C      1  0.5468900000000  0.4179460000000  0.5453680000000 1.0
C      1  0.4130180000000  0.5412820000000  0.4609100000000 1.0
C      1  0.4108990000000  0.4885630000000  0.4670240000000 1.0
C      1  0.4222150000000  0.5094730000000  0.5598860000000 1.0
C      1  0.5275980000000  0.4717070000000  0.4364210000000 1.0
C      1  0.5918400000000  0.4622240000000  0.4641020000000 1.0
C      1  0.5559110000000  0.4838260000000  0.5678230000000 1.0
C      1  0.4905450000000  0.4982310000000  0.6058170000000 1.0
C      1  0.5599630000000  0.5611680000000  0.5180990000000 1.0
C      1  0.4807280000000  0.5218020000000  0.5491450000000 1.0
END
