TITL C-599894-471-187 -6979.49080269247 125000 -1029.60268470063 0 0 167 (C1) n - 1
REM
REM in /home/nfs/bkarasulu/CARBON/AIRSS/Generating-Clusters/TERSOFF/Only-C1/FIRE-HFTN
REM
REM
REM
REM
REM
REM ./C.cell (11c1c37f851c82e70ff6c80c92926a4b)
REM AIRSS Version 0.9.1 bugfix July 2018 build 013d7b7c2542+ Fri, 06 Jul 2018 19:26:36 +0100
REM compiler GCC version 9.2.1 20190827 (Red Hat 9.2.1-1)
REM options -cpp -mtune=generic -march=x86-64 -g -O0 -fpre-include=/usr/include/finclude/math-vector-fortran.h
REM seed -1818599878 -1290049048 -601891957 374906221 -1566556420 927123136 -1590207273 -1176371664 1421610582 144102294 748298756 2057639922 834658984 -1484836674 -2102390771 -1866634280 1608749809 -1017072442 -631950159 847015180 657982568 982457601 433234582 -1213462025 1299815737 -332023571 -2120268021 733902159 -1746253973 612056915 -1529865525 805939155 1360532070
REM
CELL 1.54180   50.00000   50.00000   50.00000   90.00000   90.00000   90.00000
LATT -1
SFAC C  
C      1  0.4075770000000  0.5132270000000  0.4819770000000 1.0
C      1  0.3547840000000  0.4996150000000  0.5347250000000 1.0
C      1  0.5408810000000  0.4568400000000  0.5466510000000 1.0
C      1  0.4730460000000  0.5916130000000  0.4081550000000 1.0
C      1  0.5283960000000  0.5197450000000  0.3928040000000 1.0
C      1  0.4851360000000  0.4558960000000  0.5559110000000 1.0
C      1  0.5592840000000  0.5730510000000  0.6017260000000 1.0
C      1  0.4733800000000  0.5661380000000  0.6008970000000 1.0
C      1  0.4856970000000  0.6048910000000  0.4967020000000 1.0
C      1  0.4570270000000  0.4575840000000  0.5454470000000 1.0
C      1  0.6314460000000  0.4474560000000  0.4542990000000 1.0
C      1  0.4852070000000  0.4540220000000  0.6400600000000 1.0
C      1  0.5258070000000  0.5750450000000  0.5521180000000 1.0
C      1  0.4779010000000  0.5928640000000  0.5976510000000 1.0
C      1  0.3901660000000  0.5815570000000  0.5231640000000 1.0
C      1  0.5452070000000  0.6224440000000  0.5422510000000 1.0
C      1  0.4499190000000  0.5072890000000  0.4539510000000 1.0
C      1  0.4985770000000  0.6080350000000  0.5243310000000 1.0
C      1  0.5837350000000  0.4285300000000  0.5091490000000 1.0
C      1  0.4143130000000  0.5684060000000  0.4438900000000 1.0
C      1  0.5349560000000  0.4994920000000  0.4748160000000 1.0
C      1  0.3805320000000  0.5085060000000  0.5369890000000 1.0
C      1  0.4937490000000  0.4581090000000  0.4229770000000 1.0
C      1  0.5066340000000  0.3850080000000  0.5300450000000 1.0
C      1  0.4540790000000  0.5022980000000  0.4833290000000 1.0
C      1  0.5245880000000  0.4424670000000  0.5285460000000 1.0
C      1  0.5510540000000  0.5333930000000  0.5084250000000 1.0
C      1  0.4992570000000  0.4349770000000  0.5383940000000 1.0
C      1  0.4299870000000  0.4993310000000  0.5401200000000 1.0
C      1  0.4935520000000  0.4074800000000  0.5365380000000 1.0
C      1  0.4950400000000  0.5783320000000  0.4808250000000 1.0
C      1  0.4545150000000  0.4995500000000  0.4046450000000 1.0
C      1  0.5101890000000  0.4559050000000  0.6274090000000 1.0
C      1  0.4968970000000  0.4910450000000  0.5226790000000 1.0
C      1  0.4403550000000  0.4955760000000  0.4301100000000 1.0
C      1  0.5314450000000  0.5702970000000  0.5976240000000 1.0
C      1  0.4028790000000  0.4906000000000  0.5348960000000 1.0
C      1  0.5299020000000  0.4901680000000  0.4014270000000 1.0
C      1  0.4940120000000  0.4847190000000  0.5513880000000 1.0
C      1  0.5883300000000  0.4679680000000  0.4472800000000 1.0
C      1  0.5817680000000  0.5942220000000  0.5655710000000 1.0
C      1  0.5787470000000  0.5532940000000  0.4684130000000 1.0
C      1  0.5411430000000  0.2664610000000  0.5207340000000 1.0
C      1  0.5378420000000  0.5093210000000  0.5004950000000 1.0
C      1  0.5158820000000  0.5456240000000  0.3970720000000 1.0
C      1  0.5273250000000  0.6125860000000  0.5227960000000 1.0
C      1  0.4423540000000  0.3906360000000  0.3980210000000 1.0
C      1  0.4240720000000  0.4164540000000  0.5052000000000 1.0
C      1  0.5512470000000  0.3895520000000  0.5118770000000 1.0
C      1  0.5209560000000  0.3896450000000  0.4059880000000 1.0
C      1  0.5331780000000  0.3451260000000  0.5208350000000 1.0
C      1  0.6145530000000  0.5192230000000  0.4680040000000 1.0
C      1  0.5360600000000  0.4342730000000  0.5040790000000 1.0
C      1  0.4045430000000  0.4849370000000  0.4817630000000 1.0
C      1  0.6386720000000  0.5127520000000  0.4754560000000 1.0
C      1  0.4973960000000  0.5444900000000  0.5249110000000 1.0
C      1  0.5921610000000  0.4377400000000  0.5351200000000 1.0
C      1  0.5403020000000  0.5991870000000  0.5014350000000 1.0
C      1  0.5715700000000  0.5679160000000  0.4447000000000 1.0
C      1  0.5192990000000  0.5653200000000  0.4738360000000 1.0
C      1  0.5329530000000  0.5021700000000  0.6304000000000 1.0
C      1  0.4966160000000  0.5319220000000  0.4466420000000 1.0
C      1  0.5186510000000  0.5924800000000  0.4149960000000 1.0
C      1  0.5001650000000  0.5054200000000  0.5695160000000 1.0
C      1  0.5417550000000  0.5749000000000  0.4880590000000 1.0
C      1  0.5385210000000  0.2924000000000  0.5207640000000 1.0
C      1  0.5302510000000  0.4480770000000  0.4805870000000 1.0
C      1  0.5090540000000  0.4368470000000  0.4116010000000 1.0
C      1  0.5199930000000  0.5868240000000  0.5769910000000 1.0
C      1  0.4491300000000  0.5352080000000  0.4468470000000 1.0
C      1  0.5067310000000  0.4851080000000  0.4220650000000 1.0
C      1  0.5288310000000  0.5247650000000  0.6171540000000 1.0
C      1  0.5462670000000  0.5373450000000  0.5364450000000 1.0
C      1  0.4394310000000  0.5154500000000  0.5865530000000 1.0
C      1  0.4484070000000  0.5852010000000  0.4755280000000 1.0
C      1  0.4586000000000  0.4722540000000  0.3964560000000 1.0
C      1  0.5049200000000  0.5350460000000  0.5726460000000 1.0
C      1  0.4221290000000  0.4738250000000  0.4324700000000 1.0
C      1  0.4359240000000  0.4045980000000  0.4496710000000 1.0
C      1  0.4645530000000  0.4549250000000  0.4197510000000 1.0
C      1  0.5310990000000  0.5676060000000  0.4095790000000 1.0
C      1  0.4400350000000  0.4512040000000  0.4370190000000 1.0
C      1  0.5805610000000  0.5445180000000  0.5692250000000 1.0
C      1  0.4728770000000  0.5437730000000  0.5142800000000 1.0
C      1  0.4915400000000  0.6200100000000  0.4461180000000 1.0
C      1  0.5611760000000  0.5546550000000  0.4913720000000 1.0
C      1  0.4401820000000  0.5568870000000  0.4046710000000 1.0
C      1  0.4592230000000  0.5805810000000  0.5447090000000 1.0
C      1  0.4445840000000  0.4818400000000  0.6265150000000 1.0
C      1  0.3773800000000  0.5584140000000  0.5278560000000 1.0
C      1  0.4073190000000  0.4612080000000  0.4953150000000 1.0
C      1  0.5929010000000  0.4847600000000  0.5463970000000 1.0
C      1  0.5301150000000  0.3944250000000  0.3807600000000 1.0
C      1  0.4666840000000  0.5655100000000  0.3989140000000 1.0
C      1  0.5580190000000  0.4162200000000  0.5065660000000 1.0
C      1  0.6342400000000  0.4631440000000  0.5314270000000 1.0
C      1  0.4326340000000  0.4323530000000  0.4575740000000 1.0
C      1  0.5254140000000  0.4696620000000  0.3798460000000 1.0
C      1  0.5131450000000  0.4448940000000  0.6013830000000 1.0
C      1  0.5214570000000  0.5408320000000  0.4571120000000 1.0
C      1  0.5659490000000  0.5261060000000  0.5536270000000 1.0
C      1  0.5298240000000  0.4197790000000  0.3707970000000 1.0
C      1  0.6071070000000  0.4620810000000  0.5375270000000 1.0
C      1  0.6572700000000  0.4458070000000  0.4486130000000 1.0
C      1  0.4763400000000  0.5179920000000  0.4058000000000 1.0
C      1  0.3841200000000  0.5056950000000  0.4401700000000 1.0
C      1  0.5303820000000  0.3728410000000  0.5209150000000 1.0
C      1  0.5777480000000  0.4302270000000  0.5585840000000 1.0
C      1  0.4234150000000  0.5845980000000  0.4633150000000 1.0
C      1  0.4945080000000  0.5996830000000  0.5756400000000 1.0
C      1  0.5209890000000  0.4423450000000  0.3854600000000 1.0
C      1  0.5961060000000  0.4378860000000  0.4856660000000 1.0
C      1  0.4424690000000  0.4336110000000  0.5462660000000 1.0
C      1  0.3952290000000  0.4822550000000  0.4316580000000 1.0
C      1  0.5732310000000  0.4883220000000  0.4352520000000 1.0
C      1  0.5689820000000  0.5130980000000  0.4482040000000 1.0
C      1  0.3862550000000  0.5358450000000  0.5419210000000 1.0
C      1  0.4363400000000  0.3854790000000  0.4703160000000 1.0
C      1  0.4083940000000  0.5405020000000  0.5584790000000 1.0
C      1  0.4382760000000  0.3970360000000  0.4229550000000 1.0
C      1  0.4898230000000  0.6244760000000  0.4731320000000 1.0
C      1  0.4468180000000  0.5404800000000  0.5079040000000 1.0
C      1  0.4715690000000  0.5706340000000  0.4668640000000 1.0
C      1  0.5296920000000  0.4725790000000  0.4702130000000 1.0
C      1  0.5676870000000  0.6143340000000  0.5546330000000 1.0
C      1  0.5216780000000  0.5430210000000  0.5973680000000 1.0
C      1  0.4695430000000  0.4907320000000  0.5083140000000 1.0
C      1  0.4608240000000  0.4647670000000  0.6388670000000 1.0
C      1  0.5565300000000  0.4840710000000  0.4133440000000 1.0
C      1  0.4940570000000  0.6037310000000  0.4227060000000 1.0
C      1  0.5188930000000  0.5467570000000  0.5460320000000 1.0
C      1  0.5358510000000  0.3187730000000  0.5207970000000 1.0
C      1  0.4201790000000  0.4238870000000  0.5324690000000 1.0
C      1  0.5111500000000  0.4101810000000  0.4209600000000 1.0
C      1  0.4384500000000  0.4997760000000  0.6079160000000 1.0
C      1  0.5445060000000  0.4840080000000  0.5405410000000 1.0
C      1  0.4354740000000  0.5291540000000  0.5601600000000 1.0
C      1  0.5564480000000  0.5654140000000  0.4223740000000 1.0
C      1  0.4421770000000  0.5915250000000  0.5241270000000 1.0
C      1  0.4832660000000  0.5983980000000  0.5485280000000 1.0
C      1  0.4307040000000  0.5499170000000  0.4304020000000 1.0
C      1  0.4567540000000  0.5526430000000  0.5578950000000 1.0
C      1  0.5533740000000  0.4415940000000  0.5671460000000 1.0
C      1  0.4734290000000  0.5473730000000  0.4523920000000 1.0
C      1  0.6049140000000  0.4510590000000  0.4624490000000 1.0
C      1  0.5780350000000  0.5704920000000  0.5804700000000 1.0
C      1  0.5683180000000  0.4980010000000  0.5493650000000 1.0
C      1  0.4142920000000  0.5927670000000  0.5254280000000 1.0
C      1  0.5383330000000  0.4380210000000  0.5905610000000 1.0
C      1  0.6591370000000  0.4632780000000  0.5237290000000 1.0
C      1  0.4774630000000  0.5489110000000  0.5783550000000 1.0
C      1  0.4860280000000  0.5441550000000  0.3963500000000 1.0
C      1  0.3907930000000  0.5224430000000  0.4608050000000 1.0
C      1  0.4554020000000  0.5988530000000  0.4998930000000 1.0
C      1  0.5258140000000  0.4944280000000  0.5206960000000 1.0
C      1  0.5890080000000  0.5278230000000  0.4617180000000 1.0
C      1  0.5275000000000  0.4765570000000  0.6350240000000 1.0
C      1  0.6828420000000  0.4447350000000  0.4436610000000 1.0
C      1  0.4308550000000  0.3908580000000  0.4960850000000 1.0
C      1  0.4937790000000  0.5101680000000  0.4280910000000 1.0
C      1  0.5415720000000  0.5196190000000  0.4559600000000 1.0
C      1  0.4507930000000  0.4821820000000  0.5308370000000 1.0
C      1  0.4326850000000  0.5208010000000  0.4935190000000 1.0
C      1  0.3988470000000  0.4645230000000  0.5228480000000 1.0
C      1  0.3973480000000  0.4401570000000  0.5367630000000 1.0
C      1  0.4911670000000  0.4475020000000  0.5837330000000 1.0
C      1  0.4212870000000  0.4377660000000  0.4850050000000 1.0
END
