TITL C-599891-72-1205 60.5885094488147 125000 -215.000411165374 0 0 37 (C1) n - 1
REM
REM in /home/nfs/bkarasulu/CARBON/AIRSS/Generating-Clusters/TERSOFF/Only-C1/FIRE-HFTN
REM
REM
REM
REM
REM
REM ./C.cell (11c1c37f851c82e70ff6c80c92926a4b)
REM AIRSS Version 0.9.1 bugfix July 2018 build 013d7b7c2542+ Fri, 06 Jul 2018 19:26:36 +0100
REM compiler GCC version 9.2.1 20190827 (Red Hat 9.2.1-1)
REM options -cpp -mtune=generic -march=x86-64 -g -O0 -fpre-include=/usr/include/finclude/math-vector-fortran.h
REM seed -26751805 1769970177 -419434306 -136595442 -1323888749 375159376 -1909677630 -253326121 -5121580 -899537529 -786013786 -1876553070 -679631009 -764941843 -1324411121 1015320916 -331739954 -650314712 1922368757 2015634023 665318101 899411020 -1480954637 -29864936 -1247693402 1907835227 -1009384183 -499086750 1947124719 -1336005990 -218505549 -710468920 1531871838
REM
CELL 1.54180   50.00000   50.00000   50.00000   90.00000   90.00000   90.00000
LATT -1
SFAC C  
C      1  0.4734050000000  0.4252600000000  0.5443200000000 1.0
C      1  0.4808210000000  0.5645300000000  0.5525880000000 1.0
C      1  0.4740920000000  0.4947480000000  0.4775270000000 1.0
C      1  0.5008250000000  0.4234050000000  0.5500000000000 1.0
C      1  0.4926440000000  0.5015780000000  0.3975960000000 1.0
C      1  0.4926000000000  0.5164290000000  0.4212670000000 1.0
C      1  0.4819960000000  0.5845580000000  0.5352650000000 1.0
C      1  0.5472010000000  0.4855930000000  0.5161270000000 1.0
C      1  0.5238550000000  0.5045190000000  0.5119580000000 1.0
C      1  0.5204460000000  0.5068800000000  0.4832480000000 1.0
C      1  0.5118720000000  0.4508180000000  0.4010010000000 1.0
C      1  0.4621530000000  0.4753300000000  0.5240210000000 1.0
C      1  0.4939930000000  0.5273850000000  0.4468960000000 1.0
C      1  0.5507820000000  0.4976160000000  0.4437290000000 1.0
C      1  0.4879860000000  0.5931490000000  0.4849270000000 1.0
C      1  0.4814430000000  0.5387460000000  0.5632590000000 1.0
C      1  0.5449000000000  0.4500450000000  0.5507520000000 1.0
C      1  0.4871090000000  0.5165170000000  0.5465930000000 1.0
C      1  0.5019700000000  0.4752220000000  0.3981130000000 1.0
C      1  0.5133580000000  0.5105170000000  0.5383640000000 1.0
C      1  0.4960050000000  0.5102600000000  0.4694730000000 1.0
C      1  0.5438830000000  0.4955280000000  0.4698660000000 1.0
C      1  0.5310700000000  0.4968140000000  0.5568860000000 1.0
C      1  0.4911320000000  0.5782220000000  0.4632020000000 1.0
C      1  0.4846050000000  0.5953730000000  0.5111700000000 1.0
C      1  0.5220230000000  0.4270690000000  0.4045400000000 1.0
C      1  0.4632030000000  0.4493230000000  0.5341100000000 1.0
C      1  0.5472320000000  0.4768190000000  0.5434840000000 1.0
C      1  0.4568650000000  0.4039280000000  0.5486690000000 1.0
C      1  0.5588210000000  0.4819780000000  0.4904030000000 1.0
C      1  0.4619420000000  0.4805120000000  0.4964680000000 1.0
C      1  0.4932270000000  0.5550600000000  0.4504660000000 1.0
C      1  0.4837010000000  0.5126700000000  0.3742560000000 1.0
C      1  0.4767110000000  0.5347520000000  0.5905050000000 1.0
C      1  0.4674610000000  0.4974110000000  0.5405400000000 1.0
C      1  0.4725180000000  0.5303030000000  0.6158380000000 1.0
C      1  0.5261500000000  0.4311330000000  0.5525710000000 1.0
END
