TITL C-599893-4344-1355 162425.668300065 125000 -998.422596193822 0 0 165 (C1) n - 1
REM
REM in /home/nfs/bkarasulu/CARBON/AIRSS/Generating-Clusters/TERSOFF/Only-C1/FIRE-HFTN
REM
REM
REM
REM
REM
REM ./C.cell (11c1c37f851c82e70ff6c80c92926a4b)
REM AIRSS Version 0.9.1 bugfix July 2018 build 013d7b7c2542+ Fri, 06 Jul 2018 19:26:36 +0100
REM compiler GCC version 9.2.1 20190827 (Red Hat 9.2.1-1)
REM options -cpp -mtune=generic -march=x86-64 -g -O0 -fpre-include=/usr/include/finclude/math-vector-fortran.h
REM seed 747271848 515460678 1412426562 1673857303 -1480830185 -241183697 -1290831940 -2116100195 -914011650 -592431424 1988267880 217811496 509743330 -270979120 -1957925439 1014006024 -570400185 687540379 1564674492 1893426039 -538230971 -1910149686 -2048573327 -1174985668 514106085 1748613148 1617164092 -107619396 1270528705 -810257877 270365268 258312592 1294504965
REM
CELL 1.54180   50.00000   50.00000   50.00000   90.00000   90.00000   90.00000
LATT -1
SFAC C  
C      1  0.5776940000000  0.5576730000000  0.5740740000000 1.0
C      1  0.6049270000000  0.4486030000000  0.4603970000000 1.0
C      1  0.4335690000000  0.5710010000000  0.5460630000000 1.0
C      1  0.5661960000000  0.4440770000000  0.5534320000000 1.0
C      1  0.5298350000000  0.4260610000000  0.5239250000000 1.0
C      1  0.5065480000000  0.4957160000000  0.5294410000000 1.0
C      1  0.4471300000000  0.5858750000000  0.4031230000000 1.0
C      1  0.4280180000000  0.4310600000000  0.4379820000000 1.0
C      1  0.4429150000000  0.5255480000000  0.4901710000000 1.0
C      1  0.5190960000000  0.5913430000000  0.5085080000000 1.0
C      1  0.4662020000000  0.4898210000000  0.5631570000000 1.0
C      1  0.5857940000000  0.4313520000000  0.4480710000000 1.0
C      1  0.4075810000000  0.4612200000000  0.4703010000000 1.0
C      1  0.5239280000000  0.4216940000000  0.4149870000000 1.0
C      1  0.4831770000000  0.4699790000000  0.5617790000000 1.0
C      1  0.5490740000000  0.4978260000000  0.4857010000000 1.0
C      1  0.4536720000000  0.6271170000000  0.3773930000000 1.0
C      1  0.5317950000000  0.5361540000000  0.5630900000000 1.0
C      1  0.5319500000000  0.4163730000000  0.5750070000000 1.0
C      1  0.3930910000000  0.5041450000000  0.4902130000000 1.0
C      1  0.5187580000000  0.5253110000000  0.4528070000000 1.0
C      1  0.4775070000000  0.6216150000000  0.5153380000000 1.0
C      1  0.4780880000000  0.4138410000000  0.4264330000000 1.0
C      1  0.5045090000000  0.4429820000000  0.5283550000000 1.0
C      1  0.3935410000000  0.4832010000000  0.5337180000000 1.0
C      1  0.4348090000000  0.5207160000000  0.5829760000000 1.0
C      1  0.6004740000000  0.5799090000000  0.4191540000000 1.0
C      1  0.5446650000000  0.5406360000000  0.4482110000000 1.0
C      1  0.5010050000000  0.5221380000000  0.5359570000000 1.0
C      1  0.4777920000000  0.5500320000000  0.3995480000000 1.0
C      1  0.5205940000000  0.3988820000000  0.5124660000000 1.0
C      1  0.4900570000000  0.5281800000000  0.5887650000000 1.0
C      1  0.4824480000000  0.5740630000000  0.6049930000000 1.0
C      1  0.5526600000000  0.5522840000000  0.4729880000000 1.0
C      1  0.6008930000000  0.4632650000000  0.5268650000000 1.0
C      1  0.5266800000000  0.4016740000000  0.4362980000000 1.0
C      1  0.5594120000000  0.4909950000000  0.5400770000000 1.0
C      1  0.5070690000000  0.4712630000000  0.4760860000000 1.0
C      1  0.4680400000000  0.4320280000000  0.5848400000000 1.0
C      1  0.5790040000000  0.5746980000000  0.4353460000000 1.0
C      1  0.4461570000000  0.4781410000000  0.3933020000000 1.0
C      1  0.5036380000000  0.5306030000000  0.5618170000000 1.0
C      1  0.4980440000000  0.5678600000000  0.4723260000000 1.0
C      1  0.5015370000000  0.5543040000000  0.6045070000000 1.0
C      1  0.4922380000000  0.4417550000000  0.5985300000000 1.0
C      1  0.4807710000000  0.5737950000000  0.5463550000000 1.0
C      1  0.4270680000000  0.5909300000000  0.5268390000000 1.0
C      1  0.4645370000000  0.4701430000000  0.5144600000000 1.0
C      1  0.4526500000000  0.5426560000000  0.5127990000000 1.0
C      1  0.4150890000000  0.4652410000000  0.5303070000000 1.0
C      1  0.5084700000000  0.5004410000000  0.4357440000000 1.0
C      1  0.4975020000000  0.3979180000000  0.4428650000000 1.0
C      1  0.4150860000000  0.5190610000000  0.4777640000000 1.0
C      1  0.5449710000000  0.4248450000000  0.5510210000000 1.0
C      1  0.4508760000000  0.5530660000000  0.4407390000000 1.0
C      1  0.5030240000000  0.6129620000000  0.5174470000000 1.0
C      1  0.5437070000000  0.4804620000000  0.5902070000000 1.0
C      1  0.5445140000000  0.5951410000000  0.4966550000000 1.0
C      1  0.5497660000000  0.5806620000000  0.4723510000000 1.0
C      1  0.5210170000000  0.5159520000000  0.4841590000000 1.0
C      1  0.4351010000000  0.5983900000000  0.5006050000000 1.0
C      1  0.5930840000000  0.5618850000000  0.4998670000000 1.0
C      1  0.5430750000000  0.5279210000000  0.5876390000000 1.0
C      1  0.4558500000000  0.5611040000000  0.4140060000000 1.0
C      1  0.5738470000000  0.5423470000000  0.4896040000000 1.0
C      1  0.4311020000000  0.4761040000000  0.4717940000000 1.0
C      1  0.5348550000000  0.3889960000000  0.4876640000000 1.0
C      1  0.5315280000000  0.5852190000000  0.5658340000000 1.0
C      1  0.5596190000000  0.4915960000000  0.4585810000000 1.0
C      1  0.4137220000000  0.4341040000000  0.4635350000000 1.0
C      1  0.4332000000000  0.5679180000000  0.4571550000000 1.0
C      1  0.4121350000000  0.4377400000000  0.5278080000000 1.0
C      1  0.4157760000000  0.4162970000000  0.4854410000000 1.0
C      1  0.4574730000000  0.3809110000000  0.4767220000000 1.0
C      1  0.3987780000000  0.4370180000000  0.4000010000000 1.0
C      1  0.4617570000000  0.6022700000000  0.3850110000000 1.0
C      1  0.4965420000000  0.4322800000000  0.4119120000000 1.0
C      1  0.5484970000000  0.4424940000000  0.5046890000000 1.0
C      1  0.4176020000000  0.4478220000000  0.4169220000000 1.0
C      1  0.6090420000000  0.4768670000000  0.5034500000000 1.0
C      1  0.5189890000000  0.5386100000000  0.5098170000000 1.0
C      1  0.4909080000000  0.3941770000000  0.5158420000000 1.0
C      1  0.4704310000000  0.6112460000000  0.4700840000000 1.0
C      1  0.5565910000000  0.5775540000000  0.5729490000000 1.0
C      1  0.5711140000000  0.6050480000000  0.5043820000000 1.0
C      1  0.6065790000000  0.4352200000000  0.5248720000000 1.0
C      1  0.5966590000000  0.5584110000000  0.5530100000000 1.0
C      1  0.5633690000000  0.4830470000000  0.4336720000000 1.0
C      1  0.5680990000000  0.5172540000000  0.5012030000000 1.0
C      1  0.5458990000000  0.5565660000000  0.4017870000000 1.0
C      1  0.4900750000000  0.4598800000000  0.4082230000000 1.0
C      1  0.5149060000000  0.4266110000000  0.4740640000000 1.0
C      1  0.4437670000000  0.4020760000000  0.5247430000000 1.0
C      1  0.5775100000000  0.4684890000000  0.5428980000000 1.0
C      1  0.5633640000000  0.5174110000000  0.5295330000000 1.0
C      1  0.4440620000000  0.4462280000000  0.5909700000000 1.0
C      1  0.4824260000000  0.5099750000000  0.6315740000000 1.0
C      1  0.4532150000000  0.4876090000000  0.4603420000000 1.0
C      1  0.5851170000000  0.5083770000000  0.5930300000000 1.0
C      1  0.4954540000000  0.4984800000000  0.4853020000000 1.0
C      1  0.5917450000000  0.4193520000000  0.5087010000000 1.0
C      1  0.5066180000000  0.4577480000000  0.5536490000000 1.0
C      1  0.4699750000000  0.5351540000000  0.4525820000000 1.0
C      1  0.4601570000000  0.5257420000000  0.6257530000000 1.0
C      1  0.4961640000000  0.5452500000000  0.4555230000000 1.0
C      1  0.6113560000000  0.4677500000000  0.4781150000000 1.0
C      1  0.5060040000000  0.5828210000000  0.5569160000000 1.0
C      1  0.4775440000000  0.5608260000000  0.5190540000000 1.0
C      1  0.4588650000000  0.5657090000000  0.5900340000000 1.0
C      1  0.4344610000000  0.5438970000000  0.5361210000000 1.0
C      1  0.4502240000000  0.4119290000000  0.4361080000000 1.0
C      1  0.6019960000000  0.5595910000000  0.5266740000000 1.0
C      1  0.3863440000000  0.4788980000000  0.4769370000000 1.0
C      1  0.5039620000000  0.5641940000000  0.5021960000000 1.0
C      1  0.5721500000000  0.4839870000000  0.5933380000000 1.0
C      1  0.4464740000000  0.3889500000000  0.4532170000000 1.0
C      1  0.4584870000000  0.6143950000000  0.4957160000000 1.0
C      1  0.5695110000000  0.4629960000000  0.4171030000000 1.0
C      1  0.4968080000000  0.5655860000000  0.3851830000000 1.0
C      1  0.5240620000000  0.5601480000000  0.3869900000000 1.0
C      1  0.5454440000000  0.3989090000000  0.4605430000000 1.0
C      1  0.4225630000000  0.4163200000000  0.5129220000000 1.0
C      1  0.5290030000000  0.4652650000000  0.5707860000000 1.0
C      1  0.5845450000000  0.4195920000000  0.4005550000000 1.0
C      1  0.5762110000000  0.5873780000000  0.4612520000000 1.0
C      1  0.5248280000000  0.4511030000000  0.4685640000000 1.0
C      1  0.5150590000000  0.4249450000000  0.5944180000000 1.0
C      1  0.4714550000000  0.4136790000000  0.5623590000000 1.0
C      1  0.4454970000000  0.4975680000000  0.5462610000000 1.0
C      1  0.4861150000000  0.5903660000000  0.3763150000000 1.0
C      1  0.4163350000000  0.4981290000000  0.4273190000000 1.0
C      1  0.4885730000000  0.5927470000000  0.4628690000000 1.0
C      1  0.5694060000000  0.4263240000000  0.4927840000000 1.0
C      1  0.4710460000000  0.4686390000000  0.3893300000000 1.0
C      1  0.4806360000000  0.3916500000000  0.4887140000000 1.0
C      1  0.4945040000000  0.4701340000000  0.6063280000000 1.0
C      1  0.5677620000000  0.4174240000000  0.4653020000000 1.0
C      1  0.4702650000000  0.4018720000000  0.5358380000000 1.0
C      1  0.5904620000000  0.5885140000000  0.4876320000000 1.0
C      1  0.4405700000000  0.4773730000000  0.5273770000000 1.0
C      1  0.4264650000000  0.5831280000000  0.4782180000000 1.0
C      1  0.5332210000000  0.4838890000000  0.5278650000000 1.0
C      1  0.5713610000000  0.5330160000000  0.5883610000000 1.0
C      1  0.4142830000000  0.5153620000000  0.4484050000000 1.0
C      1  0.4966270000000  0.4056240000000  0.4701600000000 1.0
C      1  0.4820150000000  0.4554990000000  0.4751110000000 1.0
C      1  0.5432160000000  0.4717260000000  0.5028050000000 1.0
C      1  0.4580660000000  0.5346790000000  0.5959470000000 1.0
C      1  0.4912040000000  0.4768250000000  0.4314190000000 1.0
C      1  0.5438650000000  0.5364060000000  0.5368290000000 1.0
C      1  0.4255560000000  0.4753290000000  0.4125290000000 1.0
C      1  0.4786760000000  0.4474980000000  0.5040930000000 1.0
C      1  0.4566580000000  0.5745370000000  0.5627670000000 1.0
C      1  0.4851250000000  0.4899540000000  0.5117040000000 1.0
C      1  0.4335140000000  0.5219470000000  0.5539660000000 1.0
C      1  0.4714170000000  0.4684220000000  0.4514940000000 1.0
C      1  0.5797850000000  0.4370620000000  0.4208790000000 1.0
C      1  0.4998800000000  0.5026480000000  0.6068360000000 1.0
C      1  0.4263180000000  0.4958240000000  0.5947040000000 1.0
C      1  0.5301990000000  0.5043430000000  0.5995520000000 1.0
C      1  0.5774450000000  0.6245440000000  0.5220620000000 1.0
C      1  0.4306320000000  0.4691290000000  0.5960070000000 1.0
C      1  0.3868040000000  0.5038570000000  0.5176280000000 1.0
C      1  0.5579220000000  0.5554640000000  0.4270390000000 1.0
C      1  0.4645810000000  0.5125940000000  0.4714790000000 1.0
END
