TITL C-599895-9959-583 15.2502039023093 125000 -829.636845163271 0 0 136 (C1) n - 1
REM
REM in /home/nfs/bkarasulu/CARBON/AIRSS/Generating-Clusters/TERSOFF/Only-C1/FIRE-HFTN
REM
REM
REM
REM
REM
REM ./C.cell (11c1c37f851c82e70ff6c80c92926a4b)
REM AIRSS Version 0.9.1 bugfix July 2018 build 013d7b7c2542+ Fri, 06 Jul 2018 19:26:36 +0100
REM compiler GCC version 9.2.1 20190827 (Red Hat 9.2.1-1)
REM options -cpp -mtune=generic -march=x86-64 -g -O0 -fpre-include=/usr/include/finclude/math-vector-fortran.h
REM seed -1510659907 -797599325 -765957503 -2013186687 -2005232388 2008068904 810250247 1665976839 -1887823462 -1557319409 -1707567322 1038420721 2075688064 646217602 1322413872 -1265813299 646289839 1071683953 -1073666385 -1084281434 -840088223 -999074373 -390093090 1339060948 -246956402 -832603796 347060176 8755891 1348187707 492999332 -260347355 1678382876 659416554
REM
CELL 1.54180   50.00000   50.00000   50.00000   90.00000   90.00000   90.00000
LATT -1
SFAC C  
C      1  0.5353360000000  0.5515800000000  0.5965170000000 1.0
C      1  0.4828010000000  0.3873120000000  0.4487540000000 1.0
C      1  0.5006720000000  0.4557240000000  0.4426250000000 1.0
C      1  0.6074440000000  0.5004110000000  0.4505420000000 1.0
C      1  0.5065180000000  0.4048360000000  0.4478710000000 1.0
C      1  0.4512910000000  0.4412010000000  0.4491160000000 1.0
C      1  0.4764440000000  0.4486100000000  0.4546650000000 1.0
C      1  0.3959860000000  0.5193340000000  0.5106100000000 1.0
C      1  0.4503370000000  0.4952140000000  0.5464290000000 1.0
C      1  0.4971430000000  0.4051210000000  0.4959710000000 1.0
C      1  0.5217090000000  0.4727350000000  0.4513540000000 1.0
C      1  0.4578230000000  0.5478440000000  0.5749040000000 1.0
C      1  0.4881300000000  0.5197410000000  0.5329700000000 1.0
C      1  0.4224700000000  0.5363480000000  0.4379870000000 1.0
C      1  0.5159060000000  0.4934400000000  0.5664530000000 1.0
C      1  0.5026670000000  0.3984100000000  0.5236930000000 1.0
C      1  0.5155840000000  0.5249740000000  0.5308490000000 1.0
C      1  0.4448750000000  0.5502630000000  0.4255660000000 1.0
C      1  0.4855480000000  0.5421500000000  0.5729310000000 1.0
C      1  0.5318440000000  0.5757620000000  0.5239750000000 1.0
C      1  0.5718210000000  0.4589890000000  0.5335890000000 1.0
C      1  0.5669890000000  0.4585370000000  0.3951540000000 1.0
C      1  0.5718070000000  0.4535430000000  0.5604340000000 1.0
C      1  0.3871330000000  0.4929070000000  0.5024240000000 1.0
C      1  0.4926200000000  0.5101870000000  0.4575350000000 1.0
C      1  0.3772930000000  0.4675820000000  0.4930750000000 1.0
C      1  0.4123980000000  0.5482440000000  0.5493070000000 1.0
C      1  0.5181040000000  0.4635400000000  0.5589410000000 1.0
C      1  0.5150070000000  0.4152390000000  0.4751450000000 1.0
C      1  0.5160140000000  0.4996450000000  0.4416760000000 1.0
C      1  0.4467160000000  0.4468200000000  0.5118730000000 1.0
C      1  0.5371410000000  0.5578600000000  0.5019070000000 1.0
C      1  0.6628640000000  0.5436250000000  0.4243900000000 1.0
C      1  0.5034130000000  0.5766990000000  0.5346660000000 1.0
C      1  0.5214230000000  0.4337550000000  0.5626140000000 1.0
C      1  0.4848400000000  0.3782860000000  0.5330450000000 1.0
C      1  0.4892710000000  0.4456050000000  0.6022100000000 1.0
C      1  0.3497390000000  0.4667810000000  0.4873250000000 1.0
C      1  0.4311310000000  0.4760230000000  0.4243290000000 1.0
C      1  0.5918590000000  0.4853560000000  0.4328820000000 1.0
C      1  0.4398030000000  0.4973370000000  0.4981440000000 1.0
C      1  0.4981800000000  0.5155190000000  0.5782480000000 1.0
C      1  0.5270320000000  0.5173610000000  0.4231500000000 1.0
C      1  0.5628480000000  0.5099470000000  0.5883780000000 1.0
C      1  0.3914760000000  0.4429360000000  0.4886800000000 1.0
C      1  0.4421210000000  0.5880350000000  0.4616250000000 1.0
C      1  0.5199220000000  0.5440680000000  0.4169220000000 1.0
C      1  0.4453570000000  0.5135970000000  0.4737370000000 1.0
C      1  0.5372280000000  0.5648630000000  0.4265060000000 1.0
C      1  0.4705630000000  0.4883500000000  0.6068390000000 1.0
C      1  0.5963140000000  0.5699930000000  0.5236310000000 1.0
C      1  0.4001210000000  0.4178540000000  0.4827340000000 1.0
C      1  0.4658480000000  0.5071090000000  0.4061920000000 1.0
C      1  0.4058690000000  0.5381260000000  0.4890270000000 1.0
C      1  0.4640190000000  0.5312500000000  0.5235840000000 1.0
C      1  0.4950300000000  0.4727230000000  0.6090510000000 1.0
C      1  0.5760370000000  0.5073030000000  0.5620510000000 1.0
C      1  0.4138770000000  0.3947190000000  0.4785570000000 1.0
C      1  0.4372120000000  0.3777120000000  0.4798870000000 1.0
C      1  0.4477110000000  0.5762320000000  0.4377050000000 1.0
C      1  0.5281430000000  0.5073400000000  0.4917960000000 1.0
C      1  0.5234600000000  0.4810670000000  0.6097500000000 1.0
C      1  0.4744460000000  0.4346620000000  0.5825220000000 1.0
C      1  0.4632910000000  0.5384780000000  0.4788240000000 1.0
C      1  0.5599890000000  0.5374460000000  0.5964020000000 1.0
C      1  0.4066260000000  0.5025020000000  0.5594910000000 1.0
C      1  0.5810030000000  0.5528120000000  0.4438170000000 1.0
C      1  0.5882320000000  0.5711580000000  0.5707420000000 1.0
C      1  0.5013600000000  0.4999470000000  0.4843120000000 1.0
C      1  0.6162620000000  0.5266570000000  0.5367940000000 1.0
C      1  0.5401600000000  0.5911090000000  0.5682190000000 1.0
C      1  0.4871180000000  0.5399030000000  0.4626260000000 1.0
C      1  0.5314320000000  0.5089560000000  0.5473620000000 1.0
C      1  0.6484950000000  0.5224370000000  0.4336120000000 1.0
C      1  0.4337730000000  0.5541880000000  0.5647310000000 1.0
C      1  0.4593200000000  0.5775180000000  0.5071390000000 1.0
C      1  0.6078640000000  0.5489190000000  0.4378510000000 1.0
C      1  0.4866420000000  0.4801970000000  0.4971340000000 1.0
C      1  0.4953460000000  0.4637150000000  0.3962120000000 1.0
C      1  0.4308620000000  0.4513080000000  0.4349610000000 1.0
C      1  0.4435460000000  0.5107840000000  0.5229130000000 1.0
C      1  0.3242500000000  0.4660450000000  0.4819420000000 1.0
C      1  0.4929580000000  0.5478310000000  0.4080300000000 1.0
C      1  0.4628910000000  0.5004340000000  0.4528600000000 1.0
C      1  0.4467950000000  0.4916860000000  0.5935250000000 1.0
C      1  0.5285920000000  0.5313890000000  0.5065030000000 1.0
C      1  0.5014810000000  0.5641640000000  0.5622590000000 1.0
C      1  0.5461860000000  0.4846640000000  0.4942610000000 1.0
C      1  0.5112250000000  0.4177390000000  0.4222020000000 1.0
C      1  0.5546280000000  0.5606560000000  0.4491820000000 1.0
C      1  0.6242780000000  0.5701070000000  0.4281490000000 1.0
C      1  0.4623470000000  0.3659470000000  0.5239580000000 1.0
C      1  0.5133430000000  0.4628330000000  0.5300660000000 1.0
C      1  0.5288110000000  0.4383840000000  0.4874750000000 1.0
C      1  0.4655060000000  0.4505840000000  0.5324990000000 1.0
C      1  0.5504210000000  0.4847370000000  0.5977860000000 1.0
C      1  0.5235610000000  0.5711680000000  0.5796050000000 1.0
C      1  0.5245050000000  0.4400590000000  0.5163650000000 1.0
C      1  0.6098590000000  0.4930170000000  0.4767620000000 1.0
C      1  0.5612230000000  0.4820200000000  0.5197850000000 1.0
C      1  0.5379030000000  0.5890240000000  0.4134930000000 1.0
C      1  0.5822040000000  0.5544800000000  0.5910190000000 1.0
C      1  0.4012760000000  0.5236750000000  0.5397700000000 1.0
C      1  0.4627970000000  0.5497790000000  0.5039810000000 1.0
C      1  0.4362930000000  0.5828500000000  0.4893370000000 1.0
C      1  0.5038680000000  0.4449720000000  0.4160910000000 1.0
C      1  0.4504400000000  0.4229570000000  0.4989730000000 1.0
C      1  0.6128360000000  0.5488060000000  0.5220060000000 1.0
C      1  0.5577020000000  0.5022300000000  0.5406890000000 1.0
C      1  0.4843180000000  0.5894750000000  0.5155940000000 1.0
C      1  0.5518150000000  0.5852840000000  0.5426700000000 1.0
C      1  0.5473310000000  0.5641750000000  0.4763550000000 1.0
C      1  0.6505950000000  0.5677790000000  0.4216360000000 1.0
C      1  0.4700480000000  0.4065780000000  0.4886560000000 1.0
C      1  0.4784850000000  0.4936760000000  0.5424890000000 1.0
C      1  0.5011870000000  0.5901850000000  0.4694670000000 1.0
C      1  0.5193150000000  0.4182630000000  0.5363980000000 1.0
C      1  0.4329890000000  0.4944070000000  0.5684570000000 1.0
C      1  0.5793330000000  0.5780760000000  0.5444730000000 1.0
C      1  0.4653490000000  0.4378780000000  0.5575390000000 1.0
C      1  0.4433470000000  0.3639960000000  0.5045370000000 1.0
C      1  0.4831620000000  0.4881430000000  0.3929090000000 1.0
C      1  0.5629800000000  0.4619650000000  0.5848330000000 1.0
C      1  0.5789990000000  0.4715880000000  0.4142570000000 1.0
C      1  0.4666750000000  0.5364080000000  0.4100220000000 1.0
C      1  0.5367750000000  0.4636540000000  0.4752930000000 1.0
C      1  0.4860790000000  0.4709990000000  0.5249480000000 1.0
C      1  0.4618210000000  0.3882670000000  0.4680350000000 1.0
C      1  0.4130910000000  0.5657710000000  0.4939780000000 1.0
C      1  0.4981090000000  0.5653780000000  0.4594960000000 1.0
C      1  0.4517930000000  0.4946470000000  0.4275000000000 1.0
C      1  0.4196490000000  0.5271640000000  0.4650970000000 1.0
C      1  0.4969410000000  0.6022990000000  0.4933070000000 1.0
C      1  0.6026480000000  0.5124830000000  0.5550370000000 1.0
C      1  0.4359850000000  0.4695610000000  0.4993820000000 1.0
C      1  0.6209510000000  0.5232980000000  0.4409070000000 1.0
END
