TITL C-599894-471-1370 0.0135615975813899 125000 -292.172664327138 0 0 50 (C1) n - 1
REM
REM in /home/nfs/bkarasulu/CARBON/AIRSS/Generating-Clusters/TERSOFF/Only-C1/FIRE-HFTN
REM
REM
REM
REM
REM
REM ./C.cell (11c1c37f851c82e70ff6c80c92926a4b)
REM AIRSS Version 0.9.1 bugfix July 2018 build 013d7b7c2542+ Fri, 06 Jul 2018 19:26:36 +0100
REM compiler GCC version 9.2.1 20190827 (Red Hat 9.2.1-1)
REM options -cpp -mtune=generic -march=x86-64 -g -O0 -fpre-include=/usr/include/finclude/math-vector-fortran.h
REM seed -39129108 -2118388688 483179956 1002762271 -2038441673 86161419 1777371672 -1988234649 -840130052 -1509387577 435114108 -479815524 1590242384 1120027161 -772847167 -886365473 560449211 1379941733 1456490417 1780523098 -1065362975 -963751801 -846724806 -427110273 1695860865 -1603787710 -35579689 -1793493539 -696468035 161072800 203996494 1974571850 -1042962337
REM
CELL 1.54180   50.00000   50.00000   50.00000   90.00000   90.00000   90.00000
LATT -1
SFAC C  
C      1  0.5201740000000  0.4686240000000  0.5458820000000 1.0
C      1  0.4688640000000  0.4498820000000  0.4477750000000 1.0
C      1  0.4582070000000  0.5165780000000  0.4625290000000 1.0
C      1  0.5083930000000  0.5027800000000  0.4229190000000 1.0
C      1  0.4573440000000  0.5355600000000  0.5078460000000 1.0
C      1  0.5459190000000  0.4805220000000  0.5494340000000 1.0
C      1  0.4425690000000  0.5240070000000  0.4856290000000 1.0
C      1  0.4895500000000  0.4894580000000  0.4812830000000 1.0
C      1  0.4927430000000  0.4392230000000  0.4541130000000 1.0
C      1  0.5014250000000  0.5453840000000  0.5411920000000 1.0
C      1  0.4829340000000  0.3880550000000  0.6052280000000 1.0
C      1  0.5164750000000  0.5045880000000  0.5150060000000 1.0
C      1  0.5326810000000  0.4278880000000  0.4834470000000 1.0
C      1  0.5432060000000  0.4884890000000  0.4549380000000 1.0
C      1  0.5009680000000  0.5400120000000  0.4679210000000 1.0
C      1  0.4126920000000  0.4871590000000  0.4769180000000 1.0
C      1  0.4893850000000  0.4724480000000  0.5025440000000 1.0
C      1  0.4166020000000  0.5126230000000  0.4884640000000 1.0
C      1  0.5013020000000  0.4280690000000  0.5764920000000 1.0
C      1  0.3772310000000  0.5388460000000  0.5142690000000 1.0
C      1  0.4587210000000  0.4974860000000  0.4401160000000 1.0
C      1  0.4952350000000  0.5476570000000  0.5952430000000 1.0
C      1  0.5306340000000  0.5150140000000  0.4928140000000 1.0
C      1  0.4252100000000  0.4699480000000  0.4605150000000 1.0
C      1  0.4780680000000  0.5418210000000  0.5243870000000 1.0
C      1  0.5198860000000  0.4407620000000  0.4617670000000 1.0
C      1  0.5536360000000  0.4361390000000  0.4983800000000 1.0
C      1  0.5424070000000  0.6114010000000  0.4963510000000 1.0
C      1  0.5499890000000  0.5271680000000  0.5357100000000 1.0
C      1  0.5105560000000  0.4481620000000  0.5619260000000 1.0
C      1  0.5366720000000  0.5863500000000  0.5006690000000 1.0
C      1  0.4928310000000  0.5478410000000  0.6212000000000 1.0
C      1  0.5300030000000  0.5598120000000  0.5047690000000 1.0
C      1  0.5582700000000  0.4992400000000  0.5312340000000 1.0
C      1  0.5355200000000  0.4617070000000  0.4512580000000 1.0
C      1  0.4858680000000  0.5158760000000  0.4706790000000 1.0
C      1  0.4920420000000  0.4078970000000  0.5909800000000 1.0
C      1  0.4977950000000  0.5472730000000  0.5688780000000 1.0
C      1  0.4497540000000  0.4708070000000  0.4466890000000 1.0
C      1  0.5516770000000  0.5247670000000  0.4234410000000 1.0
C      1  0.5642060000000  0.4865250000000  0.5046310000000 1.0
C      1  0.4942090000000  0.5602530000000  0.4509760000000 1.0
C      1  0.5287120000000  0.5469390000000  0.5306630000000 1.0
C      1  0.5058870000000  0.4798140000000  0.5242540000000 1.0
C      1  0.5677900000000  0.4583240000000  0.5041360000000 1.0
C      1  0.5346620000000  0.5058900000000  0.4335940000000 1.0
C      1  0.5499470000000  0.4977600000000  0.4815710000000 1.0
C      1  0.4815190000000  0.5002410000000  0.4230220000000 1.0
C      1  0.3960950000000  0.5260160000000  0.5016710000000 1.0
C      1  0.5235330000000  0.5409150000000  0.4846460000000 1.0
END
