TITL C-599896-8500-704 -0.0491016950471556 125000 -611.504231714527 0 0 102 (C1) n - 1
REM
REM in /home/nfs/bkarasulu/CARBON/AIRSS/Generating-Clusters/TERSOFF/Only-C1/FIRE-HFTN
REM
REM
REM
REM
REM
REM ./C.cell (11c1c37f851c82e70ff6c80c92926a4b)
REM AIRSS Version 0.9.1 bugfix July 2018 build 013d7b7c2542+ Fri, 06 Jul 2018 19:26:36 +0100
REM compiler GCC version 9.2.1 20190827 (Red Hat 9.2.1-1)
REM options -cpp -mtune=generic -march=x86-64 -g -O0 -fpre-include=/usr/include/finclude/math-vector-fortran.h
REM seed -749531405 751306749 966616913 1571018712 933863161 -626467465 1320281123 2138360372 -1278795769 346052889 -2062999927 1299630599 1917352087 -1517410405 382819788 167015368 -1412515219 1586123406 -2079527723 1874790126 1079738549 -725139505 -624824732 -1402188068 -1075898755 -2086407786 1080613681 -2001774200 591130271 -579780453 546543787 289531623 -1535565169
REM
CELL 1.54180   50.00000   50.00000   50.00000   90.00000   90.00000   90.00000
LATT -1
SFAC C  
C      1  0.4885040000000  0.5364550000000  0.5384380000000 1.0
C      1  0.5285630000000  0.4322390000000  0.5029260000000 1.0
C      1  0.5356040000000  0.4854060000000  0.4027190000000 1.0
C      1  0.4534150000000  0.4659180000000  0.4381020000000 1.0
C      1  0.4430740000000  0.5046550000000  0.5331930000000 1.0
C      1  0.5900880000000  0.5018800000000  0.5524940000000 1.0
C      1  0.5177530000000  0.5601730000000  0.5793770000000 1.0
C      1  0.4943390000000  0.5242940000000  0.4188890000000 1.0
C      1  0.5562090000000  0.4966880000000  0.4162730000000 1.0
C      1  0.3494960000000  0.4977440000000  0.6153980000000 1.0
C      1  0.5575920000000  0.4770920000000  0.4612330000000 1.0
C      1  0.4672410000000  0.5206790000000  0.5413180000000 1.0
C      1  0.5594730000000  0.5029800000000  0.4452380000000 1.0
C      1  0.4941770000000  0.4951250000000  0.4278290000000 1.0
C      1  0.5871290000000  0.5078150000000  0.5054970000000 1.0
C      1  0.4212160000000  0.5182900000000  0.5505260000000 1.0
C      1  0.5151080000000  0.4005910000000  0.4553800000000 1.0
C      1  0.4078980000000  0.4924560000000  0.5036370000000 1.0
C      1  0.5744300000000  0.4362660000000  0.5291460000000 1.0
C      1  0.4737490000000  0.5766010000000  0.4628070000000 1.0
C      1  0.3885090000000  0.4958180000000  0.5242070000000 1.0
C      1  0.5396800000000  0.5514840000000  0.5273160000000 1.0
C      1  0.5917820000000  0.5208280000000  0.4808070000000 1.0
C      1  0.4543050000000  0.4758770000000  0.5268490000000 1.0
C      1  0.5915610000000  0.4206110000000  0.5433870000000 1.0
C      1  0.5455520000000  0.5202490000000  0.5642370000000 1.0
C      1  0.5461970000000  0.5744460000000  0.4839850000000 1.0
C      1  0.5586390000000  0.5347770000000  0.5417010000000 1.0
C      1  0.5759060000000  0.4643930000000  0.5289800000000 1.0
C      1  0.4910570000000  0.5689470000000  0.5847410000000 1.0
C      1  0.4822070000000  0.4804470000000  0.6050550000000 1.0
C      1  0.4584730000000  0.5765200000000  0.4851330000000 1.0
C      1  0.5024470000000  0.5480150000000  0.4319690000000 1.0
C      1  0.5033530000000  0.4362300000000  0.5449680000000 1.0
C      1  0.5647650000000  0.4195270000000  0.4582970000000 1.0
C      1  0.5460910000000  0.5748490000000  0.5122710000000 1.0
C      1  0.5819590000000  0.4377990000000  0.4696890000000 1.0
C      1  0.4852710000000  0.5215540000000  0.4821610000000 1.0
C      1  0.5326620000000  0.5213640000000  0.4836800000000 1.0
C      1  0.3794660000000  0.5026280000000  0.5724930000000 1.0
C      1  0.5540120000000  0.4259800000000  0.5132650000000 1.0
C      1  0.3643520000000  0.5001500000000  0.5941110000000 1.0
C      1  0.5708010000000  0.4802790000000  0.5524510000000 1.0
C      1  0.4832610000000  0.4744850000000  0.5274510000000 1.0
C      1  0.5330660000000  0.5164610000000  0.4545770000000 1.0
C      1  0.4159080000000  0.4661190000000  0.4964310000000 1.0
C      1  0.5827460000000  0.5206690000000  0.5316190000000 1.0
C      1  0.4893950000000  0.4081500000000  0.4656190000000 1.0
C      1  0.5272650000000  0.3312600000000  0.4166230000000 1.0
C      1  0.5271690000000  0.4418890000000  0.4756040000000 1.0
C      1  0.4824060000000  0.4348550000000  0.4182700000000 1.0
C      1  0.4705170000000  0.5026970000000  0.6167750000000 1.0
C      1  0.5078900000000  0.5355210000000  0.4929070000000 1.0
C      1  0.5276450000000  0.5447440000000  0.4447080000000 1.0
C      1  0.4298560000000  0.5110860000000  0.5060600000000 1.0
C      1  0.4644920000000  0.4914530000000  0.4351500000000 1.0
C      1  0.5388020000000  0.5019300000000  0.5034240000000 1.0
C      1  0.5823570000000  0.4782310000000  0.5039000000000 1.0
C      1  0.5132280000000  0.5364770000000  0.5231100000000 1.0
C      1  0.5404240000000  0.5654180000000  0.4593780000000 1.0
C      1  0.4788280000000  0.5534570000000  0.6053610000000 1.0
C      1  0.4569400000000  0.4399420000000  0.4891350000000 1.0
C      1  0.5111680000000  0.4910820000000  0.4542260000000 1.0
C      1  0.4693640000000  0.4284070000000  0.4658780000000 1.0
C      1  0.4933960000000  0.4941470000000  0.4785410000000 1.0
C      1  0.4359300000000  0.5773190000000  0.3860210000000 1.0
C      1  0.5772400000000  0.4649230000000  0.4780710000000 1.0
C      1  0.5190600000000  0.3764050000000  0.4422640000000 1.0
C      1  0.5268350000000  0.5332030000000  0.5815420000000 1.0
C      1  0.4570770000000  0.5832090000000  0.4000650000000 1.0
C      1  0.3998410000000  0.4492540000000  0.4822340000000 1.0
C      1  0.3955360000000  0.5054650000000  0.5500790000000 1.0
C      1  0.5088610000000  0.4773440000000  0.4080780000000 1.0
C      1  0.4403060000000  0.5332100000000  0.4923890000000 1.0
C      1  0.5568890000000  0.6201270000000  0.5395830000000 1.0
C      1  0.4524350000000  0.5135920000000  0.4483080000000 1.0
C      1  0.4796370000000  0.5881100000000  0.4158250000000 1.0
C      1  0.4935180000000  0.4779880000000  0.5012980000000 1.0
C      1  0.4853560000000  0.5266400000000  0.6105560000000 1.0
C      1  0.4436720000000  0.5598400000000  0.5030350000000 1.0
C      1  0.5231800000000  0.3536360000000  0.4293610000000 1.0
C      1  0.4854090000000  0.5704960000000  0.4375040000000 1.0
C      1  0.4231420000000  0.5468930000000  0.5469680000000 1.0
C      1  0.5300970000000  0.4674850000000  0.4627930000000 1.0
C      1  0.4654810000000  0.4407320000000  0.4402570000000 1.0
C      1  0.4569270000000  0.5811970000000  0.5462490000000 1.0
C      1  0.4591430000000  0.5261840000000  0.4725750000000 1.0
C      1  0.5093060000000  0.5163810000000  0.5963110000000 1.0
C      1  0.4989260000000  0.4511930000000  0.4045990000000 1.0
C      1  0.5057600000000  0.4878520000000  0.5901140000000 1.0
C      1  0.5361570000000  0.4194000000000  0.4593700000000 1.0
C      1  0.4960340000000  0.6093890000000  0.4106580000000 1.0
C      1  0.5827480000000  0.5183410000000  0.4553690000000 1.0
C      1  0.5008010000000  0.4641960000000  0.5480180000000 1.0
C      1  0.4422360000000  0.4587440000000  0.5055150000000 1.0
C      1  0.5520290000000  0.5985560000000  0.5257910000000 1.0
C      1  0.4751850000000  0.5824270000000  0.5658700000000 1.0
C      1  0.5183250000000  0.4782540000000  0.5665190000000 1.0
C      1  0.5242910000000  0.5072360000000  0.5257600000000 1.0
C      1  0.4393080000000  0.5647990000000  0.5313270000000 1.0
C      1  0.5080740000000  0.4253230000000  0.5207570000000 1.0
C      1  0.5450220000000  0.4900610000000  0.5620500000000 1.0
END
