TITL C-599892-9790-1288 0.000128739474097791 125000 -371.899485185476 0 0 62 (C1) n - 1
REM
REM in /home/nfs/bkarasulu/CARBON/AIRSS/Generating-Clusters/TERSOFF/Only-C1/FIRE-HFTN
REM
REM
REM
REM
REM
REM ./C.cell (11c1c37f851c82e70ff6c80c92926a4b)
REM AIRSS Version 0.9.1 bugfix July 2018 build 013d7b7c2542+ Fri, 06 Jul 2018 19:26:36 +0100
REM compiler GCC version 9.2.1 20190827 (Red Hat 9.2.1-1)
REM options -cpp -mtune=generic -march=x86-64 -g -O0 -fpre-include=/usr/include/finclude/math-vector-fortran.h
REM seed 1376769278 -166583203 702549522 -1637743158 -1447218165 -800359792 -488406181 -256974839 -1416398443 1099107452 500596550 1307913637 -1697165364 -1608441561 7380188 2057974899 -586877346 -575567192 -2124904597 1684408058 1648082708 113057605 1973373287 -1450950094 1264093028 1217421888 1292320940 -804646478 801216184 2062717656 -1395240540 1717074792 -763394022
REM
CELL 1.54180   50.00000   50.00000   50.00000   90.00000   90.00000   90.00000
LATT -1
SFAC C  
C      1  0.4781130000000  0.4622690000000  0.4547000000000 1.0
C      1  0.4920920000000  0.5357920000000  0.5635710000000 1.0
C      1  0.5292820000000  0.4404460000000  0.4613880000000 1.0
C      1  0.5462830000000  0.5142990000000  0.5800050000000 1.0
C      1  0.4689770000000  0.5233430000000  0.4415900000000 1.0
C      1  0.5183010000000  0.4996940000000  0.5168410000000 1.0
C      1  0.5423380000000  0.4324750000000  0.5282480000000 1.0
C      1  0.5554400000000  0.5689020000000  0.4682120000000 1.0
C      1  0.4759470000000  0.4577630000000  0.4271540000000 1.0
C      1  0.5518180000000  0.5549940000000  0.4923790000000 1.0
C      1  0.4952220000000  0.4812240000000  0.5229890000000 1.0
C      1  0.4801110000000  0.5076210000000  0.3970010000000 1.0
C      1  0.4189640000000  0.5546550000000  0.5646680000000 1.0
C      1  0.5519060000000  0.5264390000000  0.4900370000000 1.0
C      1  0.4924830000000  0.4007590000000  0.4908320000000 1.0
C      1  0.5303170000000  0.5535710000000  0.4263010000000 1.0
C      1  0.4735070000000  0.4176670000000  0.4824650000000 1.0
C      1  0.4792770000000  0.5259980000000  0.4913810000000 1.0
C      1  0.5243880000000  0.5137120000000  0.4892370000000 1.0
C      1  0.5051910000000  0.5377500000000  0.4839310000000 1.0
C      1  0.5574460000000  0.4636600000000  0.4887550000000 1.0
C      1  0.4936070000000  0.5462600000000  0.5371710000000 1.0
C      1  0.4248830000000  0.5022230000000  0.5007710000000 1.0
C      1  0.4652020000000  0.4830040000000  0.5294960000000 1.0
C      1  0.5427110000000  0.4765800000000  0.5541950000000 1.0
C      1  0.4339750000000  0.5414460000000  0.5479600000000 1.0
C      1  0.5404320000000  0.5005300000000  0.5359920000000 1.0
C      1  0.4715550000000  0.5733270000000  0.4729860000000 1.0
C      1  0.5744990000000  0.5099460000000  0.4912220000000 1.0
C      1  0.4176010000000  0.5253280000000  0.4882880000000 1.0
C      1  0.5037100000000  0.4596680000000  0.5423890000000 1.0
C      1  0.5467150000000  0.5663790000000  0.4430070000000 1.0
C      1  0.4739120000000  0.5361170000000  0.5185300000000 1.0
C      1  0.4500040000000  0.5272180000000  0.5304200000000 1.0
C      1  0.4739420000000  0.5098800000000  0.4669500000000 1.0
C      1  0.5313200000000  0.4528620000000  0.5438670000000 1.0
C      1  0.4899520000000  0.4861790000000  0.4643500000000 1.0
C      1  0.5362820000000  0.4677780000000  0.4685280000000 1.0
C      1  0.4626290000000  0.4724780000000  0.5570320000000 1.0
C      1  0.5378550000000  0.5655910000000  0.5145910000000 1.0
C      1  0.5182470000000  0.4897490000000  0.4702590000000 1.0
C      1  0.5156660000000  0.5620200000000  0.5293640000000 1.0
C      1  0.4471280000000  0.5605490000000  0.4649080000000 1.0
C      1  0.5767920000000  0.4832730000000  0.4924780000000 1.0
C      1  0.4974080000000  0.5642400000000  0.4757190000000 1.0
C      1  0.5329960000000  0.4881500000000  0.5803210000000 1.0
C      1  0.4263980000000  0.5499950000000  0.4811850000000 1.0
C      1  0.5495870000000  0.5219550000000  0.5534170000000 1.0
C      1  0.5104440000000  0.5371310000000  0.4197110000000 1.0
C      1  0.4695640000000  0.4417880000000  0.4718260000000 1.0
C      1  0.4445050000000  0.5007660000000  0.5211250000000 1.0
C      1  0.4738130000000  0.4478830000000  0.4031220000000 1.0
C      1  0.5524340000000  0.4384820000000  0.5014910000000 1.0
C      1  0.4868870000000  0.5217770000000  0.4193980000000 1.0
C      1  0.4507960000000  0.5447950000000  0.4416540000000 1.0
C      1  0.4928620000000  0.5148230000000  0.5804350000000 1.0
C      1  0.5359710000000  0.4217120000000  0.4823080000000 1.0
C      1  0.5038800000000  0.4885340000000  0.5817670000000 1.0
C      1  0.4895020000000  0.4681150000000  0.5669560000000 1.0
C      1  0.4395010000000  0.4673970000000  0.5703310000000 1.0
C      1  0.5280790000000  0.4073890000000  0.5250530000000 1.0
C      1  0.5193510000000  0.4036520000000  0.4977390000000 1.0
END
