TITL C-599890-3321-319 4.91839841762593e-05 125000 -284.980594360548 0 0 49 (C1) n - 1
REM
REM in /home/nfs/bkarasulu/CARBON/AIRSS/Generating-Clusters/TERSOFF/Only-C1/FIRE-HFTN
REM
REM
REM
REM
REM
REM ./C.cell (11c1c37f851c82e70ff6c80c92926a4b)
REM AIRSS Version 0.9.1 bugfix July 2018 build 013d7b7c2542+ Fri, 06 Jul 2018 19:26:36 +0100
REM compiler GCC version 9.2.1 20190827 (Red Hat 9.2.1-1)
REM options -cpp -mtune=generic -march=x86-64 -g -O0 -fpre-include=/usr/include/finclude/math-vector-fortran.h
REM seed 1734884660 -2028725222 -1942066624 116626985 -809651829 1804942441 1825731276 807417120 1833499072 -1572454877 2091558615 -2078261949 -550838698 1941619839 2044646658 835505944 -1414895267 3952161 -1539561203 1700310185 159570226 372387368 -719343663 234033612 -1728900867 2051317225 -1872731975 156862209 -1083860812 -1321065023 -225491073 1474344019 1999262795
REM
CELL 1.54180   50.00000   50.00000   50.00000   90.00000   90.00000   90.00000
LATT -1
SFAC C  
C      1  0.4740490000000  0.5216230000000  0.3812310000000 1.0
C      1  0.4886160000000  0.4436340000000  0.4769300000000 1.0
C      1  0.4677150000000  0.4977080000000  0.4281000000000 1.0
C      1  0.4959680000000  0.4797390000000  0.5111630000000 1.0
C      1  0.4620200000000  0.4520920000000  0.4849240000000 1.0
C      1  0.5055590000000  0.4633610000000  0.4887130000000 1.0
C      1  0.4965210000000  0.5333480000000  0.3698510000000 1.0
C      1  0.4721430000000  0.4719490000000  0.5264690000000 1.0
C      1  0.5588280000000  0.5177570000000  0.4932020000000 1.0
C      1  0.5075230000000  0.4364710000000  0.5367140000000 1.0
C      1  0.5459180000000  0.5223660000000  0.4446860000000 1.0
C      1  0.5243970000000  0.5154010000000  0.5296370000000 1.0
C      1  0.4596890000000  0.5221900000000  0.5047790000000 1.0
C      1  0.4789320000000  0.4889200000000  0.4527490000000 1.0
C      1  0.4778200000000  0.5660460000000  0.5142880000000 1.0
C      1  0.5228100000000  0.4594990000000  0.5396570000000 1.0
C      1  0.4759540000000  0.5503250000000  0.5604280000000 1.0
C      1  0.4599660000000  0.4801720000000  0.4738810000000 1.0
C      1  0.5325770000000  0.5513730000000  0.5684140000000 1.0
C      1  0.5508690000000  0.4739370000000  0.4815660000000 1.0
C      1  0.4692830000000  0.5233660000000  0.5557320000000 1.0
C      1  0.5245070000000  0.5330500000000  0.5516200000000 1.0
C      1  0.4512010000000  0.5197690000000  0.5335440000000 1.0
C      1  0.5173830000000  0.4866980000000  0.5285380000000 1.0
C      1  0.5178600000000  0.5313030000000  0.3875520000000 1.0
C      1  0.5088850000000  0.4915920000000  0.4531490000000 1.0
C      1  0.4719250000000  0.5460070000000  0.4952320000000 1.0
C      1  0.5099940000000  0.4960070000000  0.5755430000000 1.0
C      1  0.4559010000000  0.4595090000000  0.5711460000000 1.0
C      1  0.4831230000000  0.4284490000000  0.5259520000000 1.0
C      1  0.4464890000000  0.5000540000000  0.4894650000000 1.0
C      1  0.5219870000000  0.5105150000000  0.4358640000000 1.0
C      1  0.5614660000000  0.5256630000000  0.4663260000000 1.0
C      1  0.4774630000000  0.5498720000000  0.4687840000000 1.0
C      1  0.4830140000000  0.4996170000000  0.5650210000000 1.0
C      1  0.5972080000000  0.4717130000000  0.5308360000000 1.0
C      1  0.4230990000000  0.4945170000000  0.5060090000000 1.0
C      1  0.5369550000000  0.4914860000000  0.5709160000000 1.0
C      1  0.5643390000000  0.4904750000000  0.5008080000000 1.0
C      1  0.4260420000000  0.5054870000000  0.5313340000000 1.0
C      1  0.5578970000000  0.4888080000000  0.5530150000000 1.0
C      1  0.5366730000000  0.5273730000000  0.5072410000000 1.0
C      1  0.4700610000000  0.4760960000000  0.5546690000000 1.0
C      1  0.5241600000000  0.4756430000000  0.4717710000000 1.0
C      1  0.4634610000000  0.4471480000000  0.5141650000000 1.0
C      1  0.4805340000000  0.5113380000000  0.4074470000000 1.0
C      1  0.5725670000000  0.4839420000000  0.5281580000000 1.0
C      1  0.4792020000000  0.5688700000000  0.5410100000000 1.0
C      1  0.5094440000000  0.5177240000000  0.4117710000000 1.0
END
