TITL C-599897-7526-949 836.217977728703 125000 -772.037963366949 0 0 125 (C1) n - 1
REM
REM in /home/nfs/bkarasulu/CARBON/AIRSS/Generating-Clusters/TERSOFF/Only-C1/FIRE-HFTN
REM
REM
REM
REM
REM
REM ./C.cell (11c1c37f851c82e70ff6c80c92926a4b)
REM AIRSS Version 0.9.1 bugfix July 2018 build 013d7b7c2542+ Fri, 06 Jul 2018 19:26:36 +0100
REM compiler GCC version 9.2.1 20190827 (Red Hat 9.2.1-1)
REM options -cpp -mtune=generic -march=x86-64 -g -O0 -fpre-include=/usr/include/finclude/math-vector-fortran.h
REM seed -1041667808 -877509062 1422250797 -407816044 887551575 1030559506 -1339506506 92223045 -1718494453 -987794423 -1582120810 -1181879747 -120445299 1199114319 1026464900 709236976 2018230993 -441180257 1867989069 694998891 1931137278 589104573 -738291162 -98049618 -1483582477 -806907691 -2060931594 1180873231 -882232312 1729834791 284892073 193752134 -580745637
REM
CELL 1.54180   50.00000   50.00000   50.00000   90.00000   90.00000   90.00000
LATT -1
SFAC C  
C      1  0.4585490000000  0.5818380000000  0.5441060000000 1.0
C      1  0.4476720000000  0.4629650000000  0.5824400000000 1.0
C      1  0.4195820000000  0.4645190000000  0.4720960000000 1.0
C      1  0.4141020000000  0.5406820000000  0.4831850000000 1.0
C      1  0.4594810000000  0.4871530000000  0.4911760000000 1.0
C      1  0.5079020000000  0.4154730000000  0.4604940000000 1.0
C      1  0.4171220000000  0.5661830000000  0.4698600000000 1.0
C      1  0.5274230000000  0.5491830000000  0.4261770000000 1.0
C      1  0.4656140000000  0.5518190000000  0.5815550000000 1.0
C      1  0.4533430000000  0.5979940000000  0.4711130000000 1.0
C      1  0.3907430000000  0.5709740000000  0.5316060000000 1.0
C      1  0.6131040000000  0.5340280000000  0.4762080000000 1.0
C      1  0.4653100000000  0.4775140000000  0.4651910000000 1.0
C      1  0.4715180000000  0.5240450000000  0.5876250000000 1.0
C      1  0.5021240000000  0.5725680000000  0.4869180000000 1.0
C      1  0.4482370000000  0.4679490000000  0.5109770000000 1.0
C      1  0.5799340000000  0.4759210000000  0.4775810000000 1.0
C      1  0.5397350000000  0.5797680000000  0.5382280000000 1.0
C      1  0.4421170000000  0.4051380000000  0.4902090000000 1.0
C      1  0.4444850000000  0.4753440000000  0.5390450000000 1.0
C      1  0.5257880000000  0.4807800000000  0.4192510000000 1.0
C      1  0.4438410000000  0.5109690000000  0.5861440000000 1.0
C      1  0.4933070000000  0.5908070000000  0.5076780000000 1.0
C      1  0.5027420000000  0.6172680000000  0.5032470000000 1.0
C      1  0.4880990000000  0.5311390000000  0.5363600000000 1.0
C      1  0.5261800000000  0.4386630000000  0.4570900000000 1.0
C      1  0.5012900000000  0.4830470000000  0.4038540000000 1.0
C      1  0.4776710000000  0.4975890000000  0.4491670000000 1.0
C      1  0.4740090000000  0.4731470000000  0.5729210000000 1.0
C      1  0.5854920000000  0.4984900000000  0.4945590000000 1.0
C      1  0.5241420000000  0.5602630000000  0.5520780000000 1.0
C      1  0.4064730000000  0.5300640000000  0.5093180000000 1.0
C      1  0.5381230000000  0.4460420000000  0.4823810000000 1.0
C      1  0.5403270000000  0.4730700000000  0.6044070000000 1.0
C      1  0.5650650000000  0.4535010000000  0.4862850000000 1.0
C      1  0.4477230000000  0.5623170000000  0.5615330000000 1.0
C      1  0.5884040000000  0.5230840000000  0.4801210000000 1.0
C      1  0.4428630000000  0.4621920000000  0.4550990000000 1.0
C      1  0.4982550000000  0.4889550000000  0.5155840000000 1.0
C      1  0.4253270000000  0.5187500000000  0.5642350000000 1.0
C      1  0.4975170000000  0.5812210000000  0.4597100000000 1.0
C      1  0.4179860000000  0.4675320000000  0.5023740000000 1.0
C      1  0.4645720000000  0.5521830000000  0.4119380000000 1.0
C      1  0.4739600000000  0.4212490000000  0.5210750000000 1.0
C      1  0.5655970000000  0.5615960000000  0.4561280000000 1.0
C      1  0.4790230000000  0.4157290000000  0.4182950000000 1.0
C      1  0.4702200000000  0.5845190000000  0.4518490000000 1.0
C      1  0.5574420000000  0.4430880000000  0.5437830000000 1.0
C      1  0.4715540000000  0.4486370000000  0.5149750000000 1.0
C      1  0.5435970000000  0.5046270000000  0.4212950000000 1.0
C      1  0.5629320000000  0.5314320000000  0.4639070000000 1.0
C      1  0.4584330000000  0.5100600000000  0.4316970000000 1.0
C      1  0.4131330000000  0.4406350000000  0.5444670000000 1.0
C      1  0.4980100000000  0.4121010000000  0.5350420000000 1.0
C      1  0.4965860000000  0.4613570000000  0.5124960000000 1.0
C      1  0.4893420000000  0.5083680000000  0.3965830000000 1.0
C      1  0.5190230000000  0.6268590000000  0.4836910000000 1.0
C      1  0.5556740000000  0.4193420000000  0.5315990000000 1.0
C      1  0.4076900000000  0.5002070000000  0.5174420000000 1.0
C      1  0.4544720000000  0.5687140000000  0.4329750000000 1.0
C      1  0.5230320000000  0.5913130000000  0.4491980000000 1.0
C      1  0.5266410000000  0.5588130000000  0.4922280000000 1.0
C      1  0.5746870000000  0.4817420000000  0.4500960000000 1.0
C      1  0.5439740000000  0.5719440000000  0.5101310000000 1.0
C      1  0.5566940000000  0.3782950000000  0.5050670000000 1.0
C      1  0.5803160000000  0.5739960000000  0.4788780000000 1.0
C      1  0.5696240000000  0.3585610000000  0.4930310000000 1.0
C      1  0.5402240000000  0.5393380000000  0.5641350000000 1.0
C      1  0.5633810000000  0.4893020000000  0.5648330000000 1.0
C      1  0.4663810000000  0.4887310000000  0.5494480000000 1.0
C      1  0.4105120000000  0.4404250000000  0.5155020000000 1.0
C      1  0.5200960000000  0.4712630000000  0.5608140000000 1.0
C      1  0.4834680000000  0.5789810000000  0.5313580000000 1.0
C      1  0.4298260000000  0.5888930000000  0.4817150000000 1.0
C      1  0.4953340000000  0.4060060000000  0.4371170000000 1.0
C      1  0.4998050000000  0.4826750000000  0.5776370000000 1.0
C      1  0.5177940000000  0.4290700000000  0.5840740000000 1.0
C      1  0.4199960000000  0.4174840000000  0.5005220000000 1.0
C      1  0.4698470000000  0.4061170000000  0.4961570000000 1.0
C      1  0.5393920000000  0.5299870000000  0.4092310000000 1.0
C      1  0.5669060000000  0.5825180000000  0.5488580000000 1.0
C      1  0.4269500000000  0.5651310000000  0.4420610000000 1.0
C      1  0.4693490000000  0.5241140000000  0.4096190000000 1.0
C      1  0.5994960000000  0.5930840000000  0.4744580000000 1.0
C      1  0.5293250000000  0.6165310000000  0.4607060000000 1.0
C      1  0.5065640000000  0.4179230000000  0.5617270000000 1.0
C      1  0.5725110000000  0.5662060000000  0.5060620000000 1.0
C      1  0.5740050000000  0.5080450000000  0.5457200000000 1.0
C      1  0.5353450000000  0.4562460000000  0.4344930000000 1.0
C      1  0.4078480000000  0.5495030000000  0.5313430000000 1.0
C      1  0.5145440000000  0.4022240000000  0.5121420000000 1.0
C      1  0.4983980000000  0.5565040000000  0.5413570000000 1.0
C      1  0.4321250000000  0.4568100000000  0.5579510000000 1.0
C      1  0.4996280000000  0.5146440000000  0.4561680000000 1.0
C      1  0.4343900000000  0.5161780000000  0.4447160000000 1.0
C      1  0.5797640000000  0.5590550000000  0.5352440000000 1.0
C      1  0.4466800000000  0.4491240000000  0.4306600000000 1.0
C      1  0.5618440000000  0.5067480000000  0.4436270000000 1.0
C      1  0.5706850000000  0.4999840000000  0.5185870000000 1.0
C      1  0.5298940000000  0.4478120000000  0.6001510000000 1.0
C      1  0.4516750000000  0.5138080000000  0.4905110000000 1.0
C      1  0.4986110000000  0.4042460000000  0.4862630000000 1.0
C      1  0.5644240000000  0.4596770000000  0.4349980000000 1.0
C      1  0.5359840000000  0.5347220000000  0.4790510000000 1.0
C      1  0.5050930000000  0.5373550000000  0.4395850000000 1.0
C      1  0.4326550000000  0.5228700000000  0.4718930000000 1.0
C      1  0.4836540000000  0.5039750000000  0.5339610000000 1.0
C      1  0.4261680000000  0.5453790000000  0.5533290000000 1.0
C      1  0.5476960000000  0.4669590000000  0.5546210000000 1.0
C      1  0.5951630000000  0.3195400000000  0.4687520000000 1.0
C      1  0.4680520000000  0.4412230000000  0.4139770000000 1.0
C      1  0.5000850000000  0.5113570000000  0.5854850000000 1.0
C      1  0.5436590000000  0.4962700000000  0.5130910000000 1.0
C      1  0.5673440000000  0.5356800000000  0.5504150000000 1.0
C      1  0.5292360000000  0.5195410000000  0.5832030000000 1.0
C      1  0.5196350000000  0.4493280000000  0.5029090000000 1.0
C      1  0.5414360000000  0.5704710000000  0.4405640000000 1.0
C      1  0.4384040000000  0.4853390000000  0.5979580000000 1.0
C      1  0.5825000000000  0.3388880000000  0.4807940000000 1.0
C      1  0.4844010000000  0.4605190000000  0.4016560000000 1.0
C      1  0.5425820000000  0.3995730000000  0.5161740000000 1.0
C      1  0.4101080000000  0.5011150000000  0.5468000000000 1.0
C      1  0.5171240000000  0.5137860000000  0.4781840000000 1.0
C      1  0.5190070000000  0.4995250000000  0.5015070000000 1.0
C      1  0.5480480000000  0.4968810000000  0.5890790000000 1.0
END
