TITL C-599897-7526-657 244.708585372449 125000 -761.281917970467 0 0 126 (C1) n - 1
REM
REM in /home/nfs/bkarasulu/CARBON/AIRSS/Generating-Clusters/TERSOFF/Only-C1/FIRE-HFTN
REM
REM
REM
REM
REM
REM ./C.cell (11c1c37f851c82e70ff6c80c92926a4b)
REM AIRSS Version 0.9.1 bugfix July 2018 build 013d7b7c2542+ Fri, 06 Jul 2018 19:26:36 +0100
REM compiler GCC version 9.2.1 20190827 (Red Hat 9.2.1-1)
REM options -cpp -mtune=generic -march=x86-64 -g -O0 -fpre-include=/usr/include/finclude/math-vector-fortran.h
REM seed -344573190 239661311 -1584835824 716925368 418523099 -970187959 1570372892 1128947173 1715729836 -1291701570 198593611 -316683174 -522310420 -491889989 -304239349 -1018234162 -1040123662 1688104809 -513582369 760472229 -1199970884 -1836959215 -1120034553 98746773 669642278 130954706 951329285 -2076257298 1194004881 -1027520017 -1394170129 -256812160 686731783
REM
CELL 1.54180   50.00000   50.00000   50.00000   90.00000   90.00000   90.00000
LATT -1
SFAC C  
C      1  0.4798280000000  0.5546140000000  0.4484190000000 1.0
C      1  0.5207640000000  0.5237600000000  0.5527370000000 1.0
C      1  0.4157300000000  0.4498430000000  0.4468530000000 1.0
C      1  0.5501340000000  0.5794420000000  0.5446010000000 1.0
C      1  0.5960370000000  0.5242630000000  0.4579490000000 1.0
C      1  0.3948970000000  0.5409650000000  0.5011320000000 1.0
C      1  0.5609360000000  0.4039080000000  0.4304810000000 1.0
C      1  0.5328040000000  0.4741390000000  0.5424200000000 1.0
C      1  0.4984920000000  0.5100550000000  0.4626710000000 1.0
C      1  0.3800460000000  0.5417660000000  0.5484080000000 1.0
C      1  0.5002640000000  0.4908300000000  0.4833990000000 1.0
C      1  0.5251520000000  0.5085970000000  0.6208480000000 1.0
C      1  0.4952830000000  0.4833090000000  0.5866660000000 1.0
C      1  0.5255280000000  0.5400370000000  0.5735690000000 1.0
C      1  0.5635770000000  0.5417890000000  0.4301500000000 1.0
C      1  0.5689290000000  0.4938350000000  0.5756790000000 1.0
C      1  0.4802640000000  0.4115530000000  0.5617300000000 1.0
C      1  0.3839520000000  0.5811970000000  0.4293610000000 1.0
C      1  0.5359010000000  0.4602530000000  0.5669740000000 1.0
C      1  0.4075520000000  0.5604430000000  0.4841790000000 1.0
C      1  0.5716980000000  0.5168880000000  0.4154290000000 1.0
C      1  0.5779740000000  0.5603860000000  0.5082870000000 1.0
C      1  0.5595880000000  0.5134240000000  0.3906110000000 1.0
C      1  0.3688860000000  0.5103350000000  0.4345000000000 1.0
C      1  0.3615290000000  0.5064950000000  0.4808070000000 1.0
C      1  0.6055790000000  0.4869620000000  0.4877280000000 1.0
C      1  0.5442970000000  0.4804230000000  0.5859200000000 1.0
C      1  0.5416450000000  0.5298620000000  0.6169870000000 1.0
C      1  0.4551740000000  0.5067630000000  0.4996060000000 1.0
C      1  0.6083370000000  0.5135440000000  0.5261790000000 1.0
C      1  0.4671030000000  0.5575970000000  0.5031300000000 1.0
C      1  0.3592040000000  0.5405830000000  0.5647040000000 1.0
C      1  0.5860500000000  0.4515940000000  0.5414920000000 1.0
C      1  0.4994850000000  0.4095500000000  0.4429620000000 1.0
C      1  0.5505560000000  0.4921030000000  0.4589280000000 1.0
C      1  0.3515390000000  0.5205280000000  0.4567430000000 1.0
C      1  0.5493230000000  0.4642020000000  0.4568730000000 1.0
C      1  0.5265190000000  0.4639910000000  0.5169310000000 1.0
C      1  0.4566290000000  0.4247620000000  0.5659670000000 1.0
C      1  0.4376620000000  0.4741350000000  0.5549820000000 1.0
C      1  0.5414050000000  0.4212910000000  0.4188440000000 1.0
C      1  0.4748330000000  0.4866240000000  0.4953450000000 1.0
C      1  0.4671430000000  0.4291610000000  0.5009400000000 1.0
C      1  0.5380200000000  0.5749450000000  0.4629360000000 1.0
C      1  0.4321650000000  0.4406660000000  0.4659630000000 1.0
C      1  0.5480800000000  0.5366020000000  0.5903240000000 1.0
C      1  0.4422420000000  0.4479870000000  0.5663130000000 1.0
C      1  0.4962900000000  0.5704060000000  0.5393390000000 1.0
C      1  0.5511130000000  0.4381950000000  0.3984880000000 1.0
C      1  0.5953780000000  0.4485900000000  0.5146460000000 1.0
C      1  0.3842560000000  0.5556970000000  0.4205060000000 1.0
C      1  0.5694580000000  0.5239260000000  0.5756530000000 1.0
C      1  0.4711630000000  0.5604450000000  0.5312910000000 1.0
C      1  0.4290080000000  0.4743590000000  0.5273920000000 1.0
C      1  0.5244440000000  0.4303330000000  0.4859160000000 1.0
C      1  0.4426750000000  0.5250810000000  0.5534090000000 1.0
C      1  0.5203030000000  0.4904430000000  0.5998190000000 1.0
C      1  0.5240460000000  0.4170420000000  0.5347930000000 1.0
C      1  0.6068360000000  0.5306270000000  0.5465930000000 1.0
C      1  0.4821640000000  0.4615540000000  0.5442750000000 1.0
C      1  0.5082820000000  0.4178140000000  0.5587430000000 1.0
C      1  0.4848900000000  0.4433010000000  0.5201900000000 1.0
C      1  0.4225050000000  0.5659240000000  0.5363220000000 1.0
C      1  0.5914190000000  0.5038410000000  0.5057780000000 1.0
C      1  0.5359330000000  0.5928140000000  0.4427110000000 1.0
C      1  0.4772500000000  0.4063440000000  0.4866910000000 1.0
C      1  0.5285920000000  0.4448370000000  0.4607240000000 1.0
C      1  0.5475600000000  0.5880350000000  0.4186880000000 1.0
C      1  0.5160340000000  0.4406230000000  0.5742500000000 1.0
C      1  0.6023830000000  0.5625960000000  0.4932710000000 1.0
C      1  0.4797420000000  0.5311220000000  0.4641470000000 1.0
C      1  0.6071510000000  0.5465260000000  0.4715600000000 1.0
C      1  0.4319050000000  0.5000670000000  0.5153990000000 1.0
C      1  0.4527450000000  0.4990710000000  0.5620580000000 1.0
C      1  0.3873480000000  0.5163110000000  0.4886860000000 1.0
C      1  0.5579840000000  0.6017650000000  0.5585370000000 1.0
C      1  0.3386690000000  0.5393860000000  0.5807190000000 1.0
C      1  0.4075350000000  0.5083670000000  0.4691590000000 1.0
C      1  0.4117170000000  0.5273850000000  0.4481590000000 1.0
C      1  0.4194840000000  0.5520040000000  0.4599120000000 1.0
C      1  0.4984470000000  0.3981370000000  0.4694650000000 1.0
C      1  0.5832890000000  0.4670390000000  0.4232510000000 1.0
C      1  0.3632420000000  0.4794500000000  0.4696760000000 1.0
C      1  0.4084260000000  0.5874470000000  0.4929790000000 1.0
C      1  0.5512720000000  0.3926790000000  0.4756410000000 1.0
C      1  0.5748540000000  0.4536240000000  0.4480940000000 1.0
C      1  0.4177820000000  0.5890520000000  0.5198630000000 1.0
C      1  0.5694520000000  0.4057880000000  0.4576910000000 1.0
C      1  0.5517550000000  0.4133500000000  0.5393560000000 1.0
C      1  0.5720790000000  0.4280410000000  0.5492170000000 1.0
C      1  0.4416010000000  0.4390180000000  0.4925360000000 1.0
C      1  0.5607520000000  0.5649020000000  0.4139030000000 1.0
C      1  0.5202580000000  0.4286470000000  0.4370910000000 1.0
C      1  0.6189430000000  0.4858670000000  0.4640630000000 1.0
C      1  0.5534440000000  0.5513100000000  0.4640860000000 1.0
C      1  0.5236180000000  0.4855170000000  0.4980410000000 1.0
C      1  0.5829480000000  0.4309010000000  0.4644720000000 1.0
C      1  0.3739620000000  0.4812950000000  0.4421490000000 1.0
C      1  0.5844750000000  0.4755070000000  0.5583120000000 1.0
C      1  0.5819710000000  0.5406940000000  0.5552320000000 1.0
C      1  0.4222270000000  0.5195410000000  0.5333090000000 1.0
C      1  0.5398750000000  0.5059480000000  0.5107500000000 1.0
C      1  0.5225530000000  0.5761010000000  0.5386920000000 1.0
C      1  0.5718260000000  0.4555150000000  0.4000130000000 1.0
C      1  0.4259910000000  0.4515200000000  0.5120950000000 1.0
C      1  0.4936130000000  0.4555220000000  0.5800960000000 1.0
C      1  0.5250160000000  0.4016160000000  0.4812530000000 1.0
C      1  0.4644520000000  0.5323350000000  0.4894340000000 1.0
C      1  0.4798840000000  0.4935050000000  0.5643750000000 1.0
C      1  0.4749870000000  0.5788750000000  0.4596480000000 1.0
C      1  0.5329250000000  0.5032210000000  0.5386470000000 1.0
C      1  0.6104000000000  0.5032930000000  0.4432550000000 1.0
C      1  0.3900870000000  0.5291360000000  0.4289220000000 1.0
C      1  0.4479460000000  0.5537390000000  0.5469070000000 1.0
C      1  0.5149970000000  0.4372180000000  0.5136120000000 1.0
C      1  0.5644780000000  0.5161850000000  0.5026460000000 1.0
C      1  0.4029030000000  0.5423030000000  0.5300510000000 1.0
C      1  0.3890220000000  0.5997040000000  0.4482910000000 1.0
C      1  0.5909210000000  0.4952320000000  0.4233210000000 1.0
C      1  0.3985250000000  0.6049250000000  0.4731460000000 1.0
C      1  0.3953170000000  0.4638820000000  0.4364430000000 1.0
C      1  0.5703340000000  0.5606140000000  0.5365850000000 1.0
C      1  0.5695160000000  0.5111570000000  0.4603540000000 1.0
C      1  0.5620010000000  0.5427220000000  0.4910370000000 1.0
C      1  0.4692510000000  0.5804040000000  0.4861440000000 1.0
C      1  0.5933860000000  0.4366940000000  0.4903760000000 1.0
END
