TITL C-599896-8500-1172 -2.08325444012791e-05 125000 -663.835499878574 0 0 110 (C1) n - 1
REM
REM in /home/nfs/bkarasulu/CARBON/AIRSS/Generating-Clusters/TERSOFF/Only-C1/FIRE-HFTN
REM
REM
REM
REM
REM
REM ./C.cell (11c1c37f851c82e70ff6c80c92926a4b)
REM AIRSS Version 0.9.1 bugfix July 2018 build 013d7b7c2542+ Fri, 06 Jul 2018 19:26:36 +0100
REM compiler GCC version 9.2.1 20190827 (Red Hat 9.2.1-1)
REM options -cpp -mtune=generic -march=x86-64 -g -O0 -fpre-include=/usr/include/finclude/math-vector-fortran.h
REM seed -1613412585 -399538875 -1016611295 -751333536 -1947609239 -129145182 -1503223930 2120196258 659443024 -249294074 1807812092 1346764930 -1372455737 -1659817525 -753018919 1741170514 -1415479126 -45575329 440545426 1254435039 -1203440252 1767295743 -1802931064 -1841250747 -508725393 -2094367430 1821936818 305465064 745925347 -646484865 -951136848 1820111675 -238504469
REM
CELL 1.54180   50.00000   50.00000   50.00000   90.00000   90.00000   90.00000
LATT -1
SFAC C  
C      1  0.4329130000000  0.4875420000000  0.5544110000000 1.0
C      1  0.4908040000000  0.4165360000000  0.5479600000000 1.0
C      1  0.5612280000000  0.5243590000000  0.5545730000000 1.0
C      1  0.5891050000000  0.5022250000000  0.5209300000000 1.0
C      1  0.4962530000000  0.5696580000000  0.4582390000000 1.0
C      1  0.4690640000000  0.5677410000000  0.4628930000000 1.0
C      1  0.5357340000000  0.4756100000000  0.5867050000000 1.0
C      1  0.5191690000000  0.5392590000000  0.3970500000000 1.0
C      1  0.5192620000000  0.4114610000000  0.5463750000000 1.0
C      1  0.5783790000000  0.5693140000000  0.4578910000000 1.0
C      1  0.4803320000000  0.4324790000000  0.6237630000000 1.0
C      1  0.5493190000000  0.5307730000000  0.4968150000000 1.0
C      1  0.4941620000000  0.4894670000000  0.5474240000000 1.0
C      1  0.4935860000000  0.6114770000000  0.4827420000000 1.0
C      1  0.4630400000000  0.4985960000000  0.3968940000000 1.0
C      1  0.5378060000000  0.5872330000000  0.4746230000000 1.0
C      1  0.5502120000000  0.5727710000000  0.4519950000000 1.0
C      1  0.4482790000000  0.5692520000000  0.5773820000000 1.0
C      1  0.4535260000000  0.4522820000000  0.4622530000000 1.0
C      1  0.5426970000000  0.4875590000000  0.5295460000000 1.0
C      1  0.4848670000000  0.4261260000000  0.4310830000000 1.0
C      1  0.4284730000000  0.4251760000000  0.5225410000000 1.0
C      1  0.5401130000000  0.5664860000000  0.5480230000000 1.0
C      1  0.4799180000000  0.4688010000000  0.5067810000000 1.0
C      1  0.5371770000000  0.4288740000000  0.5627110000000 1.0
C      1  0.5017010000000  0.4917350000000  0.5025750000000 1.0
C      1  0.6004320000000  0.5093170000000  0.4463850000000 1.0
C      1  0.4281190000000  0.4619770000000  0.4507070000000 1.0
C      1  0.5251840000000  0.5384590000000  0.5038420000000 1.0
C      1  0.4936460000000  0.4757180000000  0.4415520000000 1.0
C      1  0.4348990000000  0.5487600000000  0.4911450000000 1.0
C      1  0.5761370000000  0.5386630000000  0.4945360000000 1.0
C      1  0.5867000000000  0.4288760000000  0.4789120000000 1.0
C      1  0.4677500000000  0.4293030000000  0.4534560000000 1.0
C      1  0.5841720000000  0.4352230000000  0.5049670000000 1.0
C      1  0.5255200000000  0.4500400000000  0.5795930000000 1.0
C      1  0.5298640000000  0.5019580000000  0.5886290000000 1.0
C      1  0.5786490000000  0.4233630000000  0.4538040000000 1.0
C      1  0.5287490000000  0.4486150000000  0.4653820000000 1.0
C      1  0.4631810000000  0.5026880000000  0.6057720000000 1.0
C      1  0.5464190000000  0.4610840000000  0.5202840000000 1.0
C      1  0.4755060000000  0.5011180000000  0.4462080000000 1.0
C      1  0.4555340000000  0.4961300000000  0.4230870000000 1.0
C      1  0.4165820000000  0.5693160000000  0.4976740000000 1.0
C      1  0.5779570000000  0.5661170000000  0.4869910000000 1.0
C      1  0.4654690000000  0.5548010000000  0.5342380000000 1.0
C      1  0.5553420000000  0.5826530000000  0.4983290000000 1.0
C      1  0.5150950000000  0.4958010000000  0.5283980000000 1.0
C      1  0.4451820000000  0.4658330000000  0.5425910000000 1.0
C      1  0.4439720000000  0.4049770000000  0.5312470000000 1.0
C      1  0.5230550000000  0.4482530000000  0.5118240000000 1.0
C      1  0.5364160000000  0.4183700000000  0.4227350000000 1.0
C      1  0.5655090000000  0.5030060000000  0.5368860000000 1.0
C      1  0.4748160000000  0.4669320000000  0.5388830000000 1.0
C      1  0.4303750000000  0.5139110000000  0.5415650000000 1.0
C      1  0.4226290000000  0.5957190000000  0.4993990000000 1.0
C      1  0.4429420000000  0.5420840000000  0.5836560000000 1.0
C      1  0.5636960000000  0.4316470000000  0.5519190000000 1.0
C      1  0.4319480000000  0.5200230000000  0.4823190000000 1.0
C      1  0.4232270000000  0.5031620000000  0.5080400000000 1.0
C      1  0.4440910000000  0.5480600000000  0.4153790000000 1.0
C      1  0.4184000000000  0.5249330000000  0.4548830000000 1.0
C      1  0.4600570000000  0.5744350000000  0.5535960000000 1.0
C      1  0.4968670000000  0.4490070000000  0.5815460000000 1.0
C      1  0.5046170000000  0.5540640000000  0.5084340000000 1.0
C      1  0.4608000000000  0.5588340000000  0.4877160000000 1.0
C      1  0.5609450000000  0.4193790000000  0.4338690000000 1.0
C      1  0.4257740000000  0.5383070000000  0.4325310000000 1.0
C      1  0.4933860000000  0.5342290000000  0.5852030000000 1.0
C      1  0.4663400000000  0.5271660000000  0.5924590000000 1.0
C      1  0.4821510000000  0.4526390000000  0.6053820000000 1.0
C      1  0.5098450000000  0.5453790000000  0.4516980000000 1.0
C      1  0.4298730000000  0.4531690000000  0.5220870000000 1.0
C      1  0.4850120000000  0.4195060000000  0.4963420000000 1.0
C      1  0.4693830000000  0.4771810000000  0.6097620000000 1.0
C      1  0.5398520000000  0.5416210000000  0.5622540000000 1.0
C      1  0.4689640000000  0.6181890000000  0.4912210000000 1.0
C      1  0.5351800000000  0.5514200000000  0.4398380000000 1.0
C      1  0.5478300000000  0.5804010000000  0.5258520000000 1.0
C      1  0.4221880000000  0.5301490000000  0.5667140000000 1.0
C      1  0.5207020000000  0.5279140000000  0.5796160000000 1.0
C      1  0.4432300000000  0.6128740000000  0.4968280000000 1.0
C      1  0.4723550000000  0.4110100000000  0.4743730000000 1.0
C      1  0.5339720000000  0.4052980000000  0.4958180000000 1.0
C      1  0.4268130000000  0.4726570000000  0.4993880000000 1.0
C      1  0.5940060000000  0.5167050000000  0.4970570000000 1.0
C      1  0.4778480000000  0.5597400000000  0.5099640000000 1.0
C      1  0.5410040000000  0.5387970000000  0.4150090000000 1.0
C      1  0.4571460000000  0.4725250000000  0.4868100000000 1.0
C      1  0.5328090000000  0.4238250000000  0.4759600000000 1.0
C      1  0.5293370000000  0.4000360000000  0.5220550000000 1.0
C      1  0.5667320000000  0.5270830000000  0.4133950000000 1.0
C      1  0.4112010000000  0.4657060000000  0.4739760000000 1.0
C      1  0.4686590000000  0.4006500000000  0.5410890000000 1.0
C      1  0.6041060000000  0.5062170000000  0.4729360000000 1.0
C      1  0.5157160000000  0.4729950000000  0.4600240000000 1.0
C      1  0.4965360000000  0.4438220000000  0.5038390000000 1.0
C      1  0.4995640000000  0.5190740000000  0.4583780000000 1.0
C      1  0.5682560000000  0.4439140000000  0.5266110000000 1.0
C      1  0.5096230000000  0.4209550000000  0.4217410000000 1.0
C      1  0.4569230000000  0.5008600000000  0.4724180000000 1.0
C      1  0.4848050000000  0.4432280000000  0.5563910000000 1.0
C      1  0.4930700000000  0.5457240000000  0.3951150000000 1.0
C      1  0.5898330000000  0.5295860000000  0.4298100000000 1.0
C      1  0.4677350000000  0.5505000000000  0.4027750000000 1.0
C      1  0.5119860000000  0.4974600000000  0.4763190000000 1.0
C      1  0.5945580000000  0.5559440000000  0.4395170000000 1.0
C      1  0.5099980000000  0.5915030000000  0.4714180000000 1.0
C      1  0.4326020000000  0.4800790000000  0.4295870000000 1.0
C      1  0.4555260000000  0.5285560000000  0.5358820000000 1.0
END
