TITL C-599892-9790-1144 711.085148107149 125000 -1047.79096437263 0 0 170 (C1) n - 1
REM
REM in /home/nfs/bkarasulu/CARBON/AIRSS/Generating-Clusters/TERSOFF/Only-C1/FIRE-HFTN
REM
REM
REM
REM
REM
REM ./C.cell (11c1c37f851c82e70ff6c80c92926a4b)
REM AIRSS Version 0.9.1 bugfix July 2018 build 013d7b7c2542+ Fri, 06 Jul 2018 19:26:36 +0100
REM compiler GCC version 9.2.1 20190827 (Red Hat 9.2.1-1)
REM options -cpp -mtune=generic -march=x86-64 -g -O0 -fpre-include=/usr/include/finclude/math-vector-fortran.h
REM seed -37190917 2134352463 -560943490 -417768857 -1471020171 1359142353 1525379501 1143068506 1416531568 224485793 1325270844 -733392495 2103922966 -788170887 -1366981862 -548921800 -2044301309 -2054446370 1120228726 -752348781 -256034719 -2058044619 -747881466 -750129719 -1463956575 1523989463 -549156305 1149936216 -1772282025 -1031922493 -1333935691 1477600918 -285027157
REM
CELL 1.54180   50.00000   50.00000   50.00000   90.00000   90.00000   90.00000
LATT -1
SFAC C  
C      1  0.5283620000000  0.5664460000000  0.4810200000000 1.0
C      1  0.5475890000000  0.5805270000000  0.4976270000000 1.0
C      1  0.4486460000000  0.4853260000000  0.3905040000000 1.0
C      1  0.5967470000000  0.5496300000000  0.5633920000000 1.0
C      1  0.4132730000000  0.5742370000000  0.4929190000000 1.0
C      1  0.5395920000000  0.4018190000000  0.5237340000000 1.0
C      1  0.4611670000000  0.5043830000000  0.5405110000000 1.0
C      1  0.4701510000000  0.3871840000000  0.5207380000000 1.0
C      1  0.3641220000000  0.5398170000000  0.5729910000000 1.0
C      1  0.5431480000000  0.5017610000000  0.5538830000000 1.0
C      1  0.4303440000000  0.5272300000000  0.4064440000000 1.0
C      1  0.4997040000000  0.5108470000000  0.6211780000000 1.0
C      1  0.4719920000000  0.4415170000000  0.4998590000000 1.0
C      1  0.5722090000000  0.5598760000000  0.4641820000000 1.0
C      1  0.4894380000000  0.4529720000000  0.4806930000000 1.0
C      1  0.4128660000000  0.4660450000000  0.5688230000000 1.0
C      1  0.5638580000000  0.4861440000000  0.5063930000000 1.0
C      1  0.5326630000000  0.5135180000000  0.4777710000000 1.0
C      1  0.4237250000000  0.5083460000000  0.5973630000000 1.0
C      1  0.4081240000000  0.4713040000000  0.4236950000000 1.0
C      1  0.4631310000000  0.4129570000000  0.5658080000000 1.0
C      1  0.5093270000000  0.5799990000000  0.5425420000000 1.0
C      1  0.4639070000000  0.4489210000000  0.4318920000000 1.0
C      1  0.4355670000000  0.5121700000000  0.5363510000000 1.0
C      1  0.5837910000000  0.5438360000000  0.4855950000000 1.0
C      1  0.4499130000000  0.5141120000000  0.3911510000000 1.0
C      1  0.3867670000000  0.4507830000000  0.5245870000000 1.0
C      1  0.3939030000000  0.5669010000000  0.5117430000000 1.0
C      1  0.5576300000000  0.4292950000000  0.4853100000000 1.0
C      1  0.5582410000000  0.5916600000000  0.3844910000000 1.0
C      1  0.5310160000000  0.4394580000000  0.4155200000000 1.0
C      1  0.4749470000000  0.4999300000000  0.6108770000000 1.0
C      1  0.5727060000000  0.4425270000000  0.4405630000000 1.0
C      1  0.3868610000000  0.5253490000000  0.4692600000000 1.0
C      1  0.4465220000000  0.5320030000000  0.4803110000000 1.0
C      1  0.5758830000000  0.5937030000000  0.4957330000000 1.0
C      1  0.4463940000000  0.4827690000000  0.4644460000000 1.0
C      1  0.5263940000000  0.4636180000000  0.3982840000000 1.0
C      1  0.4826060000000  0.4953050000000  0.5246280000000 1.0
C      1  0.5008440000000  0.4330850000000  0.4620400000000 1.0
C      1  0.6214360000000  0.5722120000000  0.5163410000000 1.0
C      1  0.4351070000000  0.5087000000000  0.4674780000000 1.0
C      1  0.5859960000000  0.4891300000000  0.5487480000000 1.0
C      1  0.4368800000000  0.4261700000000  0.5723050000000 1.0
C      1  0.5769860000000  0.4421130000000  0.5579030000000 1.0
C      1  0.5894250000000  0.5998370000000  0.4701960000000 1.0
C      1  0.4329150000000  0.4116010000000  0.4268560000000 1.0
C      1  0.5818500000000  0.5371150000000  0.5438450000000 1.0
C      1  0.4736600000000  0.4513150000000  0.5257030000000 1.0
C      1  0.4839650000000  0.5404880000000  0.5418340000000 1.0
C      1  0.5809410000000  0.4320550000000  0.5297060000000 1.0
C      1  0.4720530000000  0.5756440000000  0.5730410000000 1.0
C      1  0.4483070000000  0.4561470000000  0.4552590000000 1.0
C      1  0.4677730000000  0.5492140000000  0.5632660000000 1.0
C      1  0.5543450000000  0.5506840000000  0.4451570000000 1.0
C      1  0.4715310000000  0.5310820000000  0.4947190000000 1.0
C      1  0.5113460000000  0.5350710000000  0.5475500000000 1.0
C      1  0.4919730000000  0.4065180000000  0.4544680000000 1.0
C      1  0.4472200000000  0.5048760000000  0.6131690000000 1.0
C      1  0.4289650000000  0.4697900000000  0.5206020000000 1.0
C      1  0.5606880000000  0.5715570000000  0.4032870000000 1.0
C      1  0.4966590000000  0.3784940000000  0.5249610000000 1.0
C      1  0.4808810000000  0.3886670000000  0.4732530000000 1.0
C      1  0.4556370000000  0.6146380000000  0.5221460000000 1.0
C      1  0.3619190000000  0.5147990000000  0.5822760000000 1.0
C      1  0.4951160000000  0.4699390000000  0.5283460000000 1.0
C      1  0.5527730000000  0.5237250000000  0.4414340000000 1.0
C      1  0.4084300000000  0.5588040000000  0.5786940000000 1.0
C      1  0.4261300000000  0.4731990000000  0.4033860000000 1.0
C      1  0.4308030000000  0.5552590000000  0.4820940000000 1.0
C      1  0.4794980000000  0.5517020000000  0.5150950000000 1.0
C      1  0.5998880000000  0.5253590000000  0.4694250000000 1.0
C      1  0.4495020000000  0.5926630000000  0.5700360000000 1.0
C      1  0.5332260000000  0.4183720000000  0.5706370000000 1.0
C      1  0.6034800000000  0.4357380000000  0.5117520000000 1.0
C      1  0.6331850000000  0.5477030000000  0.5148920000000 1.0
C      1  0.5486560000000  0.4993940000000  0.6058250000000 1.0
C      1  0.5055540000000  0.6321070000000  0.4722240000000 1.0
C      1  0.5824370000000  0.5025200000000  0.4679480000000 1.0
C      1  0.5801640000000  0.4695390000000  0.5686670000000 1.0
C      1  0.4833710000000  0.4330850000000  0.5761040000000 1.0
C      1  0.3894860000000  0.4673080000000  0.4727180000000 1.0
C      1  0.4224420000000  0.4156370000000  0.4517740000000 1.0
C      1  0.5364370000000  0.4732780000000  0.5509460000000 1.0
C      1  0.5045080000000  0.4891210000000  0.5762490000000 1.0
C      1  0.6071540000000  0.5320140000000  0.4409770000000 1.0
C      1  0.5172380000000  0.5686340000000  0.5906790000000 1.0
C      1  0.4189300000000  0.6016310000000  0.4906190000000 1.0
C      1  0.4969160000000  0.4678180000000  0.3987530000000 1.0
C      1  0.5916220000000  0.5777900000000  0.4517440000000 1.0
C      1  0.5527430000000  0.6301280000000  0.3490970000000 1.0
C      1  0.4484370000000  0.4575040000000  0.5374780000000 1.0
C      1  0.3853000000000  0.4578680000000  0.4980900000000 1.0
C      1  0.4829500000000  0.5040470000000  0.4975040000000 1.0
C      1  0.5599620000000  0.5046110000000  0.4853460000000 1.0
C      1  0.5201640000000  0.4647700000000  0.5725590000000 1.0
C      1  0.5203270000000  0.5402630000000  0.4708920000000 1.0
C      1  0.5690250000000  0.5126730000000  0.5508760000000 1.0
C      1  0.4246980000000  0.5817990000000  0.5781170000000 1.0
C      1  0.5562870000000  0.4276920000000  0.4216280000000 1.0
C      1  0.5762100000000  0.5241090000000  0.4033750000000 1.0
C      1  0.4740050000000  0.5253060000000  0.3817910000000 1.0
C      1  0.5264350000000  0.5188510000000  0.6118830000000 1.0
C      1  0.4253840000000  0.3982700000000  0.5394310000000 1.0
C      1  0.4137870000000  0.5248710000000  0.4273620000000 1.0
C      1  0.5896220000000  0.4869360000000  0.5205140000000 1.0
C      1  0.3990250000000  0.4451680000000  0.5503090000000 1.0
C      1  0.5493640000000  0.5621390000000  0.5208840000000 1.0
C      1  0.5338740000000  0.4672080000000  0.4556950000000 1.0
C      1  0.5178090000000  0.5122500000000  0.5622140000000 1.0
C      1  0.5188990000000  0.5477640000000  0.4192590000000 1.0
C      1  0.4531850000000  0.4225820000000  0.4907140000000 1.0
C      1  0.4931860000000  0.6188950000000  0.4909770000000 1.0
C      1  0.5082540000000  0.3797080000000  0.5513940000000 1.0
C      1  0.5272370000000  0.5464480000000  0.6029480000000 1.0
C      1  0.5233000000000  0.5277570000000  0.3986090000000 1.0
C      1  0.5605610000000  0.4714780000000  0.4374580000000 1.0
C      1  0.4342540000000  0.6186720000000  0.5044340000000 1.0
C      1  0.5780290000000  0.5514810000000  0.5172500000000 1.0
C      1  0.4590810000000  0.4217600000000  0.4219490000000 1.0
C      1  0.5485480000000  0.5114920000000  0.3992530000000 1.0
C      1  0.5807750000000  0.4920810000000  0.4419130000000 1.0
C      1  0.3845000000000  0.5565450000000  0.5631610000000 1.0
C      1  0.5932740000000  0.5109140000000  0.4237460000000 1.0
C      1  0.5192370000000  0.3875270000000  0.5084140000000 1.0
C      1  0.5120680000000  0.4372540000000  0.5753340000000 1.0
C      1  0.5937290000000  0.5790720000000  0.5153740000000 1.0
C      1  0.4545690000000  0.3958480000000  0.5428070000000 1.0
C      1  0.5593380000000  0.4192750000000  0.5132910000000 1.0
C      1  0.4736820000000  0.4731280000000  0.3836380000000 1.0
C      1  0.5454470000000  0.4833760000000  0.4064300000000 1.0
C      1  0.4138480000000  0.4196790000000  0.5548680000000 1.0
C      1  0.6013630000000  0.5593980000000  0.4301210000000 1.0
C      1  0.4633990000000  0.3959520000000  0.4942890000000 1.0
C      1  0.4058970000000  0.4881000000000  0.5857310000000 1.0
C      1  0.5280840000000  0.5575870000000  0.5387290000000 1.0
C      1  0.3783380000000  0.4943260000000  0.5875470000000 1.0
C      1  0.5601310000000  0.4260450000000  0.5743330000000 1.0
C      1  0.5554950000000  0.6110240000000  0.3666200000000 1.0
C      1  0.5663520000000  0.4816130000000  0.5929320000000 1.0
C      1  0.4682610000000  0.4587010000000  0.5817590000000 1.0
C      1  0.5143910000000  0.4481620000000  0.4401610000000 1.0
C      1  0.4510150000000  0.6121780000000  0.5497970000000 1.0
C      1  0.4809560000000  0.4046660000000  0.4281370000000 1.0
C      1  0.5182510000000  0.4908470000000  0.4668850000000 1.0
C      1  0.5236680000000  0.4673680000000  0.5266110000000 1.0
C      1  0.5301160000000  0.3981260000000  0.5515680000000 1.0
C      1  0.4172380000000  0.5354130000000  0.5917180000000 1.0
C      1  0.4797060000000  0.6044510000000  0.5106600000000 1.0
C      1  0.5003690000000  0.5813330000000  0.5707850000000 1.0
C      1  0.5419200000000  0.4678480000000  0.5058410000000 1.0
C      1  0.5008460000000  0.5244560000000  0.3819250000000 1.0
C      1  0.6295690000000  0.5209880000000  0.5129260000000 1.0
C      1  0.3844000000000  0.5644420000000  0.5363920000000 1.0
C      1  0.5804840000000  0.4324330000000  0.4672810000000 1.0
C      1  0.3992280000000  0.4814260000000  0.4492040000000 1.0
C      1  0.4804420000000  0.4831050000000  0.5889660000000 1.0
C      1  0.5832850000000  0.5537430000000  0.4058980000000 1.0
C      1  0.5418370000000  0.5647380000000  0.4233060000000 1.0
C      1  0.4897040000000  0.4596250000000  0.4256640000000 1.0
C      1  0.6036990000000  0.4348990000000  0.4841100000000 1.0
C      1  0.4419660000000  0.4563600000000  0.5677780000000 1.0
C      1  0.4937680000000  0.4831260000000  0.4796320000000 1.0
C      1  0.6139580000000  0.4989200000000  0.5117790000000 1.0
C      1  0.4195990000000  0.4951630000000  0.5227740000000 1.0
C      1  0.4896270000000  0.5796470000000  0.5198600000000 1.0
C      1  0.5411460000000  0.4521400000000  0.4826280000000 1.0
C      1  0.4371170000000  0.4326510000000  0.4692540000000 1.0
C      1  0.5066560000000  0.5413670000000  0.4447620000000 1.0
C      1  0.4078430000000  0.5108720000000  0.4534280000000 1.0
END
