TITL C-599892-9790-736 0.000192772210254008 125000 -996.702869400558 0 0 159 (C1) n - 1
REM
REM in /home/nfs/bkarasulu/CARBON/AIRSS/Generating-Clusters/TERSOFF/Only-C1/FIRE-HFTN
REM
REM
REM
REM
REM
REM ./C.cell (11c1c37f851c82e70ff6c80c92926a4b)
REM AIRSS Version 0.9.1 bugfix July 2018 build 013d7b7c2542+ Fri, 06 Jul 2018 19:26:36 +0100
REM compiler GCC version 9.2.1 20190827 (Red Hat 9.2.1-1)
REM options -cpp -mtune=generic -march=x86-64 -g -O0 -fpre-include=/usr/include/finclude/math-vector-fortran.h
REM seed 2132752480 1447761488 1026925045 810100320 1851602377 -496200805 -846674503 -51051395 462678653 -1449247736 -1191584655 -156608847 -1804764468 2006684457 -402685004 -1654492416 -686248679 -352443440 254089431 -1704664676 2005968741 -1760993530 1637262985 1379118410 -1886989262 -1587160900 -673699002 -1603541232 1937235198 902876634 2145311694 624992457 -1123818832
REM
CELL 1.54180   50.00000   50.00000   50.00000   90.00000   90.00000   90.00000
LATT -1
SFAC C  
C      1  0.5281510000000  0.4808130000000  0.5005320000000 1.0
C      1  0.4825910000000  0.5041400000000  0.5723550000000 1.0
C      1  0.4404260000000  0.4744230000000  0.5435230000000 1.0
C      1  0.5081760000000  0.4380050000000  0.5873600000000 1.0
C      1  0.4230410000000  0.5130080000000  0.4639120000000 1.0
C      1  0.4326810000000  0.5608630000000  0.4291910000000 1.0
C      1  0.5309610000000  0.5095180000000  0.6208970000000 1.0
C      1  0.4451940000000  0.5490580000000  0.4922640000000 1.0
C      1  0.5583530000000  0.5621750000000  0.4320420000000 1.0
C      1  0.5455430000000  0.6051800000000  0.4773660000000 1.0
C      1  0.5536760000000  0.4153160000000  0.5622470000000 1.0
C      1  0.5037730000000  0.6072590000000  0.5046800000000 1.0
C      1  0.4445920000000  0.5212000000000  0.4482500000000 1.0
C      1  0.4804370000000  0.4028990000000  0.5336980000000 1.0
C      1  0.5497340000000  0.5059840000000  0.4131470000000 1.0
C      1  0.5462880000000  0.4391530000000  0.4133540000000 1.0
C      1  0.5799750000000  0.5728850000000  0.4994530000000 1.0
C      1  0.4631190000000  0.6111790000000  0.5291190000000 1.0
C      1  0.4137730000000  0.4729110000000  0.4227870000000 1.0
C      1  0.4320830000000  0.4468570000000  0.5497170000000 1.0
C      1  0.4143770000000  0.5622700000000  0.5448420000000 1.0
C      1  0.6092260000000  0.4710680000000  0.5269420000000 1.0
C      1  0.5938830000000  0.5373350000000  0.4609860000000 1.0
C      1  0.4905970000000  0.5150880000000  0.4696620000000 1.0
C      1  0.5306300000000  0.4955160000000  0.4320710000000 1.0
C      1  0.4844130000000  0.5151280000000  0.3925640000000 1.0
C      1  0.5328880000000  0.4543300000000  0.5838850000000 1.0
C      1  0.5354480000000  0.4008190000000  0.5446010000000 1.0
C      1  0.5409520000000  0.4622310000000  0.5164680000000 1.0
C      1  0.3818850000000  0.5450520000000  0.4755210000000 1.0
C      1  0.4313110000000  0.5705480000000  0.4795110000000 1.0
C      1  0.4841680000000  0.5408170000000  0.4003010000000 1.0
C      1  0.4370370000000  0.5406140000000  0.6003870000000 1.0
C      1  0.4309270000000  0.5305320000000  0.4242850000000 1.0
C      1  0.4264980000000  0.5248970000000  0.5788700000000 1.0
C      1  0.4803520000000  0.5532890000000  0.4489870000000 1.0
C      1  0.5740890000000  0.5145330000000  0.4240380000000 1.0
C      1  0.4138260000000  0.4285650000000  0.4623140000000 1.0
C      1  0.4515740000000  0.5345860000000  0.5351950000000 1.0
C      1  0.4868800000000  0.4905460000000  0.4810500000000 1.0
C      1  0.4363420000000  0.6033100000000  0.5307740000000 1.0
C      1  0.4170710000000  0.5040670000000  0.4167920000000 1.0
C      1  0.4496050000000  0.4682070000000  0.4761980000000 1.0
C      1  0.5439830000000  0.5367900000000  0.5043660000000 1.0
C      1  0.5165180000000  0.5227620000000  0.5453340000000 1.0
C      1  0.4597550000000  0.4089230000000  0.5530150000000 1.0
C      1  0.4504430000000  0.4463000000000  0.4941160000000 1.0
C      1  0.5706830000000  0.5002570000000  0.4911080000000 1.0
C      1  0.4272160000000  0.4890560000000  0.4799320000000 1.0
C      1  0.4273230000000  0.5016270000000  0.5067700000000 1.0
C      1  0.4480520000000  0.3951820000000  0.4458320000000 1.0
C      1  0.4540370000000  0.4183080000000  0.4901560000000 1.0
C      1  0.4380800000000  0.4120090000000  0.4658770000000 1.0
C      1  0.5697200000000  0.5271010000000  0.4999510000000 1.0
C      1  0.5114180000000  0.4894660000000  0.6243920000000 1.0
C      1  0.5429090000000  0.5046010000000  0.3858890000000 1.0
C      1  0.5708640000000  0.4632010000000  0.5563750000000 1.0
C      1  0.5579470000000  0.5024900000000  0.6170400000000 1.0
C      1  0.4772210000000  0.4071500000000  0.5046830000000 1.0
C      1  0.5396460000000  0.4374100000000  0.5048210000000 1.0
C      1  0.4990360000000  0.4913090000000  0.3962680000000 1.0
C      1  0.4988800000000  0.6017490000000  0.4523160000000 1.0
C      1  0.4793890000000  0.5330030000000  0.5812160000000 1.0
C      1  0.4096100000000  0.4566130000000  0.4482180000000 1.0
C      1  0.5222410000000  0.5702730000000  0.5385190000000 1.0
C      1  0.4489070000000  0.4317610000000  0.5665910000000 1.0
C      1  0.4858240000000  0.4478920000000  0.6021470000000 1.0
C      1  0.4923090000000  0.4645790000000  0.4410930000000 1.0
C      1  0.4472190000000  0.4763520000000  0.5918950000000 1.0
C      1  0.4721930000000  0.5554960000000  0.4985550000000 1.0
C      1  0.5120070000000  0.4032570000000  0.4128130000000 1.0
C      1  0.4852310000000  0.5571660000000  0.4216290000000 1.0
C      1  0.5092250000000  0.5950640000000  0.5316260000000 1.0
C      1  0.5052050000000  0.4390240000000  0.4431040000000 1.0
C      1  0.5256270000000  0.5370580000000  0.6142620000000 1.0
C      1  0.4097850000000  0.5789580000000  0.4971120000000 1.0
C      1  0.4868420000000  0.5627720000000  0.4757570000000 1.0
C      1  0.4871090000000  0.4742120000000  0.5290320000000 1.0
C      1  0.4576440000000  0.4472900000000  0.5898050000000 1.0
C      1  0.5979470000000  0.4897510000000  0.4834640000000 1.0
C      1  0.3918550000000  0.4579940000000  0.4937020000000 1.0
C      1  0.5274100000000  0.5444960000000  0.4835880000000 1.0
C      1  0.4037620000000  0.4184560000000  0.5141440000000 1.0
C      1  0.5167570000000  0.5980310000000  0.4786970000000 1.0
C      1  0.4635230000000  0.5463480000000  0.5985850000000 1.0
C      1  0.5852640000000  0.4662570000000  0.4435840000000 1.0
C      1  0.4778970000000  0.5470140000000  0.5262130000000 1.0
C      1  0.5443400000000  0.3950840000000  0.5174290000000 1.0
C      1  0.4848400000000  0.6026150000000  0.5463760000000 1.0
C      1  0.5138980000000  0.5682320000000  0.4808780000000 1.0
C      1  0.6137110000000  0.5238440000000  0.5414430000000 1.0
C      1  0.5152960000000  0.5975840000000  0.4284560000000 1.0
C      1  0.4269910000000  0.4959950000000  0.5843490000000 1.0
C      1  0.5909360000000  0.4943870000000  0.4367270000000 1.0
C      1  0.5859020000000  0.5471300000000  0.4869850000000 1.0
C      1  0.4659920000000  0.3868830000000  0.4279380000000 1.0
C      1  0.5933530000000  0.4797790000000  0.5497430000000 1.0
C      1  0.5067960000000  0.4078790000000  0.5462600000000 1.0
C      1  0.4299390000000  0.5397100000000  0.5537930000000 1.0
C      1  0.3997430000000  0.4640850000000  0.5208160000000 1.0
C      1  0.3976260000000  0.4292710000000  0.4877580000000 1.0
C      1  0.4031000000000  0.4728070000000  0.4721590000000 1.0
C      1  0.5172480000000  0.5236520000000  0.4675270000000 1.0
C      1  0.6036290000000  0.5088940000000  0.4596840000000 1.0
C      1  0.5754730000000  0.5230320000000  0.5722950000000 1.0
C      1  0.5692250000000  0.5943230000000  0.4844020000000 1.0
C      1  0.4153180000000  0.4574120000000  0.3997820000000 1.0
C      1  0.5019060000000  0.4107150000000  0.4900130000000 1.0
C      1  0.4725990000000  0.4899190000000  0.5961370000000 1.0
C      1  0.6250740000000  0.5154260000000  0.5183190000000 1.0
C      1  0.5341730000000  0.5031100000000  0.4587920000000 1.0
C      1  0.5849450000000  0.4120520000000  0.4910970000000 1.0
C      1  0.4092850000000  0.4388360000000  0.5340450000000 1.0
C      1  0.5023840000000  0.4325660000000  0.5597160000000 1.0
C      1  0.5705230000000  0.3945030000000  0.5062340000000 1.0
C      1  0.5677200000000  0.4493190000000  0.4290570000000 1.0
C      1  0.5274930000000  0.4122530000000  0.5013820000000 1.0
C      1  0.4905690000000  0.4750700000000  0.6125330000000 1.0
C      1  0.4191410000000  0.4846060000000  0.5270370000000 1.0
C      1  0.5241550000000  0.4748210000000  0.5607170000000 1.0
C      1  0.4382040000000  0.5272200000000  0.5097150000000 1.0
C      1  0.4172530000000  0.5831170000000  0.5250560000000 1.0
C      1  0.5382600000000  0.5477310000000  0.5910400000000 1.0
C      1  0.5583340000000  0.4418640000000  0.5731930000000 1.0
C      1  0.5054450000000  0.4835900000000  0.4234690000000 1.0
C      1  0.5098400000000  0.6118410000000  0.4056620000000 1.0
C      1  0.5937540000000  0.4607070000000  0.4715970000000 1.0
C      1  0.4998260000000  0.4827090000000  0.5043490000000 1.0
C      1  0.4995800000000  0.4224140000000  0.4647720000000 1.0
C      1  0.5223800000000  0.4273020000000  0.4235350000000 1.0
C      1  0.5215080000000  0.4872530000000  0.3784530000000 1.0
C      1  0.6077660000000  0.4455480000000  0.5155020000000 1.0
C      1  0.4745970000000  0.4725670000000  0.4629360000000 1.0
C      1  0.5507060000000  0.5639510000000  0.5458370000000 1.0
C      1  0.5108560000000  0.5014610000000  0.5628370000000 1.0
C      1  0.3849110000000  0.5680410000000  0.4893610000000 1.0
C      1  0.5459290000000  0.4907590000000  0.4808970000000 1.0
C      1  0.4759950000000  0.6167570000000  0.5036540000000 1.0
C      1  0.5712150000000  0.5717780000000  0.5271740000000 1.0
C      1  0.5933960000000  0.5091640000000  0.5549230000000 1.0
C      1  0.4424980000000  0.5793860000000  0.4526000000000 1.0
C      1  0.5563420000000  0.5455360000000  0.5686230000000 1.0
C      1  0.6158470000000  0.4911700000000  0.5073020000000 1.0
C      1  0.5961210000000  0.4382280000000  0.4904070000000 1.0
C      1  0.3979410000000  0.5259860000000  0.4656650000000 1.0
C      1  0.5113230000000  0.5530390000000  0.6312200000000 1.0
C      1  0.4707430000000  0.5269320000000  0.4542280000000 1.0
C      1  0.5299470000000  0.4615330000000  0.3708330000000 1.0
C      1  0.5763450000000  0.5407540000000  0.4372940000000 1.0
C      1  0.5030020000000  0.4575970000000  0.5458560000000 1.0
C      1  0.4894760000000  0.3889490000000  0.4153740000000 1.0
C      1  0.5748320000000  0.5112630000000  0.5982260000000 1.0
C      1  0.4663750000000  0.4858890000000  0.5447250000000 1.0
C      1  0.4629300000000  0.6182550000000  0.4788040000000 1.0
C      1  0.5047090000000  0.5469530000000  0.5367350000000 1.0
C      1  0.4673320000000  0.6003050000000  0.4559730000000 1.0
C      1  0.5475560000000  0.4716860000000  0.5419470000000 1.0
C      1  0.5376150000000  0.5793400000000  0.4290190000000 1.0
C      1  0.5449280000000  0.4446490000000  0.3855980000000 1.0
END
