TITL C-599894-471-1038 0.000129538123644 125000 -803.389213283387 0 0 132 (C1) n - 1
REM
REM in /home/nfs/bkarasulu/CARBON/AIRSS/Generating-Clusters/TERSOFF/Only-C1/FIRE-HFTN
REM
REM
REM
REM
REM
REM ./C.cell (11c1c37f851c82e70ff6c80c92926a4b)
REM AIRSS Version 0.9.1 bugfix July 2018 build 013d7b7c2542+ Fri, 06 Jul 2018 19:26:36 +0100
REM compiler GCC version 9.2.1 20190827 (Red Hat 9.2.1-1)
REM options -cpp -mtune=generic -march=x86-64 -g -O0 -fpre-include=/usr/include/finclude/math-vector-fortran.h
REM seed -433597419 1825989669 1548397187 408118763 -980380305 -1123120942 339570425 224875447 898702195 -431384531 1399342161 1584810541 2072803896 -1554518024 -655613006 -491705900 -1218294589 -432813315 972867520 501111578 513786061 -891975455 850590652 -387510979 1833939586 -1814873209 -1250390766 57158688 1391790021 -1868320588 -949169819 -1974587722 211538827
REM
CELL 1.54180   50.00000   50.00000   50.00000   90.00000   90.00000   90.00000
LATT -1
SFAC C  
C      1  0.4953110000000  0.4540840000000  0.5060310000000 1.0
C      1  0.5275380000000  0.5205360000000  0.4218740000000 1.0
C      1  0.5570980000000  0.4767120000000  0.6090390000000 1.0
C      1  0.6097870000000  0.5236770000000  0.5184910000000 1.0
C      1  0.4933680000000  0.3865540000000  0.5253780000000 1.0
C      1  0.4077250000000  0.4947450000000  0.5077910000000 1.0
C      1  0.6000540000000  0.5491290000000  0.5200730000000 1.0
C      1  0.4728710000000  0.4916770000000  0.5404410000000 1.0
C      1  0.5610050000000  0.5551030000000  0.4639960000000 1.0
C      1  0.4378030000000  0.5310340000000  0.4118250000000 1.0
C      1  0.4016350000000  0.5447980000000  0.5239710000000 1.0
C      1  0.4227190000000  0.4408140000000  0.5501350000000 1.0
C      1  0.4233960000000  0.5488170000000  0.5678860000000 1.0
C      1  0.5433250000000  0.5010910000000  0.4366570000000 1.0
C      1  0.4714250000000  0.4456900000000  0.5235810000000 1.0
C      1  0.3951660000000  0.4817750000000  0.4852270000000 1.0
C      1  0.5125630000000  0.5076350000000  0.4010760000000 1.0
C      1  0.5761240000000  0.4526380000000  0.4271850000000 1.0
C      1  0.5027480000000  0.4826200000000  0.3971500000000 1.0
C      1  0.5880440000000  0.4913240000000  0.4577010000000 1.0
C      1  0.4245080000000  0.5787180000000  0.4964630000000 1.0
C      1  0.4703150000000  0.5276980000000  0.4622000000000 1.0
C      1  0.4559150000000  0.4719650000000  0.5254850000000 1.0
C      1  0.5061170000000  0.4056620000000  0.5425230000000 1.0
C      1  0.6145370000000  0.5512370000000  0.4474540000000 1.0
C      1  0.4927810000000  0.4217170000000  0.5625680000000 1.0
C      1  0.4112200000000  0.4853970000000  0.4609830000000 1.0
C      1  0.5159450000000  0.5367340000000  0.5342580000000 1.0
C      1  0.3701690000000  0.4709050000000  0.4856780000000 1.0
C      1  0.5863030000000  0.4052470000000  0.4901550000000 1.0
C      1  0.4244300000000  0.4606500000000  0.4531970000000 1.0
C      1  0.5798830000000  0.5680190000000  0.4810640000000 1.0
C      1  0.5092930000000  0.4231380000000  0.4414090000000 1.0
C      1  0.4807090000000  0.5609660000000  0.5169500000000 1.0
C      1  0.4223440000000  0.5230230000000  0.5763100000000 1.0
C      1  0.4661620000000  0.6096500000000  0.5459090000000 1.0
C      1  0.5674480000000  0.5086390000000  0.5266700000000 1.0
C      1  0.4774240000000  0.6026900000000  0.4766830000000 1.0
C      1  0.5166350000000  0.5479170000000  0.5962960000000 1.0
C      1  0.4279210000000  0.4966860000000  0.5803240000000 1.0
C      1  0.4052120000000  0.5324980000000  0.4799100000000 1.0
C      1  0.5140680000000  0.5417230000000  0.4404450000000 1.0
C      1  0.5835840000000  0.3990590000000  0.5423760000000 1.0
C      1  0.5353820000000  0.5904040000000  0.5222930000000 1.0
C      1  0.5062870000000  0.4266170000000  0.5873590000000 1.0
C      1  0.5925390000000  0.4758460000000  0.4160610000000 1.0
C      1  0.5533910000000  0.5682590000000  0.5261770000000 1.0
C      1  0.5650490000000  0.5015250000000  0.5991650000000 1.0
C      1  0.5054460000000  0.5233440000000  0.5959930000000 1.0
C      1  0.4458730000000  0.4493290000000  0.5651420000000 1.0
C      1  0.5988060000000  0.5295760000000  0.4366700000000 1.0
C      1  0.4682690000000  0.5546790000000  0.4675250000000 1.0
C      1  0.4960200000000  0.5219060000000  0.4547830000000 1.0
C      1  0.4016550000000  0.5230840000000  0.5064570000000 1.0
C      1  0.4527620000000  0.5101740000000  0.5025440000000 1.0
C      1  0.4355190000000  0.4882730000000  0.5125730000000 1.0
C      1  0.4984430000000  0.3990580000000  0.4515610000000 1.0
C      1  0.4253820000000  0.5345650000000  0.4370550000000 1.0
C      1  0.5225030000000  0.5205470000000  0.5120250000000 1.0
C      1  0.5848920000000  0.4455740000000  0.4560760000000 1.0
C      1  0.4480050000000  0.5924590000000  0.4794890000000 1.0
C      1  0.4673390000000  0.4637860000000  0.4662280000000 1.0
C      1  0.4915400000000  0.5905620000000  0.4516380000000 1.0
C      1  0.4635870000000  0.4199740000000  0.5091790000000 1.0
C      1  0.4954170000000  0.6055210000000  0.5475590000000 1.0
C      1  0.4294740000000  0.5713850000000  0.5502310000000 1.0
C      1  0.5389210000000  0.4815480000000  0.5679850000000 1.0
C      1  0.4937550000000  0.3597750000000  0.5306240000000 1.0
C      1  0.4683530000000  0.4556960000000  0.4196850000000 1.0
C      1  0.4138870000000  0.4327800000000  0.4981160000000 1.0
C      1  0.5378800000000  0.4404240000000  0.5239050000000 1.0
C      1  0.4182310000000  0.4392560000000  0.4720450000000 1.0
C      1  0.4799310000000  0.3975450000000  0.5024580000000 1.0
C      1  0.5304570000000  0.4165460000000  0.5334790000000 1.0
C      1  0.4185240000000  0.5685250000000  0.5238490000000 1.0
C      1  0.5722510000000  0.4050500000000  0.5657720000000 1.0
C      1  0.4720140000000  0.5153230000000  0.5242120000000 1.0
C      1  0.5409010000000  0.4621370000000  0.5897170000000 1.0
C      1  0.5728180000000  0.5331060000000  0.4510410000000 1.0
C      1  0.4241590000000  0.5610560000000  0.4495330000000 1.0
C      1  0.5779460000000  0.5644120000000  0.5099110000000 1.0
C      1  0.4982840000000  0.5870410000000  0.5707210000000 1.0
C      1  0.4480960000000  0.4766840000000  0.5763580000000 1.0
C      1  0.4514450000000  0.5875880000000  0.5573290000000 1.0
C      1  0.5370130000000  0.4739130000000  0.4374020000000 1.0
C      1  0.5620440000000  0.5066950000000  0.4592070000000 1.0
C      1  0.4221480000000  0.5140160000000  0.4601590000000 1.0
C      1  0.4957490000000  0.5671300000000  0.4326950000000 1.0
C      1  0.4949840000000  0.6096060000000  0.4987160000000 1.0
C      1  0.4875950000000  0.3921040000000  0.4755540000000 1.0
C      1  0.5237150000000  0.4591880000000  0.5087440000000 1.0
C      1  0.5478200000000  0.5109350000000  0.5067670000000 1.0
C      1  0.5998030000000  0.4995890000000  0.4323830000000 1.0
C      1  0.5846180000000  0.4202990000000  0.4681970000000 1.0
C      1  0.5874070000000  0.3988060000000  0.5159930000000 1.0
C      1  0.5547750000000  0.5061740000000  0.5724980000000 1.0
C      1  0.5171880000000  0.5732480000000  0.5864750000000 1.0
C      1  0.5593460000000  0.5229410000000  0.5504080000000 1.0
C      1  0.5968400000000  0.4764590000000  0.5009200000000 1.0
C      1  0.5287640000000  0.4623400000000  0.4614610000000 1.0
C      1  0.4726460000000  0.5727180000000  0.5707350000000 1.0
C      1  0.5337380000000  0.5558630000000  0.4588520000000 1.0
C      1  0.4860400000000  0.5392930000000  0.5360410000000 1.0
C      1  0.4906070000000  0.5030910000000  0.5861790000000 1.0
C      1  0.5458750000000  0.4518320000000  0.4205220000000 1.0
C      1  0.4517550000000  0.4605810000000  0.4428580000000 1.0
C      1  0.5089130000000  0.4432770000000  0.4616800000000 1.0
C      1  0.4754610000000  0.5460350000000  0.5625100000000 1.0
C      1  0.4708720000000  0.4378370000000  0.5537080000000 1.0
C      1  0.4882030000000  0.4511060000000  0.4785020000000 1.0
C      1  0.4731760000000  0.4894510000000  0.5687580000000 1.0
C      1  0.4137570000000  0.4346180000000  0.5251980000000 1.0
C      1  0.4767730000000  0.5621170000000  0.4122050000000 1.0
C      1  0.5543040000000  0.4165750000000  0.5818120000000 1.0
C      1  0.4817040000000  0.5618560000000  0.4907360000000 1.0
C      1  0.4531790000000  0.5523680000000  0.4002100000000 1.0
C      1  0.5100220000000  0.6038190000000  0.5227520000000 1.0
C      1  0.5921440000000  0.4685050000000  0.4733970000000 1.0
C      1  0.4500680000000  0.5136360000000  0.4745470000000 1.0
C      1  0.5363260000000  0.4719970000000  0.4861560000000 1.0
C      1  0.5935350000000  0.5001330000000  0.5176110000000 1.0
C      1  0.5180640000000  0.4380140000000  0.4170010000000 1.0
C      1  0.4443550000000  0.5638570000000  0.3769060000000 1.0
C      1  0.4350010000000  0.5074250000000  0.3982240000000 1.0
C      1  0.4930590000000  0.4230630000000  0.6110920000000 1.0
C      1  0.4955330000000  0.4570530000000  0.4082200000000 1.0
C      1  0.4487810000000  0.5725530000000  0.4570970000000 1.0
C      1  0.6058570000000  0.5681890000000  0.4676300000000 1.0
C      1  0.5498810000000  0.4963750000000  0.4841100000000 1.0
C      1  0.5337480000000  0.4350340000000  0.5874730000000 1.0
C      1  0.4101860000000  0.5608530000000  0.4754230000000 1.0
C      1  0.5425710000000  0.5461020000000  0.5429400000000 1.0
END
