TITL C-599895-9959-712 1.4304188685444 125000 -242.674681392658 0 0 42 (C1) n - 1
REM
REM in /home/nfs/bkarasulu/CARBON/AIRSS/Generating-Clusters/TERSOFF/Only-C1/FIRE-HFTN
REM
REM
REM
REM
REM
REM ./C.cell (11c1c37f851c82e70ff6c80c92926a4b)
REM AIRSS Version 0.9.1 bugfix July 2018 build 013d7b7c2542+ Fri, 06 Jul 2018 19:26:36 +0100
REM compiler GCC version 9.2.1 20190827 (Red Hat 9.2.1-1)
REM options -cpp -mtune=generic -march=x86-64 -g -O0 -fpre-include=/usr/include/finclude/math-vector-fortran.h
REM seed 1079628184 1795023875 2079486119 -21177322 -1643312436 -1006829925 149862407 -2033928797 1666444956 -367783639 73291438 -404613825 1456270301 1384819326 719998321 635960092 -107269393 -1565712880 -289709735 -335867081 818138484 1636552708 -1561031771 -1476535568 1438065836 10284262 -1218878415 466378719 500707680 -1093156598 -766710919 1215148049 1155545986
REM
CELL 1.54180   50.00000   50.00000   50.00000   90.00000   90.00000   90.00000
LATT -1
SFAC C  
C      1  0.5120160000000  0.4679050000000  0.4853160000000 1.0
C      1  0.4083140000000  0.6467710000000  0.4937420000000 1.0
C      1  0.6893440000000  0.5028040000000  0.5628110000000 1.0
C      1  0.4756330000000  0.4482660000000  0.4513240000000 1.0
C      1  0.5197290000000  0.4794680000000  0.5096130000000 1.0
C      1  0.4108740000000  0.6208320000000  0.4889240000000 1.0
C      1  0.4237170000000  0.4058760000000  0.4805630000000 1.0
C      1  0.6335840000000  0.5236990000000  0.5440920000000 1.0
C      1  0.4134340000000  0.5949000000000  0.4841060000000 1.0
C      1  0.4656370000000  0.4225810000000  0.4562430000000 1.0
C      1  0.6405510000000  0.4970890000000  0.5474660000000 1.0
C      1  0.4237630000000  0.5567130000000  0.4007420000000 1.0
C      1  0.4541610000000  0.5153600000000  0.5313670000000 1.0
C      1  0.4220880000000  0.5301660000000  0.4474060000000 1.0
C      1  0.4071840000000  0.4714950000000  0.4882520000000 1.0
C      1  0.4399770000000  0.4840800000000  0.4364010000000 1.0
C      1  0.5965830000000  0.4746640000000  0.5343830000000 1.0
C      1  0.7074540000000  0.5092810000000  0.5433140000000 1.0
C      1  0.6929790000000  0.5112350000000  0.5886140000000 1.0
C      1  0.4020410000000  0.4181330000000  0.4934150000000 1.0
C      1  0.5462480000000  0.4777620000000  0.5181650000000 1.0
C      1  0.5714110000000  0.4761450000000  0.5262750000000 1.0
C      1  0.6228630000000  0.4741740000000  0.5428020000000 1.0
C      1  0.4011880000000  0.4461580000000  0.4933010000000 1.0
C      1  0.4321380000000  0.5214610000000  0.5177390000000 1.0
C      1  0.4785450000000  0.5049620000000  0.5332650000000 1.0
C      1  0.3825380000000  0.4033870000000  0.5055600000000 1.0
C      1  0.6273120000000  0.5488030000000  0.5410050000000 1.0
C      1  0.4229020000000  0.5436910000000  0.4232980000000 1.0
C      1  0.4165330000000  0.4956350000000  0.4784770000000 1.0
C      1  0.6668280000000  0.4874250000000  0.5562790000000 1.0
C      1  0.6643680000000  0.4586310000000  0.5567350000000 1.0
C      1  0.6389750000000  0.4509910000000  0.5489500000000 1.0
C      1  0.4193130000000  0.5205690000000  0.4931010000000 1.0
C      1  0.4596800000000  0.4661990000000  0.4368430000000 1.0
C      1  0.5007220000000  0.4927470000000  0.5252940000000 1.0
C      1  0.4979910000000  0.4575050000000  0.4653370000000 1.0
C      1  0.4240140000000  0.5015160000000  0.4509890000000 1.0
C      1  0.4465830000000  0.4075690000000  0.4671250000000 1.0
C      1  0.4057970000000  0.6722820000000  0.4984800000000 1.0
C      1  0.4160150000000  0.5689990000000  0.4792140000000 1.0
C      1  0.4189710000000  0.5420700000000  0.4736740000000 1.0
END
