TITL C-599897-7526-1127 1.11147530533744 125000 -541.57140727315 0 0 89 (C1) n - 1
REM
REM in /home/nfs/bkarasulu/CARBON/AIRSS/Generating-Clusters/TERSOFF/Only-C1/FIRE-HFTN
REM
REM
REM
REM
REM
REM ./C.cell (11c1c37f851c82e70ff6c80c92926a4b)
REM AIRSS Version 0.9.1 bugfix July 2018 build 013d7b7c2542+ Fri, 06 Jul 2018 19:26:36 +0100
REM compiler GCC version 9.2.1 20190827 (Red Hat 9.2.1-1)
REM options -cpp -mtune=generic -march=x86-64 -g -O0 -fpre-include=/usr/include/finclude/math-vector-fortran.h
REM seed 2074525244 1805429516 -1204266452 -683509565 162262158 422303198 1548288593 -1809270140 -2030003791 1776987752 2051649043 -303395603 1635453741 -2034860198 893444021 -174776765 -423123841 -105059316 -825310056 -1824265193 -1801881544 635412405 -1621708295 2134909807 -1588862792 227728256 655218597 -1606638139 1989000376 448735658 660188662 1961649883 -813625246
REM
CELL 1.54180   50.00000   50.00000   50.00000   90.00000   90.00000   90.00000
LATT -1
SFAC C  
C      1  0.4312440000000  0.4696030000000  0.4439670000000 1.0
C      1  0.4101600000000  0.4785120000000  0.5180030000000 1.0
C      1  0.5585040000000  0.5124340000000  0.4471430000000 1.0
C      1  0.5173840000000  0.5085580000000  0.4754170000000 1.0
C      1  0.5521820000000  0.4235560000000  0.4787640000000 1.0
C      1  0.4732230000000  0.4711610000000  0.5012140000000 1.0
C      1  0.4267560000000  0.5708700000000  0.5047420000000 1.0
C      1  0.5692330000000  0.5297400000000  0.4668720000000 1.0
C      1  0.5303900000000  0.4936630000000  0.5469460000000 1.0
C      1  0.5551750000000  0.4479740000000  0.4613630000000 1.0
C      1  0.5486850000000  0.4468780000000  0.5434640000000 1.0
C      1  0.5180960000000  0.4665390000000  0.4988510000000 1.0
C      1  0.4466220000000  0.5001520000000  0.4770440000000 1.0
C      1  0.5090760000000  0.4578710000000  0.5706840000000 1.0
C      1  0.5239530000000  0.4938960000000  0.5006990000000 1.0
C      1  0.5575210000000  0.5774370000000  0.5446500000000 1.0
C      1  0.5452820000000  0.5434190000000  0.5983790000000 1.0
C      1  0.5064180000000  0.5074650000000  0.5536850000000 1.0
C      1  0.4728940000000  0.4213810000000  0.5102520000000 1.0
C      1  0.5312790000000  0.5835090000000  0.5534660000000 1.0
C      1  0.4732060000000  0.4836730000000  0.4205350000000 1.0
C      1  0.5947720000000  0.4613740000000  0.4889520000000 1.0
C      1  0.5203970000000  0.4096780000000  0.5149550000000 1.0
C      1  0.5317240000000  0.4664220000000  0.5557870000000 1.0
C      1  0.4887380000000  0.4602480000000  0.4266260000000 1.0
C      1  0.4850420000000  0.5068680000000  0.4323880000000 1.0
C      1  0.4094400000000  0.5133070000000  0.4481570000000 1.0
C      1  0.4341800000000  0.5498800000000  0.5450380000000 1.0
C      1  0.5369110000000  0.4229320000000  0.5338040000000 1.0
C      1  0.5706480000000  0.5548770000000  0.5567330000000 1.0
C      1  0.4872010000000  0.4021130000000  0.5508400000000 1.0
C      1  0.5389020000000  0.4948240000000  0.4582720000000 1.0
C      1  0.5864310000000  0.4434320000000  0.5093110000000 1.0
C      1  0.4482090000000  0.4817060000000  0.5451280000000 1.0
C      1  0.4790910000000  0.5367490000000  0.5279200000000 1.0
C      1  0.5052030000000  0.5162140000000  0.4148940000000 1.0
C      1  0.5172470000000  0.5407590000000  0.4065180000000 1.0
C      1  0.4616830000000  0.4450790000000  0.5011460000000 1.0
C      1  0.4690290000000  0.5941150000000  0.4843880000000 1.0
C      1  0.4431010000000  0.5731250000000  0.5283000000000 1.0
C      1  0.4653660000000  0.4910260000000  0.5223480000000 1.0
C      1  0.4328130000000  0.5858050000000  0.4520180000000 1.0
C      1  0.4088950000000  0.5906530000000  0.4644400000000 1.0
C      1  0.4383260000000  0.4457070000000  0.4847090000000 1.0
C      1  0.5075420000000  0.4070800000000  0.4673600000000 1.0
C      1  0.5448010000000  0.5382650000000  0.4071060000000 1.0
C      1  0.4601330000000  0.5373250000000  0.5048260000000 1.0
C      1  0.5618400000000  0.5217360000000  0.5171130000000 1.0
C      1  0.5201390000000  0.5368920000000  0.5917760000000 1.0
C      1  0.5743370000000  0.4204770000000  0.4970160000000 1.0
C      1  0.4931680000000  0.5508090000000  0.5504330000000 1.0
C      1  0.5812950000000  0.4601610000000  0.4652210000000 1.0
C      1  0.4541380000000  0.5758820000000  0.4679730000000 1.0
C      1  0.4741430000000  0.5859600000000  0.5111510000000 1.0
C      1  0.5609980000000  0.5811400000000  0.5167180000000 1.0
C      1  0.4227370000000  0.4946610000000  0.5392690000000 1.0
C      1  0.5487510000000  0.5640440000000  0.4978510000000 1.0
C      1  0.4824620000000  0.4481890000000  0.5707960000000 1.0
C      1  0.5052670000000  0.5318500000000  0.5688640000000 1.0
C      1  0.5076390000000  0.5735940000000  0.5422530000000 1.0
C      1  0.5196890000000  0.5624670000000  0.4957330000000 1.0
C      1  0.4164020000000  0.4596240000000  0.4985990000000 1.0
C      1  0.4937050000000  0.4314160000000  0.4642980000000 1.0
C      1  0.5128730000000  0.5385070000000  0.4813740000000 1.0
C      1  0.5184880000000  0.4679900000000  0.4260120000000 1.0
C      1  0.4232770000000  0.5239780000000  0.5448520000000 1.0
C      1  0.4492150000000  0.5110660000000  0.5031660000000 1.0
C      1  0.4604770000000  0.4647780000000  0.5639180000000 1.0
C      1  0.4748720000000  0.4428540000000  0.4462130000000 1.0
C      1  0.4930360000000  0.4070740000000  0.5235970000000 1.0
C      1  0.5749680000000  0.4514810000000  0.5338510000000 1.0
C      1  0.5670200000000  0.5505680000000  0.5842910000000 1.0
C      1  0.4061280000000  0.5841080000000  0.4908450000000 1.0
C      1  0.5016510000000  0.5774000000000  0.5145680000000 1.0
C      1  0.4800380000000  0.4200440000000  0.5696760000000 1.0
C      1  0.5053980000000  0.4502330000000  0.4821910000000 1.0
C      1  0.5622590000000  0.5385480000000  0.4931550000000 1.0
C      1  0.5285480000000  0.4086170000000  0.4867460000000 1.0
C      1  0.5365370000000  0.4665640000000  0.4493250000000 1.0
C      1  0.5409550000000  0.5025260000000  0.5216510000000 1.0
C      1  0.4914280000000  0.5017070000000  0.4605910000000 1.0
C      1  0.4725360000000  0.4867740000000  0.4755390000000 1.0
C      1  0.4282370000000  0.4953010000000  0.4561320000000 1.0
C      1  0.4462820000000  0.4482910000000  0.4559920000000 1.0
C      1  0.5266480000000  0.4950020000000  0.4134270000000 1.0
C      1  0.4861480000000  0.5088210000000  0.5335690000000 1.0
C      1  0.5519430000000  0.5124810000000  0.4188490000000 1.0
C      1  0.5752540000000  0.5327780000000  0.5395740000000 1.0
C      1  0.4459640000000  0.5557590000000  0.4877270000000 1.0
END
