TITL C-599892-9790-213 112.225174019443 125000 -583.675203948062 0 0 96 (C1) n - 1
REM
REM in /home/nfs/bkarasulu/CARBON/AIRSS/Generating-Clusters/TERSOFF/Only-C1/FIRE-HFTN
REM
REM
REM
REM
REM
REM ./C.cell (11c1c37f851c82e70ff6c80c92926a4b)
REM AIRSS Version 0.9.1 bugfix July 2018 build 013d7b7c2542+ Fri, 06 Jul 2018 19:26:36 +0100
REM compiler GCC version 9.2.1 20190827 (Red Hat 9.2.1-1)
REM options -cpp -mtune=generic -march=x86-64 -g -O0 -fpre-include=/usr/include/finclude/math-vector-fortran.h
REM seed 1409637824 79051129 -826379804 -308712857 57522540 248468840 -193986280 754511191 687959515 -1908732130 1718522345 -491754245 1102103115 1021446941 -541623841 903105974 777916530 670859634 1010109185 1457840977 226620656 -486216975 -1245819039 -966174883 1690692670 43761772 -252849183 -494692368 -1300091570 125920599 460721272 569087881 1675609890
REM
CELL 1.54180   50.00000   50.00000   50.00000   90.00000   90.00000   90.00000
LATT -1
SFAC C  
C      1  0.4720010000000  0.4128960000000  0.4816760000000 1.0
C      1  0.4878640000000  0.5917020000000  0.5353330000000 1.0
C      1  0.4937610000000  0.5336440000000  0.5891020000000 1.0
C      1  0.4767320000000  0.4333250000000  0.4620190000000 1.0
C      1  0.4702190000000  0.4819350000000  0.5685730000000 1.0
C      1  0.4906020000000  0.5751780000000  0.5590780000000 1.0
C      1  0.4530310000000  0.5802260000000  0.4496380000000 1.0
C      1  0.4720170000000  0.5183850000000  0.4875780000000 1.0
C      1  0.4390790000000  0.4738110000000  0.4716350000000 1.0
C      1  0.5480870000000  0.4538410000000  0.5381000000000 1.0
C      1  0.5241450000000  0.5322440000000  0.4779220000000 1.0
C      1  0.5113510000000  0.5897480000000  0.5188830000000 1.0
C      1  0.5327200000000  0.4989510000000  0.5107590000000 1.0
C      1  0.4908800000000  0.4820920000000  0.5223130000000 1.0
C      1  0.5796490000000  0.4782440000000  0.4935770000000 1.0
C      1  0.5256390000000  0.5407800000000  0.4131620000000 1.0
C      1  0.5633500000000  0.4553280000000  0.4832840000000 1.0
C      1  0.5875440000000  0.5198330000000  0.5166240000000 1.0
C      1  0.5246840000000  0.5597350000000  0.3935820000000 1.0
C      1  0.4579450000000  0.5069460000000  0.5747780000000 1.0
C      1  0.5819370000000  0.5381900000000  0.5383530000000 1.0
C      1  0.4722120000000  0.5155710000000  0.4591680000000 1.0
C      1  0.5810360000000  0.5269980000000  0.4888020000000 1.0
C      1  0.4612430000000  0.5431760000000  0.4939580000000 1.0
C      1  0.5058710000000  0.4358170000000  0.4420150000000 1.0
C      1  0.5056820000000  0.5389300000000  0.4334580000000 1.0
C      1  0.5414390000000  0.4759040000000  0.5242980000000 1.0
C      1  0.4616670000000  0.5873430000000  0.5228970000000 1.0
C      1  0.5048610000000  0.4918990000000  0.4392990000000 1.0
C      1  0.5184800000000  0.4412050000000  0.5037440000000 1.0
C      1  0.4227930000000  0.4990900000000  0.5167530000000 1.0
C      1  0.4494620000000  0.5010540000000  0.5257440000000 1.0
C      1  0.4655920000000  0.4594130000000  0.4690870000000 1.0
C      1  0.5296860000000  0.5232120000000  0.5275440000000 1.0
C      1  0.5306680000000  0.4533070000000  0.4411040000000 1.0
C      1  0.4781390000000  0.4317330000000  0.3991260000000 1.0
C      1  0.4621640000000  0.4282680000000  0.5343840000000 1.0
C      1  0.5892470000000  0.4817960000000  0.5452700000000 1.0
C      1  0.4730980000000  0.5011550000000  0.5106440000000 1.0
C      1  0.4908330000000  0.4478310000000  0.5936410000000 1.0
C      1  0.5343430000000  0.4317720000000  0.5797500000000 1.0
C      1  0.4962240000000  0.5706640000000  0.4731880000000 1.0
C      1  0.5668460000000  0.5560160000000  0.5529070000000 1.0
C      1  0.5726140000000  0.4883460000000  0.5654340000000 1.0
C      1  0.4111150000000  0.5244620000000  0.5249460000000 1.0
C      1  0.5659410000000  0.4885680000000  0.4489700000000 1.0
C      1  0.5441310000000  0.5741480000000  0.5520730000000 1.0
C      1  0.5322420000000  0.5175230000000  0.5569270000000 1.0
C      1  0.5188670000000  0.5743010000000  0.5669680000000 1.0
C      1  0.4685430000000  0.4548230000000  0.5774130000000 1.0
C      1  0.5261790000000  0.4789890000000  0.4262790000000 1.0
C      1  0.4986110000000  0.4612220000000  0.5049840000000 1.0
C      1  0.5107120000000  0.5500780000000  0.4589240000000 1.0
C      1  0.5715130000000  0.5540260000000  0.4882250000000 1.0
C      1  0.5443730000000  0.4385040000000  0.4959880000000 1.0
C      1  0.5060150000000  0.5683250000000  0.5002790000000 1.0
C      1  0.4738100000000  0.3860410000000  0.4742680000000 1.0
C      1  0.4602710000000  0.5944730000000  0.4953840000000 1.0
C      1  0.4658690000000  0.5569290000000  0.5592800000000 1.0
C      1  0.5244470000000  0.5041150000000  0.4833810000000 1.0
C      1  0.5186730000000  0.4524160000000  0.5910540000000 1.0
C      1  0.4231930000000  0.5439180000000  0.4662230000000 1.0
C      1  0.5498940000000  0.4962320000000  0.4261460000000 1.0
C      1  0.4304110000000  0.4811210000000  0.4237280000000 1.0
C      1  0.4566750000000  0.4470390000000  0.3950490000000 1.0
C      1  0.5301820000000  0.4783110000000  0.5875920000000 1.0
C      1  0.5403850000000  0.5845420000000  0.5250970000000 1.0
C      1  0.4326630000000  0.4229790000000  0.5720390000000 1.0
C      1  0.4654720000000  0.4196260000000  0.5089300000000 1.0
C      1  0.4895930000000  0.5154460000000  0.4363410000000 1.0
C      1  0.4311700000000  0.5643100000000  0.4480310000000 1.0
C      1  0.4334380000000  0.5485800000000  0.4927490000000 1.0
C      1  0.4294380000000  0.4908370000000  0.4499360000000 1.0
C      1  0.4974970000000  0.4261510000000  0.4167260000000 1.0
C      1  0.5889150000000  0.4908340000000  0.5187010000000 1.0
C      1  0.5511800000000  0.5646970000000  0.5053520000000 1.0
C      1  0.5560430000000  0.4604860000000  0.4557860000000 1.0
C      1  0.4397810000000  0.4653590000000  0.4044490000000 1.0
C      1  0.5464740000000  0.5215840000000  0.4146690000000 1.0
C      1  0.4546630000000  0.4353710000000  0.5611360000000 1.0
C      1  0.4259580000000  0.5494440000000  0.5210630000000 1.0
C      1  0.4233220000000  0.4791450000000  0.4957720000000 1.0
C      1  0.5775660000000  0.5015310000000  0.4729670000000 1.0
C      1  0.4714470000000  0.5848880000000  0.4705820000000 1.0
C      1  0.5076280000000  0.4877450000000  0.4676430000000 1.0
C      1  0.4893340000000  0.4710050000000  0.4798530000000 1.0
C      1  0.5468860000000  0.4340610000000  0.5560670000000 1.0
C      1  0.5171630000000  0.5310010000000  0.5765050000000 1.0
C      1  0.4912940000000  0.4834410000000  0.5497860000000 1.0
C      1  0.4764420000000  0.3610480000000  0.4658830000000 1.0
C      1  0.4686170000000  0.5334460000000  0.5759830000000 1.0
C      1  0.4468450000000  0.5645000000000  0.5368480000000 1.0
C      1  0.5456460000000  0.4950500000000  0.5701540000000 1.0
C      1  0.4791500000000  0.3365400000000  0.4574200000000 1.0
C      1  0.5267860000000  0.5460520000000  0.5048290000000 1.0
C      1  0.4201000000000  0.5172000000000  0.4564400000000 1.0
END
