TITL C-599890-3321-1313 108289.632415974 125000 -1235.71701535621 0 0 199 (C1) n - 1
REM
REM in /home/nfs/bkarasulu/CARBON/AIRSS/Generating-Clusters/TERSOFF/Only-C1/FIRE-HFTN
REM
REM
REM
REM
REM
REM ./C.cell (11c1c37f851c82e70ff6c80c92926a4b)
REM AIRSS Version 0.9.1 bugfix July 2018 build 013d7b7c2542+ Fri, 06 Jul 2018 19:26:36 +0100
REM compiler GCC version 9.2.1 20190827 (Red Hat 9.2.1-1)
REM options -cpp -mtune=generic -march=x86-64 -g -O0 -fpre-include=/usr/include/finclude/math-vector-fortran.h
REM seed -786643591 956852019 -1659983787 2014186651 2074736989 570209465 2108327774 -442464901 589025346 -1439940004 -1100717409 404847517 -1056232421 -1885339729 -1079335375 -944126601 1154541302 -1266994402 795792276 1618576551 1619651623 -1487233796 1192537438 -2068139502 -1776196381 -1867868504 -788790741 125446239 -1572925279 -1848593077 -1224538167 1543348452 -1036009569
REM
CELL 1.54180   50.00000   50.00000   50.00000   90.00000   90.00000   90.00000
LATT -1
SFAC C  
C      1  0.4922370000000  0.5408380000000  0.5685720000000 1.0
C      1  0.4037590000000  0.4666650000000  0.6127980000000 1.0
C      1  0.4704320000000  0.4730100000000  0.5466210000000 1.0
C      1  0.5598090000000  0.5991110000000  0.4685970000000 1.0
C      1  0.4595150000000  0.5425390000000  0.4052960000000 1.0
C      1  0.4808840000000  0.5899220000000  0.4233640000000 1.0
C      1  0.5892310000000  0.4313290000000  0.4145030000000 1.0
C      1  0.4641430000000  0.6003680000000  0.5983340000000 1.0
C      1  0.4863770000000  0.5323620000000  0.3938310000000 1.0
C      1  0.6347100000000  0.4837440000000  0.5201960000000 1.0
C      1  0.5161610000000  0.4724410000000  0.5910750000000 1.0
C      1  0.5027460000000  0.6183900000000  0.5333600000000 1.0
C      1  0.3734760000000  0.4914620000000  0.4849850000000 1.0
C      1  0.4702130000000  0.4580130000000  0.6087000000000 1.0
C      1  0.4504910000000  0.4346650000000  0.5703180000000 1.0
C      1  0.5105590000000  0.5521180000000  0.4950800000000 1.0
C      1  0.5095430000000  0.4887520000000  0.5689020000000 1.0
C      1  0.4277780000000  0.4690550000000  0.4080070000000 1.0
C      1  0.5383140000000  0.5618360000000  0.4895280000000 1.0
C      1  0.4433020000000  0.4243710000000  0.4201430000000 1.0
C      1  0.3969000000000  0.4281710000000  0.4855620000000 1.0
C      1  0.4860110000000  0.4320810000000  0.3826100000000 1.0
C      1  0.5500420000000  0.3717680000000  0.5125580000000 1.0
C      1  0.6191030000000  0.5866050000000  0.5494240000000 1.0
C      1  0.3962130000000  0.4258230000000  0.5125000000000 1.0
C      1  0.6257870000000  0.5694340000000  0.5696850000000 1.0
C      1  0.5675180000000  0.4550410000000  0.5485210000000 1.0
C      1  0.4673490000000  0.4081290000000  0.4226920000000 1.0
C      1  0.5033690000000  0.4442740000000  0.4655460000000 1.0
C      1  0.6122970000000  0.4575310000000  0.5646750000000 1.0
C      1  0.4557710000000  0.5089940000000  0.4521090000000 1.0
C      1  0.3851210000000  0.5643550000000  0.4488400000000 1.0
C      1  0.5326920000000  0.5213160000000  0.3858990000000 1.0
C      1  0.5605200000000  0.4694040000000  0.5724190000000 1.0
C      1  0.4518250000000  0.5339780000000  0.4666010000000 1.0
C      1  0.3822330000000  0.4583050000000  0.6248720000000 1.0
C      1  0.4942930000000  0.5535460000000  0.4474450000000 1.0
C      1  0.4347830000000  0.4916410000000  0.4602260000000 1.0
C      1  0.5023510000000  0.5429770000000  0.6347130000000 1.0
C      1  0.5997050000000  0.4758680000000  0.4793820000000 1.0
C      1  0.5185490000000  0.5437100000000  0.5581690000000 1.0
C      1  0.6247530000000  0.4592010000000  0.5128410000000 1.0
C      1  0.4951430000000  0.5645750000000  0.4741440000000 1.0
C      1  0.4602680000000  0.5723900000000  0.5928120000000 1.0
C      1  0.4598820000000  0.5492820000000  0.5152380000000 1.0
C      1  0.5763400000000  0.4304390000000  0.3892250000000 1.0
C      1  0.6132820000000  0.4982910000000  0.4718550000000 1.0
C      1  0.4808560000000  0.6026900000000  0.4512620000000 1.0
C      1  0.5414820000000  0.3489500000000  0.5018810000000 1.0
C      1  0.5180590000000  0.4139850000000  0.4146070000000 1.0
C      1  0.4221290000000  0.4317850000000  0.4404220000000 1.0
C      1  0.5250990000000  0.4938470000000  0.5454730000000 1.0
C      1  0.5356600000000  0.5409950000000  0.4450340000000 1.0
C      1  0.5574540000000  0.5623600000000  0.5136070000000 1.0
C      1  0.4433510000000  0.5753180000000  0.4436960000000 1.0
C      1  0.4613200000000  0.6204600000000  0.5019580000000 1.0
C      1  0.5428690000000  0.5812130000000  0.5352290000000 1.0
C      1  0.4782120000000  0.5317500000000  0.6355200000000 1.0
C      1  0.5039210000000  0.5929040000000  0.4689210000000 1.0
C      1  0.4703630000000  0.3934560000000  0.4471100000000 1.0
C      1  0.4351050000000  0.5572440000000  0.5938240000000 1.0
C      1  0.4469560000000  0.4551860000000  0.5922500000000 1.0
C      1  0.5503930000000  0.4378250000000  0.3872020000000 1.0
C      1  0.5347380000000  0.4293190000000  0.5740610000000 1.0
C      1  0.4263470000000  0.4753540000000  0.5985890000000 1.0
C      1  0.5929720000000  0.5722550000000  0.6126760000000 1.0
C      1  0.5068120000000  0.4201460000000  0.5732080000000 1.0
C      1  0.4936840000000  0.4663840000000  0.4828420000000 1.0
C      1  0.5138110000000  0.5288890000000  0.5106630000000 1.0
C      1  0.5160050000000  0.3818370000000  0.4517550000000 1.0
C      1  0.6034880000000  0.5390520000000  0.4971430000000 1.0
C      1  0.4778860000000  0.6167790000000  0.5808820000000 1.0
C      1  0.4274880000000  0.5037140000000  0.5909640000000 1.0
C      1  0.4192000000000  0.4983190000000  0.4809340000000 1.0
C      1  0.4693510000000  0.4286430000000  0.4946350000000 1.0
C      1  0.5387100000000  0.4564120000000  0.5862750000000 1.0
C      1  0.4966240000000  0.4265860000000  0.3580250000000 1.0
C      1  0.6062870000000  0.4308430000000  0.5609210000000 1.0
C      1  0.4537530000000  0.5260690000000  0.6264710000000 1.0
C      1  0.5810190000000  0.4803820000000  0.4258540000000 1.0
C      1  0.5741480000000  0.4598160000000  0.5205100000000 1.0
C      1  0.5795490000000  0.5776300000000  0.4689230000000 1.0
C      1  0.4742030000000  0.4690860000000  0.4345570000000 1.0
C      1  0.4224780000000  0.4896150000000  0.5413170000000 1.0
C      1  0.5592250000000  0.4272030000000  0.5564650000000 1.0
C      1  0.3780780000000  0.4999130000000  0.4590510000000 1.0
C      1  0.4904710000000  0.4144730000000  0.4056040000000 1.0
C      1  0.5689810000000  0.5758480000000  0.6266510000000 1.0
C      1  0.4806950000000  0.4295490000000  0.5633380000000 1.0
C      1  0.4060850000000  0.5602760000000  0.4657970000000 1.0
C      1  0.5283980000000  0.6056130000000  0.5297920000000 1.0
C      1  0.4129480000000  0.5878050000000  0.5568850000000 1.0
C      1  0.4434340000000  0.6028510000000  0.4879180000000 1.0
C      1  0.4785220000000  0.4957030000000  0.4413850000000 1.0
C      1  0.5254490000000  0.5644890000000  0.4093250000000 1.0
C      1  0.3915480000000  0.5112520000000  0.4378750000000 1.0
C      1  0.3777180000000  0.4975230000000  0.5134390000000 1.0
C      1  0.5223980000000  0.5059800000000  0.4951220000000 1.0
C      1  0.5658990000000  0.6255140000000  0.4627170000000 1.0
C      1  0.5560130000000  0.4080640000000  0.4468800000000 1.0
C      1  0.5503510000000  0.4973780000000  0.5002890000000 1.0
C      1  0.5210500000000  0.4967240000000  0.3962690000000 1.0
C      1  0.4981580000000  0.4931720000000  0.4888370000000 1.0
C      1  0.5601100000000  0.3980420000000  0.5109880000000 1.0
C      1  0.5711190000000  0.6504450000000  0.4572350000000 1.0
C      1  0.5443140000000  0.4175000000000  0.4963320000000 1.0
C      1  0.4684380000000  0.4540320000000  0.3868630000000 1.0
C      1  0.4160300000000  0.4203710000000  0.4662290000000 1.0
C      1  0.3895470000000  0.4581270000000  0.5453260000000 1.0
C      1  0.5804250000000  0.4120690000000  0.4333740000000 1.0
C      1  0.4578270000000  0.5709040000000  0.4188950000000 1.0
C      1  0.5209390000000  0.3551800000000  0.4581210000000 1.0
C      1  0.4560900000000  0.4807570000000  0.5046000000000 1.0
C      1  0.4859760000000  0.4489240000000  0.5421060000000 1.0
C      1  0.4782510000000  0.5646370000000  0.5721750000000 1.0
C      1  0.5302480000000  0.3411960000000  0.4789000000000 1.0
C      1  0.5603320000000  0.4968510000000  0.4358560000000 1.0
C      1  0.5320420000000  0.4386120000000  0.4085410000000 1.0
C      1  0.4414950000000  0.5419620000000  0.5351690000000 1.0
C      1  0.4488490000000  0.5248620000000  0.5553180000000 1.0
C      1  0.5276040000000  0.4696390000000  0.5279730000000 1.0
C      1  0.5555630000000  0.5346980000000  0.5283470000000 1.0
C      1  0.6098860000000  0.5268400000000  0.4711910000000 1.0
C      1  0.3743840000000  0.5261500000000  0.5180040000000 1.0
C      1  0.5691750000000  0.5158890000000  0.4556690000000 1.0
C      1  0.5319500000000  0.3973870000000  0.4341940000000 1.0
C      1  0.5799680000000  0.5608320000000  0.4444270000000 1.0
C      1  0.4941380000000  0.3960500000000  0.4632060000000 1.0
C      1  0.5695850000000  0.5139450000000  0.5152220000000 1.0
C      1  0.4370010000000  0.5205970000000  0.4074830000000 1.0
C      1  0.5849490000000  0.5633830000000  0.4961520000000 1.0
C      1  0.5486920000000  0.5584630000000  0.4269440000000 1.0
C      1  0.6104300000000  0.4843840000000  0.5581140000000 1.0
C      1  0.5982720000000  0.5178590000000  0.5176870000000 1.0
C      1  0.4125480000000  0.4578050000000  0.4300940000000 1.0
C      1  0.5100330000000  0.5305570000000  0.4443340000000 1.0
C      1  0.4854700000000  0.6268630000000  0.5123800000000 1.0
C      1  0.5849540000000  0.4017610000000  0.5251890000000 1.0
C      1  0.4486830000000  0.4107740000000  0.5011800000000 1.0
C      1  0.4431300000000  0.4929750000000  0.3993090000000 1.0
C      1  0.5297530000000  0.4884800000000  0.4255440000000 1.0
C      1  0.4825410000000  0.4927870000000  0.5629670000000 1.0
C      1  0.5237760000000  0.5566710000000  0.6268830000000 1.0
C      1  0.5102020000000  0.4465020000000  0.5260100000000 1.0
C      1  0.4679850000000  0.4571440000000  0.4937730000000 1.0
C      1  0.4747970000000  0.5193070000000  0.5636660000000 1.0
C      1  0.4958510000000  0.4657370000000  0.6092240000000 1.0
C      1  0.5915390000000  0.5345570000000  0.4503340000000 1.0
C      1  0.5151550000000  0.5440480000000  0.3909650000000 1.0
C      1  0.4207040000000  0.5899380000000  0.5030970000000 1.0
C      1  0.4130550000000  0.5205190000000  0.4942940000000 1.0
C      1  0.5502090000000  0.4711820000000  0.5103870000000 1.0
C      1  0.4284630000000  0.5069480000000  0.5628550000000 1.0
C      1  0.5445800000000  0.5697690000000  0.6133470000000 1.0
C      1  0.4307270000000  0.4259440000000  0.5487540000000 1.0
C      1  0.4625560000000  0.5311240000000  0.4934090000000 1.0
C      1  0.4849420000000  0.4463460000000  0.4428530000000 1.0
C      1  0.4962140000000  0.4194000000000  0.4833840000000 1.0
C      1  0.4167910000000  0.5957410000000  0.5311780000000 1.0
C      1  0.4725190000000  0.5044510000000  0.4979880000000 1.0
C      1  0.5486720000000  0.4260870000000  0.4682960000000 1.0
C      1  0.6111770000000  0.5699330000000  0.5935660000000 1.0
C      1  0.5498700000000  0.5344140000000  0.4675190000000 1.0
C      1  0.5313160000000  0.4466820000000  0.4568620000000 1.0
C      1  0.4325730000000  0.5537270000000  0.4576410000000 1.0
C      1  0.4442290000000  0.4455820000000  0.4000310000000 1.0
C      1  0.5058220000000  0.5036780000000  0.4407000000000 1.0
C      1  0.5690270000000  0.5852230000000  0.6523390000000 1.0
C      1  0.4344490000000  0.4016270000000  0.4780120000000 1.0
C      1  0.5422340000000  0.5753350000000  0.5859350000000 1.0
C      1  0.3951910000000  0.4832820000000  0.5330780000000 1.0
C      1  0.4794850000000  0.5817420000000  0.5496020000000 1.0
C      1  0.6465460000000  0.5518200000000  0.5668210000000 1.0
C      1  0.4468380000000  0.4786000000000  0.5308800000000 1.0
C      1  0.4476560000000  0.3841410000000  0.4606440000000 1.0
C      1  0.4422270000000  0.4086530000000  0.5285380000000 1.0
C      1  0.5333570000000  0.5897390000000  0.4752050000000 1.0
C      1  0.6155160000000  0.5005190000000  0.5340250000000 1.0
C      1  0.4112260000000  0.5215230000000  0.4215390000000 1.0
C      1  0.4153170000000  0.5708730000000  0.5781230000000 1.0
C      1  0.5028480000000  0.5720190000000  0.4253280000000 1.0
C      1  0.4354200000000  0.5290750000000  0.6049060000000 1.0
C      1  0.4043340000000  0.5672680000000  0.4932210000000 1.0
C      1  0.4144410000000  0.5472230000000  0.5337110000000 1.0
C      1  0.4876110000000  0.6083320000000  0.5554230000000 1.0
C      1  0.5279740000000  0.5249030000000  0.5373530000000 1.0
C      1  0.5348930000000  0.5674490000000  0.5601450000000 1.0
C      1  0.3982070000000  0.5425060000000  0.5100400000000 1.0
C      1  0.5842830000000  0.4140630000000  0.5510280000000 1.0
C      1  0.5975820000000  0.4597690000000  0.5032950000000 1.0
C      1  0.4530960000000  0.5968110000000  0.4610310000000 1.0
C      1  0.5947520000000  0.4575810000000  0.4230890000000 1.0
C      1  0.4751190000000  0.5712420000000  0.5238450000000 1.0
C      1  0.5321390000000  0.4578790000000  0.4298650000000 1.0
C      1  0.5172190000000  0.4245240000000  0.5062470000000 1.0
C      1  0.4694730000000  0.4836650000000  0.3884760000000 1.0
C      1  0.4914230000000  0.5018590000000  0.3912310000000 1.0
C      1  0.4041400000000  0.4348330000000  0.5386630000000 1.0
C      1  0.6085320000000  0.3933580000000  0.5140960000000 1.0
END
