TITL C-599896-8500-379 0.0058958766946949 125000 -435.662846199442 0 0 72 (C1) n - 1
REM
REM in /home/nfs/bkarasulu/CARBON/AIRSS/Generating-Clusters/TERSOFF/Only-C1/FIRE-HFTN
REM
REM
REM
REM
REM
REM ./C.cell (11c1c37f851c82e70ff6c80c92926a4b)
REM AIRSS Version 0.9.1 bugfix July 2018 build 013d7b7c2542+ Fri, 06 Jul 2018 19:26:36 +0100
REM compiler GCC version 9.2.1 20190827 (Red Hat 9.2.1-1)
REM options -cpp -mtune=generic -march=x86-64 -g -O0 -fpre-include=/usr/include/finclude/math-vector-fortran.h
REM seed 2138320423 1824073847 191235715 -875904852 1430829876 -775056293 -1544358439 -704399447 1114100615 -1040312234 -767524140 -441230710 -428193725 -274928919 -5509494 1845846604 -1103865333 1524020602 293406620 557797104 -1851037388 -1870540692 -491045665 -1262502780 227146604 194944924 -51052897 -1452888133 1435481749 -410034132 1807608916 1114812820 -921723834
REM
CELL 1.54180   50.00000   50.00000   50.00000   90.00000   90.00000   90.00000
LATT -1
SFAC C  
C      1  0.4646300000000  0.4732030000000  0.5125640000000 1.0
C      1  0.4753860000000  0.5485240000000  0.4412160000000 1.0
C      1  0.5439000000000  0.4560030000000  0.4453870000000 1.0
C      1  0.5675090000000  0.5034050000000  0.5162880000000 1.0
C      1  0.4927380000000  0.5017570000000  0.5497390000000 1.0
C      1  0.5218820000000  0.4402870000000  0.5094990000000 1.0
C      1  0.4549960000000  0.5025830000000  0.4342260000000 1.0
C      1  0.5709860000000  0.5491380000000  0.4971040000000 1.0
C      1  0.4614820000000  0.5711750000000  0.5580560000000 1.0
C      1  0.4851320000000  0.5046160000000  0.4853830000000 1.0
C      1  0.5492900000000  0.4354910000000  0.5141120000000 1.0
C      1  0.4840590000000  0.4075610000000  0.4977690000000 1.0
C      1  0.5210930000000  0.4405930000000  0.4482510000000 1.0
C      1  0.4572500000000  0.4761450000000  0.4250830000000 1.0
C      1  0.4750710000000  0.4783600000000  0.4870060000000 1.0
C      1  0.5525050000000  0.5294620000000  0.4584030000000 1.0
C      1  0.5046940000000  0.4260510000000  0.4919480000000 1.0
C      1  0.4589360000000  0.4492230000000  0.5260720000000 1.0
C      1  0.4390840000000  0.5317350000000  0.4682660000000 1.0
C      1  0.5639960000000  0.4567880000000  0.4663050000000 1.0
C      1  0.4240250000000  0.4809910000000  0.4787180000000 1.0
C      1  0.4352020000000  0.5768870000000  0.4485270000000 1.0
C      1  0.4297370000000  0.4530440000000  0.4862050000000 1.0
C      1  0.5622420000000  0.5749880000000  0.4879940000000 1.0
C      1  0.5357450000000  0.5423530000000  0.5307120000000 1.0
C      1  0.4805660000000  0.4568830000000  0.6130040000000 1.0
C      1  0.5054960000000  0.4880610000000  0.5306860000000 1.0
C      1  0.5774990000000  0.4822470000000  0.4671700000000 1.0
C      1  0.4772190000000  0.4424620000000  0.5471220000000 1.0
C      1  0.5777890000000  0.5019010000000  0.4878270000000 1.0
C      1  0.4649780000000  0.4570270000000  0.4421950000000 1.0
C      1  0.5019600000000  0.5105310000000  0.4198720000000 1.0
C      1  0.5269320000000  0.5273980000000  0.4697730000000 1.0
C      1  0.4963860000000  0.5675390000000  0.4479980000000 1.0
C      1  0.5461030000000  0.4806620000000  0.4295160000000 1.0
C      1  0.5415610000000  0.5860430000000  0.4732770000000 1.0
C      1  0.4448030000000  0.5304650000000  0.4961400000000 1.0
C      1  0.5242770000000  0.4953550000000  0.4193420000000 1.0
C      1  0.5672060000000  0.4541760000000  0.5221650000000 1.0
C      1  0.5473560000000  0.4991100000000  0.5765330000000 1.0
C      1  0.5139760000000  0.5472640000000  0.5127570000000 1.0
C      1  0.4726340000000  0.5028540000000  0.5973040000000 1.0
C      1  0.5135380000000  0.4665580000000  0.5168430000000 1.0
C      1  0.5344420000000  0.5430830000000  0.5587080000000 1.0
C      1  0.4494610000000  0.5834450000000  0.5776640000000 1.0
C      1  0.5602630000000  0.5327220000000  0.5194240000000 1.0
C      1  0.4123440000000  0.4959250000000  0.5002270000000 1.0
C      1  0.4724590000000  0.4824170000000  0.6146270000000 1.0
C      1  0.4436810000000  0.4348730000000  0.5053580000000 1.0
C      1  0.5187080000000  0.5497250000000  0.4849950000000 1.0
C      1  0.4914480000000  0.4422430000000  0.5933520000000 1.0
C      1  0.4370110000000  0.5053950000000  0.4566640000000 1.0
C      1  0.4737680000000  0.5577700000000  0.5387910000000 1.0
C      1  0.4794500000000  0.4583240000000  0.4662950000000 1.0
C      1  0.4805190000000  0.5084150000000  0.5724330000000 1.0
C      1  0.5010100000000  0.4399640000000  0.4675260000000 1.0
C      1  0.4240360000000  0.5180920000000  0.5108300000000 1.0
C      1  0.4222800000000  0.5992320000000  0.4449530000000 1.0
C      1  0.4492960000000  0.5533050000000  0.4526790000000 1.0
C      1  0.5743500000000  0.5288930000000  0.4765180000000 1.0
C      1  0.5619270000000  0.4799920000000  0.5332310000000 1.0
C      1  0.5713050000000  0.4919270000000  0.4395920000000 1.0
C      1  0.4570230000000  0.4108050000000  0.4982920000000 1.0
C      1  0.4866120000000  0.5432070000000  0.5188360000000 1.0
C      1  0.5163670000000  0.5727040000000  0.4681060000000 1.0
C      1  0.5251990000000  0.4577140000000  0.5622130000000 1.0
C      1  0.4988500000000  0.4459120000000  0.5662590000000 1.0
C      1  0.5458430000000  0.4779870000000  0.5579310000000 1.0
C      1  0.5091880000000  0.5066360000000  0.4715420000000 1.0
C      1  0.4724870000000  0.5257720000000  0.5012120000000 1.0
C      1  0.5412980000000  0.5251930000000  0.5775050000000 1.0
C      1  0.4775230000000  0.5214300000000  0.4298810000000 1.0
END
