TITL C-599893-4344-509 0.311300465551958 125000 -778.477571490548 0 0 127 (C1) n - 1
REM
REM in /home/nfs/bkarasulu/CARBON/AIRSS/Generating-Clusters/TERSOFF/Only-C1/FIRE-HFTN
REM
REM
REM
REM
REM
REM ./C.cell (11c1c37f851c82e70ff6c80c92926a4b)
REM AIRSS Version 0.9.1 bugfix July 2018 build 013d7b7c2542+ Fri, 06 Jul 2018 19:26:36 +0100
REM compiler GCC version 9.2.1 20190827 (Red Hat 9.2.1-1)
REM options -cpp -mtune=generic -march=x86-64 -g -O0 -fpre-include=/usr/include/finclude/math-vector-fortran.h
REM seed -1746173825 -2026123686 -116074018 -1634764260 298777406 -2081770049 837413195 -92549104 -1801136447 671058358 -2034658714 1188493771 -1003419430 -100866912 1718552306 991104530 1980882365 698928606 602858377 -1915429853 -1703309302 267442551 -539367961 1725927992 82100593 1227233680 -630642074 1093843382 -1187854494 -163905612 372463551 1301996738 464547920
REM
CELL 1.54180   50.00000   50.00000   50.00000   90.00000   90.00000   90.00000
LATT -1
SFAC C  
C      1  0.4676240000000  0.4047670000000  0.4434640000000 1.0
C      1  0.5804010000000  0.4539830000000  0.3811500000000 1.0
C      1  0.4454660000000  0.4967020000000  0.5166320000000 1.0
C      1  0.5849320000000  0.4306280000000  0.4274620000000 1.0
C      1  0.4721540000000  0.4954030000000  0.5267500000000 1.0
C      1  0.5028030000000  0.4314460000000  0.3812890000000 1.0
C      1  0.4538380000000  0.5295200000000  0.4751350000000 1.0
C      1  0.4275300000000  0.4474000000000  0.4958930000000 1.0
C      1  0.4947220000000  0.5013770000000  0.4842710000000 1.0
C      1  0.4537920000000  0.4756070000000  0.5651900000000 1.0
C      1  0.5352450000000  0.5377850000000  0.4220470000000 1.0
C      1  0.4931830000000  0.4575740000000  0.4627190000000 1.0
C      1  0.4974280000000  0.5158390000000  0.6378300000000 1.0
C      1  0.5008800000000  0.5511330000000  0.5727530000000 1.0
C      1  0.5279850000000  0.5932830000000  0.5220370000000 1.0
C      1  0.4409200000000  0.3560330000000  0.4896710000000 1.0
C      1  0.4336630000000  0.5301320000000  0.5465900000000 1.0
C      1  0.5508460000000  0.5559430000000  0.5406720000000 1.0
C      1  0.4366080000000  0.5471440000000  0.4363870000000 1.0
C      1  0.5135140000000  0.4823620000000  0.4686860000000 1.0
C      1  0.5318550000000  0.5273740000000  0.5056200000000 1.0
C      1  0.4795570000000  0.5310570000000  0.6203210000000 1.0
C      1  0.4543280000000  0.4565650000000  0.4234940000000 1.0
C      1  0.4804090000000  0.4495140000000  0.3849900000000 1.0
C      1  0.4912890000000  0.5755760000000  0.5666520000000 1.0
C      1  0.5521090000000  0.5970670000000  0.5681200000000 1.0
C      1  0.5333350000000  0.4408780000000  0.4811990000000 1.0
C      1  0.5569740000000  0.5967900000000  0.5942930000000 1.0
C      1  0.4651770000000  0.4362800000000  0.4073340000000 1.0
C      1  0.5238480000000  0.5278530000000  0.3681020000000 1.0
C      1  0.4780150000000  0.5767280000000  0.4526520000000 1.0
C      1  0.5130370000000  0.5552440000000  0.4229010000000 1.0
C      1  0.4704790000000  0.4968190000000  0.4410960000000 1.0
C      1  0.5623890000000  0.4635160000000  0.3620140000000 1.0
C      1  0.4705410000000  0.4657200000000  0.4460960000000 1.0
C      1  0.5448870000000  0.5137040000000  0.3599770000000 1.0
C      1  0.5106360000000  0.4570090000000  0.5393850000000 1.0
C      1  0.4940060000000  0.4263730000000  0.5047760000000 1.0
C      1  0.4995010000000  0.5275080000000  0.3824240000000 1.0
C      1  0.4689400000000  0.4332480000000  0.5465140000000 1.0
C      1  0.4595970000000  0.5666900000000  0.4320090000000 1.0
C      1  0.5615110000000  0.4500840000000  0.6116350000000 1.0
C      1  0.4798920000000  0.5155430000000  0.5962460000000 1.0
C      1  0.5504100000000  0.4369710000000  0.3232220000000 1.0
C      1  0.5729210000000  0.4248910000000  0.4504390000000 1.0
C      1  0.5413150000000  0.5175030000000  0.4405820000000 1.0
C      1  0.5218650000000  0.4971680000000  0.4438730000000 1.0
C      1  0.5575310000000  0.5276260000000  0.4615420000000 1.0
C      1  0.5780570000000  0.5719830000000  0.4579620000000 1.0
C      1  0.5612730000000  0.4922870000000  0.5850740000000 1.0
C      1  0.4768210000000  0.5579080000000  0.6278070000000 1.0
C      1  0.4803670000000  0.5166740000000  0.5445160000000 1.0
C      1  0.5592260000000  0.4851620000000  0.4898960000000 1.0
C      1  0.5877600000000  0.4417090000000  0.4035030000000 1.0
C      1  0.4951320000000  0.5214720000000  0.5702630000000 1.0
C      1  0.4670140000000  0.5504480000000  0.4873690000000 1.0
C      1  0.5556830000000  0.5871160000000  0.6190630000000 1.0
C      1  0.5875800000000  0.4456450000000  0.6013050000000 1.0
C      1  0.5329500000000  0.4879580000000  0.6258480000000 1.0
C      1  0.5024980000000  0.6032480000000  0.5291670000000 1.0
C      1  0.6002630000000  0.4631650000000  0.5849330000000 1.0
C      1  0.4845030000000  0.5028440000000  0.3790990000000 1.0
C      1  0.4846540000000  0.4869140000000  0.6028970000000 1.0
C      1  0.4458870000000  0.3793720000000  0.4781580000000 1.0
C      1  0.4758390000000  0.5409810000000  0.5316000000000 1.0
C      1  0.5176440000000  0.5005490000000  0.5666860000000 1.0
C      1  0.4933730000000  0.4344780000000  0.5324150000000 1.0
C      1  0.4514980000000  0.4045250000000  0.4670160000000 1.0
C      1  0.4266920000000  0.5149580000000  0.5237630000000 1.0
C      1  0.5471240000000  0.4301450000000  0.6246250000000 1.0
C      1  0.5421710000000  0.5098110000000  0.6425700000000 1.0
C      1  0.5044730000000  0.4356950000000  0.4798930000000 1.0
C      1  0.5434100000000  0.5512410000000  0.5133750000000 1.0
C      1  0.5545280000000  0.4276380000000  0.4693920000000 1.0
C      1  0.4916670000000  0.4858270000000  0.5093800000000 1.0
C      1  0.5060880000000  0.5260450000000  0.4958210000000 1.0
C      1  0.4715760000000  0.4777780000000  0.3843180000000 1.0
C      1  0.5449150000000  0.5841600000000  0.5445700000000 1.0
C      1  0.5559020000000  0.5565450000000  0.4630760000000 1.0
C      1  0.4311270000000  0.4507100000000  0.5241230000000 1.0
C      1  0.4978210000000  0.5005580000000  0.4288460000000 1.0
C      1  0.4508670000000  0.5539240000000  0.5393800000000 1.0
C      1  0.5057180000000  0.4735120000000  0.5626490000000 1.0
C      1  0.4477280000000  0.5440680000000  0.3923840000000 1.0
C      1  0.4049190000000  0.4904940000000  0.4722460000000 1.0
C      1  0.5506930000000  0.4764290000000  0.6072240000000 1.0
C      1  0.5232650000000  0.4349820000000  0.3629990000000 1.0
C      1  0.4965910000000  0.5699320000000  0.6420660000000 1.0
C      1  0.5338010000000  0.4700510000000  0.4902980000000 1.0
C      1  0.5300050000000  0.5699430000000  0.4700620000000 1.0
C      1  0.4480650000000  0.4529450000000  0.5469550000000 1.0
C      1  0.4556950000000  0.5909420000000  0.5032530000000 1.0
C      1  0.4372700000000  0.5280630000000  0.4139090000000 1.0
C      1  0.5161880000000  0.4720460000000  0.5157060000000 1.0
C      1  0.4232270000000  0.5049060000000  0.5925040000000 1.0
C      1  0.4101380000000  0.5078810000000  0.6148400000000 1.0
C      1  0.5445800000000  0.5092610000000  0.5696640000000 1.0
C      1  0.5584950000000  0.4909420000000  0.3581410000000 1.0
C      1  0.5217190000000  0.5293510000000  0.6475240000000 1.0
C      1  0.4119920000000  0.4667380000000  0.4822740000000 1.0
C      1  0.4488960000000  0.5031550000000  0.4203780000000 1.0
C      1  0.5682210000000  0.5082220000000  0.4789770000000 1.0
C      1  0.5037080000000  0.4891010000000  0.6248310000000 1.0
C      1  0.5221330000000  0.5578420000000  0.6463320000000 1.0
C      1  0.5006580000000  0.4100240000000  0.4010590000000 1.0
C      1  0.4572900000000  0.5822880000000  0.5314200000000 1.0
C      1  0.4702450000000  0.5077910000000  0.4684130000000 1.0
C      1  0.4383040000000  0.5020490000000  0.5693220000000 1.0
C      1  0.4819110000000  0.5911960000000  0.5447260000000 1.0
C      1  0.5878260000000  0.4860240000000  0.5772640000000 1.0
C      1  0.4093830000000  0.5159430000000  0.4650390000000 1.0
C      1  0.5528140000000  0.5341190000000  0.5584590000000 1.0
C      1  0.4662270000000  0.5777800000000  0.4795780000000 1.0
C      1  0.4302780000000  0.5342860000000  0.4607640000000 1.0
C      1  0.4406070000000  0.4271860000000  0.4805430000000 1.0
C      1  0.5446050000000  0.5725150000000  0.6384200000000 1.0
C      1  0.4684720000000  0.5604180000000  0.4042310000000 1.0
C      1  0.5452980000000  0.4449080000000  0.3488730000000 1.0
C      1  0.4360520000000  0.3331200000000  0.5011140000000 1.0
C      1  0.5323930000000  0.4123080000000  0.6366250000000 1.0
C      1  0.4498900000000  0.4792450000000  0.4048150000000 1.0
C      1  0.5073090000000  0.5695020000000  0.4488750000000 1.0
C      1  0.5320570000000  0.5750150000000  0.4992950000000 1.0
C      1  0.4775610000000  0.4128410000000  0.4184240000000 1.0
C      1  0.4945370000000  0.5497940000000  0.4012920000000 1.0
C      1  0.4862120000000  0.5433400000000  0.5059390000000 1.0
C      1  0.4807530000000  0.4726670000000  0.5784500000000 1.0
END
