TITL C-599890-3321-409 275.754050768667 125000 -708.706166074938 0 0 117 (C1) n - 1
REM
REM in /home/nfs/bkarasulu/CARBON/AIRSS/Generating-Clusters/TERSOFF/Only-C1/FIRE-HFTN
REM
REM
REM
REM
REM
REM ./C.cell (11c1c37f851c82e70ff6c80c92926a4b)
REM AIRSS Version 0.9.1 bugfix July 2018 build 013d7b7c2542+ Fri, 06 Jul 2018 19:26:36 +0100
REM compiler GCC version 9.2.1 20190827 (Red Hat 9.2.1-1)
REM options -cpp -mtune=generic -march=x86-64 -g -O0 -fpre-include=/usr/include/finclude/math-vector-fortran.h
REM seed -1478605729 1993819416 -1977155766 -482354390 1707115833 243427342 -1730368454 -767101976 1219638662 862506452 816010403 435670276 -1198622996 -814433684 -339869041 -377167150 1507911822 -1533180486 -2135312455 -1502077995 -473926097 34116128 941671257 116320319 1699613182 -1661164007 -1613092842 -2080282730 1983602075 -224645974 1300208629 -2138558848 607776033
REM
CELL 1.54180   50.00000   50.00000   50.00000   90.00000   90.00000   90.00000
LATT -1
SFAC C  
C      1  0.4701680000000  0.5373550000000  0.5233890000000 1.0
C      1  0.5319520000000  0.5566300000000  0.5742690000000 1.0
C      1  0.4717180000000  0.4181710000000  0.5574080000000 1.0
C      1  0.4490600000000  0.5625700000000  0.4431090000000 1.0
C      1  0.4997540000000  0.4105300000000  0.4344210000000 1.0
C      1  0.4632930000000  0.5057480000000  0.4850690000000 1.0
C      1  0.5217900000000  0.5654670000000  0.5296640000000 1.0
C      1  0.5988480000000  0.5337490000000  0.5055910000000 1.0
C      1  0.4886430000000  0.5429670000000  0.4726850000000 1.0
C      1  0.4669690000000  0.4119570000000  0.4664270000000 1.0
C      1  0.4040050000000  0.5109200000000  0.5054000000000 1.0
C      1  0.5474460000000  0.5125430000000  0.4799200000000 1.0
C      1  0.5731580000000  0.5361700000000  0.5763760000000 1.0
C      1  0.5022750000000  0.4954810000000  0.6187490000000 1.0
C      1  0.5063510000000  0.5111370000000  0.5586360000000 1.0
C      1  0.4280440000000  0.5785140000000  0.5359060000000 1.0
C      1  0.4165780000000  0.5537890000000  0.5318710000000 1.0
C      1  0.5147730000000  0.4286220000000  0.4169460000000 1.0
C      1  0.5371080000000  0.4877990000000  0.6114210000000 1.0
C      1  0.5910400000000  0.5124010000000  0.4882880000000 1.0
C      1  0.5779140000000  0.4659620000000  0.5516340000000 1.0
C      1  0.5633570000000  0.4688840000000  0.4894900000000 1.0
C      1  0.5061090000000  0.4820840000000  0.5539380000000 1.0
C      1  0.5365970000000  0.5190350000000  0.3963430000000 1.0
C      1  0.4335100000000  0.4514130000000  0.5223500000000 1.0
C      1  0.4737700000000  0.5795720000000  0.4483400000000 1.0
C      1  0.5118910000000  0.5310440000000  0.4632270000000 1.0
C      1  0.4188930000000  0.5255710000000  0.5254970000000 1.0
C      1  0.4798940000000  0.4123360000000  0.5304730000000 1.0
C      1  0.4658910000000  0.5215520000000  0.5760730000000 1.0
C      1  0.4730880000000  0.4208130000000  0.4392690000000 1.0
C      1  0.4225190000000  0.5630460000000  0.4547000000000 1.0
C      1  0.4080140000000  0.5151970000000  0.4764570000000 1.0
C      1  0.5292720000000  0.5781710000000  0.4417840000000 1.0
C      1  0.4276230000000  0.4707880000000  0.4439960000000 1.0
C      1  0.5916670000000  0.5145270000000  0.5736520000000 1.0
C      1  0.5475440000000  0.5562680000000  0.4320230000000 1.0
C      1  0.4980690000000  0.4591400000000  0.5134850000000 1.0
C      1  0.5408730000000  0.4164810000000  0.4553680000000 1.0
C      1  0.5514850000000  0.6359330000000  0.4924530000000 1.0
C      1  0.6094680000000  0.3949570000000  0.4673350000000 1.0
C      1  0.5335130000000  0.5448730000000  0.4085800000000 1.0
C      1  0.5629290000000  0.4641390000000  0.5743940000000 1.0
C      1  0.4550270000000  0.4929900000000  0.5798030000000 1.0
C      1  0.5452450000000  0.6187860000000  0.4738350000000 1.0
C      1  0.5589920000000  0.4406290000000  0.4929920000000 1.0
C      1  0.5343480000000  0.5219910000000  0.6060120000000 1.0
C      1  0.5090190000000  0.4730220000000  0.3965120000000 1.0
C      1  0.5092570000000  0.5152010000000  0.4404880000000 1.0
C      1  0.4738980000000  0.3975240000000  0.5755500000000 1.0
C      1  0.5868220000000  0.4076040000000  0.4698490000000 1.0
C      1  0.4734500000000  0.5112060000000  0.5107420000000 1.0
C      1  0.4654690000000  0.5277130000000  0.4682440000000 1.0
C      1  0.5254390000000  0.4554100000000  0.5223550000000 1.0
C      1  0.5042280000000  0.5225330000000  0.6087380000000 1.0
C      1  0.4143970000000  0.4461760000000  0.4491840000000 1.0
C      1  0.4999470000000  0.4887440000000  0.4461540000000 1.0
C      1  0.5205800000000  0.5571760000000  0.5022970000000 1.0
C      1  0.4704490000000  0.4454090000000  0.4237540000000 1.0
C      1  0.4089920000000  0.5424430000000  0.4667440000000 1.0
C      1  0.5711250000000  0.5487720000000  0.5486220000000 1.0
C      1  0.5627380000000  0.4212980000000  0.4725820000000 1.0
C      1  0.4546900000000  0.5338140000000  0.4425950000000 1.0
C      1  0.4515450000000  0.4802000000000  0.4837730000000 1.0
C      1  0.5444960000000  0.5603390000000  0.5472170000000 1.0
C      1  0.4670550000000  0.5170610000000  0.4236780000000 1.0
C      1  0.4184800000000  0.4233180000000  0.4626330000000 1.0
C      1  0.5672230000000  0.5411910000000  0.4473250000000 1.0
C      1  0.5891410000000  0.4845260000000  0.5325540000000 1.0
C      1  0.5046520000000  0.5526840000000  0.4122750000000 1.0
C      1  0.3989430000000  0.4763170000000  0.5414380000000 1.0
C      1  0.5141450000000  0.4761290000000  0.4678040000000 1.0
C      1  0.4773320000000  0.5864140000000  0.4781340000000 1.0
C      1  0.3906630000000  0.4894350000000  0.5188160000000 1.0
C      1  0.4919150000000  0.4056410000000  0.4806240000000 1.0
C      1  0.4416960000000  0.4597800000000  0.4981750000000 1.0
C      1  0.5396210000000  0.4700470000000  0.5900650000000 1.0
C      1  0.5144960000000  0.4654550000000  0.5770000000000 1.0
C      1  0.5298810000000  0.5335540000000  0.4857220000000 1.0
C      1  0.4977510000000  0.4063970000000  0.5087750000000 1.0
C      1  0.5443340000000  0.5021980000000  0.5305300000000 1.0
C      1  0.4977700000000  0.5669900000000  0.4864750000000 1.0
C      1  0.4397700000000  0.4102390000000  0.4725870000000 1.0
C      1  0.5381040000000  0.6001460000000  0.4564190000000 1.0
C      1  0.4616280000000  0.4430430000000  0.5676360000000 1.0
C      1  0.5254420000000  0.4943820000000  0.3928490000000 1.0
C      1  0.4450050000000  0.4668530000000  0.5674520000000 1.0
C      1  0.4548210000000  0.4681950000000  0.4325100000000 1.0
C      1  0.4885210000000  0.5358060000000  0.5884170000000 1.0
C      1  0.4240890000000  0.4639510000000  0.5464710000000 1.0
C      1  0.5139820000000  0.4056600000000  0.4604490000000 1.0
C      1  0.4524840000000  0.5923630000000  0.5274030000000 1.0
C      1  0.5027300000000  0.5572920000000  0.5734520000000 1.0
C      1  0.5970280000000  0.5089910000000  0.5458470000000 1.0
C      1  0.5007070000000  0.5742830000000  0.4324420000000 1.0
C      1  0.4584050000000  0.5837600000000  0.5002750000000 1.0
C      1  0.4836640000000  0.4736330000000  0.5345330000000 1.0
C      1  0.4969370000000  0.4502800000000  0.4089310000000 1.0
C      1  0.4397300000000  0.5100460000000  0.5399910000000 1.0
C      1  0.4932800000000  0.5276430000000  0.4189390000000 1.0
C      1  0.4581780000000  0.5552690000000  0.5053670000000 1.0
C      1  0.4975240000000  0.4618500000000  0.4857170000000 1.0
C      1  0.5310050000000  0.4794480000000  0.5360360000000 1.0
C      1  0.4760270000000  0.5895240000000  0.5437900000000 1.0
C      1  0.5843660000000  0.4859290000000  0.5026290000000 1.0
C      1  0.5407770000000  0.4285180000000  0.4288750000000 1.0
C      1  0.5256940000000  0.4093450000000  0.5146080000000 1.0
C      1  0.5719460000000  0.5214050000000  0.4680580000000 1.0
C      1  0.4620300000000  0.4920270000000  0.5295790000000 1.0
C      1  0.5400250000000  0.4336750000000  0.5131090000000 1.0
C      1  0.5411440000000  0.4845420000000  0.4776730000000 1.0
C      1  0.4579280000000  0.5316470000000  0.5498900000000 1.0
C      1  0.4979690000000  0.5716730000000  0.5477120000000 1.0
C      1  0.5484570000000  0.5395870000000  0.5901940000000 1.0
C      1  0.4724550000000  0.4900850000000  0.4341520000000 1.0
C      1  0.5904690000000  0.5343340000000  0.5322580000000 1.0
C      1  0.4155610000000  0.4941550000000  0.4572790000000 1.0
END
