TITL C-599894-471-442 -0.00369951513934566 125000 -374.795719868757 0 0 62 (C1) n - 1
REM
REM in /home/nfs/bkarasulu/CARBON/AIRSS/Generating-Clusters/TERSOFF/Only-C1/FIRE-HFTN
REM
REM
REM
REM
REM
REM ./C.cell (11c1c37f851c82e70ff6c80c92926a4b)
REM AIRSS Version 0.9.1 bugfix July 2018 build 013d7b7c2542+ Fri, 06 Jul 2018 19:26:36 +0100
REM compiler GCC version 9.2.1 20190827 (Red Hat 9.2.1-1)
REM options -cpp -mtune=generic -march=x86-64 -g -O0 -fpre-include=/usr/include/finclude/math-vector-fortran.h
REM seed -1709178277 1345698209 356645547 1203517844 -1927301583 1254368009 2132241531 924936240 1148277571 -114213637 539041643 1718888190 294223670 -1691666324 -745470349 1373366439 611086403 -490828693 -1809703592 935027935 -1857599852 952461176 1998628623 426394567 -1979832028 14315464 -1279114938 -187003375 1169746016 -86997722 -1102318132 -1740172217 978377834
REM
CELL 1.54180   50.00000   50.00000   50.00000   90.00000   90.00000   90.00000
LATT -1
SFAC C  
C      1  0.4335010000000  0.5339490000000  0.5550790000000 1.0
C      1  0.4722840000000  0.5604670000000  0.4825820000000 1.0
C      1  0.4349680000000  0.4636980000000  0.5322730000000 1.0
C      1  0.5261740000000  0.4570500000000  0.4440580000000 1.0
C      1  0.5294040000000  0.4713440000000  0.4933870000000 1.0
C      1  0.4812130000000  0.4438060000000  0.4646460000000 1.0
C      1  0.4476850000000  0.4942220000000  0.4714440000000 1.0
C      1  0.5383850000000  0.4602440000000  0.4692970000000 1.0
C      1  0.5587740000000  0.5459560000000  0.4623390000000 1.0
C      1  0.5283040000000  0.4991240000000  0.4977010000000 1.0
C      1  0.5947910000000  0.5189680000000  0.6022790000000 1.0
C      1  0.4786490000000  0.5656740000000  0.4541470000000 1.0
C      1  0.4638530000000  0.5275470000000  0.5180850000000 1.0
C      1  0.5505020000000  0.5586010000000  0.5354840000000 1.0
C      1  0.4414190000000  0.5218890000000  0.4743010000000 1.0
C      1  0.5069180000000  0.4574640000000  0.5048710000000 1.0
C      1  0.4385400000000  0.4358730000000  0.5301680000000 1.0
C      1  0.4977110000000  0.4533130000000  0.4425040000000 1.0
C      1  0.5237890000000  0.5527650000000  0.5461110000000 1.0
C      1  0.5847980000000  0.4948270000000  0.6070770000000 1.0
C      1  0.4539740000000  0.4338050000000  0.4624430000000 1.0
C      1  0.4912780000000  0.5211580000000  0.5194970000000 1.0
C      1  0.4347300000000  0.5525320000000  0.4355240000000 1.0
C      1  0.5408040000000  0.4662530000000  0.4219820000000 1.0
C      1  0.5566180000000  0.4861180000000  0.4100110000000 1.0
C      1  0.4516190000000  0.4223230000000  0.5508890000000 1.0
C      1  0.5886340000000  0.5595120000000  0.5709280000000 1.0
C      1  0.4433470000000  0.4191650000000  0.4839820000000 1.0
C      1  0.5513320000000  0.4571620000000  0.5930420000000 1.0
C      1  0.4563760000000  0.5386580000000  0.4924730000000 1.0
C      1  0.4265420000000  0.5346380000000  0.4539410000000 1.0
C      1  0.4840210000000  0.4692790000000  0.4232580000000 1.0
C      1  0.5637300000000  0.5293920000000  0.4421120000000 1.0
C      1  0.5511920000000  0.5440000000000  0.5102140000000 1.0
C      1  0.4584670000000  0.5652600000000  0.4349200000000 1.0
C      1  0.5661730000000  0.4829050000000  0.3846070000000 1.0
C      1  0.5071610000000  0.5695380000000  0.4532100000000 1.0
C      1  0.5155390000000  0.5272280000000  0.5348160000000 1.0
C      1  0.5386270000000  0.5180690000000  0.5166370000000 1.0
C      1  0.5624080000000  0.5093780000000  0.4246650000000 1.0
C      1  0.5193930000000  0.5684560000000  0.4798290000000 1.0
C      1  0.4835710000000  0.4592590000000  0.4889370000000 1.0
C      1  0.5185890000000  0.4430090000000  0.5546670000000 1.0
C      1  0.4618790000000  0.4086230000000  0.5705420000000 1.0
C      1  0.5721480000000  0.5660360000000  0.5510900000000 1.0
C      1  0.5443950000000  0.5552420000000  0.4847010000000 1.0
C      1  0.5013810000000  0.5092030000000  0.4949640000000 1.0
C      1  0.4941540000000  0.5822260000000  0.5226840000000 1.0
C      1  0.5051810000000  0.5737880000000  0.5457660000000 1.0
C      1  0.4641400000000  0.4800120000000  0.4898970000000 1.0
C      1  0.4613390000000  0.4839050000000  0.4255470000000 1.0
C      1  0.5693260000000  0.4735100000000  0.6037100000000 1.0
C      1  0.4954990000000  0.5711700000000  0.4970590000000 1.0
C      1  0.5088080000000  0.4462010000000  0.5301980000000 1.0
C      1  0.5965590000000  0.5422080000000  0.5895020000000 1.0
C      1  0.4049250000000  0.4073330000000  0.5103170000000 1.0
C      1  0.4449290000000  0.5172870000000  0.5366200000000 1.0
C      1  0.5335650000000  0.4468120000000  0.5762520000000 1.0
C      1  0.4361370000000  0.4522510000000  0.4498440000000 1.0
C      1  0.4380390000000  0.4899350000000  0.5360220000000 1.0
C      1  0.4430070000000  0.4798010000000  0.4468130000000 1.0
C      1  0.4288030000000  0.4205820000000  0.5080570000000 1.0
END
