TITL C-599893-4344-1069 20524.4398524193 125000 -689.017322437782 0 0 114 (C1) n - 1
REM
REM in /home/nfs/bkarasulu/CARBON/AIRSS/Generating-Clusters/TERSOFF/Only-C1/FIRE-HFTN
REM
REM
REM
REM
REM
REM ./C.cell (11c1c37f851c82e70ff6c80c92926a4b)
REM AIRSS Version 0.9.1 bugfix July 2018 build 013d7b7c2542+ Fri, 06 Jul 2018 19:26:36 +0100
REM compiler GCC version 9.2.1 20190827 (Red Hat 9.2.1-1)
REM options -cpp -mtune=generic -march=x86-64 -g -O0 -fpre-include=/usr/include/finclude/math-vector-fortran.h
REM seed -1635633327 -685913133 343260758 244447226 1785566698 -126583222 -1535636357 -1891659803 -1480185127 -1792236614 2117224193 -1376526908 -999112851 -104935348 -43085577 1023014124 1582678770 -1552266759 -596991223 -50476285 -1154468118 2025604346 395983033 -1768393524 -380281242 433223969 151125563 -1858874577 1246012186 864845714 -948099705 -1871889225 -2128466684
REM
CELL 1.54180   50.00000   50.00000   50.00000   90.00000   90.00000   90.00000
LATT -1
SFAC C  
C      1  0.5530900000000  0.4258240000000  0.5263680000000 1.0
C      1  0.4546340000000  0.6001610000000  0.4384220000000 1.0
C      1  0.4783100000000  0.4684550000000  0.5227510000000 1.0
C      1  0.5912170000000  0.5038670000000  0.4810170000000 1.0
C      1  0.4800820000000  0.5703250000000  0.6015970000000 1.0
C      1  0.5636590000000  0.5526440000000  0.4371390000000 1.0
C      1  0.5576290000000  0.4606090000000  0.5652690000000 1.0
C      1  0.5353960000000  0.5495790000000  0.5783290000000 1.0
C      1  0.4625400000000  0.5420060000000  0.5348050000000 1.0
C      1  0.5433640000000  0.5721200000000  0.4473600000000 1.0
C      1  0.4481110000000  0.4972380000000  0.5818820000000 1.0
C      1  0.5841600000000  0.5003600000000  0.5607410000000 1.0
C      1  0.5165820000000  0.4441660000000  0.4953720000000 1.0
C      1  0.5748790000000  0.4230860000000  0.5084990000000 1.0
C      1  0.4770110000000  0.4238950000000  0.4378100000000 1.0
C      1  0.5549040000000  0.4747590000000  0.4812040000000 1.0
C      1  0.5673920000000  0.5182220000000  0.5748270000000 1.0
C      1  0.5827370000000  0.5466090000000  0.4592960000000 1.0
C      1  0.4919280000000  0.5245530000000  0.5879730000000 1.0
C      1  0.5485990000000  0.4666240000000  0.4551210000000 1.0
C      1  0.4566830000000  0.5779560000000  0.4239450000000 1.0
C      1  0.5227600000000  0.4958500000000  0.5324050000000 1.0
C      1  0.5054650000000  0.5471290000000  0.4646980000000 1.0
C      1  0.5861500000000  0.5055980000000  0.4341010000000 1.0
C      1  0.4839220000000  0.5911400000000  0.6175250000000 1.0
C      1  0.5210360000000  0.5251220000000  0.5880070000000 1.0
C      1  0.5039590000000  0.3530910000000  0.4911390000000 1.0
C      1  0.6018700000000  0.4533100000000  0.4818690000000 1.0
C      1  0.5181180000000  0.5585230000000  0.4418120000000 1.0
C      1  0.5755150000000  0.3992870000000  0.4471720000000 1.0
C      1  0.4324260000000  0.5632340000000  0.5641110000000 1.0
C      1  0.4716040000000  0.6251300000000  0.5089920000000 1.0
C      1  0.5134850000000  0.5503230000000  0.5334870000000 1.0
C      1  0.5098260000000  0.4720550000000  0.3991230000000 1.0
C      1  0.5501230000000  0.4899770000000  0.5297440000000 1.0
C      1  0.5083730000000  0.3869250000000  0.4515560000000 1.0
C      1  0.5213950000000  0.5569330000000  0.5077600000000 1.0
C      1  0.5236510000000  0.4318940000000  0.4337120000000 1.0
C      1  0.5430540000000  0.5049550000000  0.5872740000000 1.0
C      1  0.4595340000000  0.3611170000000  0.5514880000000 1.0
C      1  0.5435570000000  0.5209070000000  0.4862750000000 1.0
C      1  0.5051830000000  0.4739140000000  0.5301600000000 1.0
C      1  0.4998940000000  0.5155070000000  0.4218210000000 1.0
C      1  0.5084660000000  0.4533040000000  0.4201970000000 1.0
C      1  0.5752570000000  0.5630500000000  0.4836480000000 1.0
C      1  0.5234940000000  0.5406930000000  0.4855650000000 1.0
C      1  0.5051810000000  0.5727470000000  0.5481090000000 1.0
C      1  0.5765000000000  0.5585290000000  0.5121670000000 1.0
C      1  0.5283060000000  0.4281330000000  0.5131910000000 1.0
C      1  0.3992510000000  0.5348100000000  0.5445900000000 1.0
C      1  0.4775680000000  0.3494560000000  0.5358720000000 1.0
C      1  0.4766000000000  0.5098540000000  0.4785030000000 1.0
C      1  0.5584970000000  0.5057330000000  0.4265970000000 1.0
C      1  0.4404690000000  0.4599000000000  0.4586880000000 1.0
C      1  0.4220650000000  0.4252070000000  0.5429250000000 1.0
C      1  0.4134460000000  0.4952470000000  0.5183080000000 1.0
C      1  0.4630090000000  0.5153500000000  0.5254510000000 1.0
C      1  0.4812510000000  0.5325260000000  0.4617200000000 1.0
C      1  0.4773100000000  0.5492510000000  0.5834520000000 1.0
C      1  0.5437320000000  0.4759660000000  0.5857430000000 1.0
C      1  0.5686690000000  0.4230210000000  0.4591080000000 1.0
C      1  0.5696300000000  0.4801270000000  0.5474390000000 1.0
C      1  0.4234650000000  0.4441520000000  0.5226930000000 1.0
C      1  0.4791040000000  0.4545300000000  0.4338080000000 1.0
C      1  0.4289980000000  0.5073170000000  0.4454720000000 1.0
C      1  0.4062780000000  0.5421840000000  0.4736280000000 1.0
C      1  0.4081530000000  0.4676380000000  0.5210100000000 1.0
C      1  0.5210650000000  0.5376880000000  0.4206440000000 1.0
C      1  0.5474760000000  0.4391900000000  0.4480300000000 1.0
C      1  0.4422040000000  0.3800020000000  0.5584330000000 1.0
C      1  0.4131220000000  0.5594170000000  0.5428830000000 1.0
C      1  0.5144060000000  0.5223210000000  0.5381370000000 1.0
C      1  0.5702750000000  0.5540010000000  0.5385450000000 1.0
C      1  0.4089390000000  0.5612820000000  0.4925540000000 1.0
C      1  0.5551060000000  0.4352380000000  0.5531700000000 1.0
C      1  0.6062510000000  0.4799000000000  0.4839730000000 1.0
C      1  0.4530560000000  0.5039070000000  0.4303360000000 1.0
C      1  0.5633700000000  0.5008160000000  0.4874690000000 1.0
C      1  0.4931430000000  0.3467770000000  0.5145410000000 1.0
C      1  0.5115940000000  0.4965280000000  0.4447850000000 1.0
C      1  0.4113690000000  0.5093260000000  0.5435390000000 1.0
C      1  0.5604700000000  0.5444880000000  0.5639640000000 1.0
C      1  0.4288610000000  0.4027530000000  0.5553480000000 1.0
C      1  0.4698050000000  0.4642560000000  0.4631910000000 1.0
C      1  0.4641730000000  0.4893160000000  0.5362860000000 1.0
C      1  0.4880070000000  0.6119110000000  0.6327400000000 1.0
C      1  0.4625780000000  0.6247760000000  0.4840010000000 1.0
C      1  0.4560260000000  0.5110190000000  0.4979740000000 1.0
C      1  0.5089530000000  0.3670990000000  0.4691620000000 1.0
C      1  0.4671340000000  0.4822270000000  0.4171280000000 1.0
C      1  0.4567550000000  0.6161080000000  0.4595700000000 1.0
C      1  0.4667590000000  0.4547390000000  0.5002940000000 1.0
C      1  0.5393340000000  0.4882880000000  0.4394300000000 1.0
C      1  0.4415030000000  0.4416340000000  0.5011030000000 1.0
C      1  0.4516630000000  0.5609520000000  0.5158490000000 1.0
C      1  0.5939010000000  0.5201490000000  0.4578790000000 1.0
C      1  0.4630020000000  0.5523360000000  0.4203810000000 1.0
C      1  0.4829950000000  0.6159500000000  0.5311940000000 1.0
C      1  0.5548530000000  0.5812310000000  0.4722800000000 1.0
C      1  0.4950960000000  0.5973510000000  0.5458790000000 1.0
C      1  0.5832400000000  0.4318180000000  0.4827420000000 1.0
C      1  0.4919970000000  0.4853820000000  0.4681950000000 1.0
C      1  0.4907570000000  0.4930380000000  0.4026470000000 1.0
C      1  0.4261180000000  0.5002570000000  0.5664150000000 1.0
C      1  0.4738360000000  0.5025300000000  0.5888130000000 1.0
C      1  0.4175990000000  0.5164340000000  0.4701010000000 1.0
C      1  0.5496560000000  0.5322190000000  0.4212870000000 1.0
C      1  0.4584090000000  0.5509480000000  0.5620470000000 1.0
C      1  0.4727110000000  0.5275750000000  0.4329900000000 1.0
C      1  0.4278860000000  0.5055010000000  0.4946640000000 1.0
C      1  0.4234020000000  0.5655260000000  0.5163820000000 1.0
C      1  0.5035110000000  0.4119030000000  0.4406180000000 1.0
C      1  0.5102290000000  0.4680460000000  0.4849220000000 1.0
C      1  0.4288970000000  0.4421430000000  0.4756410000000 1.0
END
