TITL C-599897-7526-513 28945.9941948672 125000 -974.40108635023 0 0 162 (C1) n - 1
REM
REM in /home/nfs/bkarasulu/CARBON/AIRSS/Generating-Clusters/TERSOFF/Only-C1/FIRE-HFTN
REM
REM
REM
REM
REM
REM ./C.cell (11c1c37f851c82e70ff6c80c92926a4b)
REM AIRSS Version 0.9.1 bugfix July 2018 build 013d7b7c2542+ Fri, 06 Jul 2018 19:26:36 +0100
REM compiler GCC version 9.2.1 20190827 (Red Hat 9.2.1-1)
REM options -cpp -mtune=generic -march=x86-64 -g -O0 -fpre-include=/usr/include/finclude/math-vector-fortran.h
REM seed -1851392438 163123253 525023253 1861513540 28583402 -565212099 1354703475 1561739626 -898548220 -2054988179 1520322634 433531203 -1528030930 -755294854 1123390219 -1881654222 1890191380 412797714 232457978 678979102 151839779 1212470075 -627531538 1297638318 -481114536 -2113089029 -426269173 -1051304459 -916489791 -177156339 -1718981626 2052967435 -1173375034
REM
CELL 1.54180   50.00000   50.00000   50.00000   90.00000   90.00000   90.00000
LATT -1
SFAC C  
C      1  0.5252260000000  0.5262680000000  0.5349920000000 1.0
C      1  0.5312130000000  0.4725800000000  0.3949300000000 1.0
C      1  0.5591080000000  0.4610010000000  0.5095980000000 1.0
C      1  0.4231060000000  0.4523740000000  0.4757890000000 1.0
C      1  0.5420860000000  0.5551320000000  0.4118350000000 1.0
C      1  0.5791220000000  0.4701330000000  0.6326030000000 1.0
C      1  0.5722810000000  0.4478460000000  0.6170010000000 1.0
C      1  0.4748430000000  0.4872810000000  0.5552660000000 1.0
C      1  0.4831680000000  0.4336800000000  0.5540360000000 1.0
C      1  0.3980290000000  0.5607390000000  0.4302070000000 1.0
C      1  0.5135540000000  0.4207280000000  0.4089060000000 1.0
C      1  0.5245040000000  0.5598070000000  0.4592430000000 1.0
C      1  0.5027110000000  0.4660690000000  0.3881310000000 1.0
C      1  0.5564580000000  0.5530840000000  0.5786600000000 1.0
C      1  0.4495600000000  0.5128330000000  0.4386300000000 1.0
C      1  0.4493530000000  0.4862240000000  0.4239000000000 1.0
C      1  0.5490190000000  0.5012670000000  0.4337870000000 1.0
C      1  0.4905120000000  0.5911750000000  0.4760490000000 1.0
C      1  0.4790730000000  0.5140430000000  0.6077300000000 1.0
C      1  0.5659350000000  0.5841860000000  0.4688410000000 1.0
C      1  0.4770990000000  0.4660230000000  0.5136070000000 1.0
C      1  0.5381310000000  0.4593400000000  0.5615290000000 1.0
C      1  0.4705580000000  0.4311910000000  0.4839430000000 1.0
C      1  0.3947500000000  0.5042950000000  0.4751790000000 1.0
C      1  0.5272650000000  0.5189750000000  0.5998760000000 1.0
C      1  0.5134850000000  0.5536280000000  0.4872640000000 1.0
C      1  0.4756510000000  0.4447430000000  0.4218570000000 1.0
C      1  0.6276310000000  0.4573350000000  0.6454780000000 1.0
C      1  0.5367600000000  0.5002950000000  0.5336280000000 1.0
C      1  0.5087500000000  0.5611140000000  0.5859130000000 1.0
C      1  0.5446090000000  0.5076110000000  0.6184930000000 1.0
C      1  0.4894730000000  0.6082000000000  0.5262280000000 1.0
C      1  0.4957410000000  0.5061890000000  0.4292630000000 1.0
C      1  0.4946500000000  0.4409800000000  0.4012370000000 1.0
C      1  0.5817160000000  0.4358310000000  0.4628050000000 1.0
C      1  0.5183020000000  0.4103800000000  0.4352230000000 1.0
C      1  0.4108600000000  0.5287200000000  0.5219500000000 1.0
C      1  0.5900700000000  0.4749600000000  0.4300680000000 1.0
C      1  0.5428750000000  0.4458440000000  0.4910200000000 1.0
C      1  0.5944780000000  0.4171010000000  0.5876160000000 1.0
C      1  0.4958680000000  0.4022080000000  0.4501040000000 1.0
C      1  0.4714640000000  0.5371520000000  0.5010700000000 1.0
C      1  0.3962470000000  0.5001020000000  0.5820990000000 1.0
C      1  0.3981740000000  0.5150200000000  0.4998340000000 1.0
C      1  0.5169280000000  0.6037780000000  0.4711770000000 1.0
C      1  0.4678900000000  0.4969500000000  0.6259030000000 1.0
C      1  0.5012810000000  0.5524170000000  0.4416190000000 1.0
C      1  0.4326590000000  0.5171040000000  0.3958570000000 1.0
C      1  0.5929030000000  0.4511300000000  0.4440980000000 1.0
C      1  0.5500240000000  0.5290680000000  0.4831820000000 1.0
C      1  0.4601240000000  0.5905740000000  0.4305830000000 1.0
C      1  0.4733960000000  0.4134870000000  0.4618470000000 1.0
C      1  0.4397370000000  0.5788410000000  0.4472140000000 1.0
C      1  0.4252780000000  0.5573360000000  0.4330320000000 1.0
C      1  0.4125460000000  0.5579830000000  0.5181840000000 1.0
C      1  0.5172340000000  0.6113410000000  0.5204490000000 1.0
C      1  0.4794890000000  0.5137270000000  0.4824090000000 1.0
C      1  0.5727790000000  0.4341510000000  0.5925320000000 1.0
C      1  0.6035170000000  0.5172020000000  0.4191220000000 1.0
C      1  0.5489720000000  0.4901990000000  0.4616170000000 1.0
C      1  0.5626980000000  0.4926030000000  0.6307990000000 1.0
C      1  0.6194970000000  0.4120240000000  0.5955600000000 1.0
C      1  0.5832810000000  0.4541180000000  0.5223900000000 1.0
C      1  0.4345560000000  0.4621010000000  0.4312090000000 1.0
C      1  0.4824240000000  0.4893860000000  0.3840170000000 1.0
C      1  0.5244110000000  0.6190470000000  0.4938900000000 1.0
C      1  0.6016210000000  0.4701460000000  0.5339260000000 1.0
C      1  0.4354400000000  0.5838760000000  0.4768540000000 1.0
C      1  0.4703200000000  0.5413740000000  0.6051080000000 1.0
C      1  0.5377160000000  0.5865900000000  0.4553820000000 1.0
C      1  0.4852540000000  0.4626950000000  0.4418340000000 1.0
C      1  0.5897340000000  0.5449150000000  0.5451350000000 1.0
C      1  0.5982690000000  0.5009820000000  0.4429490000000 1.0
C      1  0.4484650000000  0.4359830000000  0.4284840000000 1.0
C      1  0.4432030000000  0.5401420000000  0.4923500000000 1.0
C      1  0.4682790000000  0.4700110000000  0.4620110000000 1.0
C      1  0.4238560000000  0.4286640000000  0.5347350000000 1.0
C      1  0.4793640000000  0.5879310000000  0.4116240000000 1.0
C      1  0.4647140000000  0.5653070000000  0.5631480000000 1.0
C      1  0.5635140000000  0.4559770000000  0.3619370000000 1.0
C      1  0.5805780000000  0.4796200000000  0.4015820000000 1.0
C      1  0.3940360000000  0.5294670000000  0.5762010000000 1.0
C      1  0.4940470000000  0.5596190000000  0.5610680000000 1.0
C      1  0.4911070000000  0.5606190000000  0.6082910000000 1.0
C      1  0.6074340000000  0.4955320000000  0.5401390000000 1.0
C      1  0.5024180000000  0.5063610000000  0.5924900000000 1.0
C      1  0.4416510000000  0.4366050000000  0.4903170000000 1.0
C      1  0.5196950000000  0.5562720000000  0.3925080000000 1.0
C      1  0.4847660000000  0.5615010000000  0.4847710000000 1.0
C      1  0.4406670000000  0.4521280000000  0.5395450000000 1.0
C      1  0.4289280000000  0.4176910000000  0.5085530000000 1.0
C      1  0.5648380000000  0.5035170000000  0.4837670000000 1.0
C      1  0.4018150000000  0.4757820000000  0.5256850000000 1.0
C      1  0.5319840000000  0.4819030000000  0.4213770000000 1.0
C      1  0.5067310000000  0.5060690000000  0.4842230000000 1.0
C      1  0.4996040000000  0.5766790000000  0.3974940000000 1.0
C      1  0.5406960000000  0.4158540000000  0.4510010000000 1.0
C      1  0.5125870000000  0.4458440000000  0.6557060000000 1.0
C      1  0.3941100000000  0.4992090000000  0.4244240000000 1.0
C      1  0.4777320000000  0.5294640000000  0.5287490000000 1.0
C      1  0.6379140000000  0.4201200000000  0.6131900000000 1.0
C      1  0.4322910000000  0.5166890000000  0.5379640000000 1.0
C      1  0.5234430000000  0.5278640000000  0.4935430000000 1.0
C      1  0.3992680000000  0.4895940000000  0.4510860000000 1.0
C      1  0.4493430000000  0.6006500000000  0.4966550000000 1.0
C      1  0.5543010000000  0.4900070000000  0.5107350000000 1.0
C      1  0.4904520000000  0.4490960000000  0.4951450000000 1.0
C      1  0.4541130000000  0.3782980000000  0.5079130000000 1.0
C      1  0.4668030000000  0.5229850000000  0.4580880000000 1.0
C      1  0.4544530000000  0.4951520000000  0.3960870000000 1.0
C      1  0.4055010000000  0.5069290000000  0.4006220000000 1.0
C      1  0.5457850000000  0.5819360000000  0.4253090000000 1.0
C      1  0.5378220000000  0.5999740000000  0.5358740000000 1.0
C      1  0.4514480000000  0.5492710000000  0.5845230000000 1.0
C      1  0.4264380000000  0.5371910000000  0.5855040000000 1.0
C      1  0.4334260000000  0.3925910000000  0.4944820000000 1.0
C      1  0.5192190000000  0.4829760000000  0.4687590000000 1.0
C      1  0.3978980000000  0.4337900000000  0.5464190000000 1.0
C      1  0.5862640000000  0.5664140000000  0.4728860000000 1.0
C      1  0.5010450000000  0.5399940000000  0.5412360000000 1.0
C      1  0.4773640000000  0.5504220000000  0.4568690000000 1.0
C      1  0.5579300000000  0.5835350000000  0.5421610000000 1.0
C      1  0.4915080000000  0.4333420000000  0.5807810000000 1.0
C      1  0.5965370000000  0.5411190000000  0.4728890000000 1.0
C      1  0.5014430000000  0.5313400000000  0.4236550000000 1.0
C      1  0.4705860000000  0.4586750000000  0.5430990000000 1.0
C      1  0.6039190000000  0.4696880000000  0.6456660000000 1.0
C      1  0.4478590000000  0.4124930000000  0.4470920000000 1.0
C      1  0.4372840000000  0.5335360000000  0.4214280000000 1.0
C      1  0.3894990000000  0.4614610000000  0.5472860000000 1.0
C      1  0.3849270000000  0.4774930000000  0.5701130000000 1.0
C      1  0.4507190000000  0.5811210000000  0.5432310000000 1.0
C      1  0.5473380000000  0.5407830000000  0.4570490000000 1.0
C      1  0.4721930000000  0.3882570000000  0.5255920000000 1.0
C      1  0.4955840000000  0.5129240000000  0.3731800000000 1.0
C      1  0.4233380000000  0.5744070000000  0.5384510000000 1.0
C      1  0.5078280000000  0.4811560000000  0.4392960000000 1.0
C      1  0.5049470000000  0.4398730000000  0.6315070000000 1.0
C      1  0.4296490000000  0.4735410000000  0.5220660000000 1.0
C      1  0.5007840000000  0.4913840000000  0.5680300000000 1.0
C      1  0.5933160000000  0.5054310000000  0.3960430000000 1.0
C      1  0.5252000000000  0.4829580000000  0.5540310000000 1.0
C      1  0.5496480000000  0.5308400000000  0.4298020000000 1.0
C      1  0.6411120000000  0.4379850000000  0.6328530000000 1.0
C      1  0.6026590000000  0.5217320000000  0.5421990000000 1.0
C      1  0.4630230000000  0.5980850000000  0.5226370000000 1.0
C      1  0.4817510000000  0.4091370000000  0.5396520000000 1.0
C      1  0.4160290000000  0.4661860000000  0.4525330000000 1.0
C      1  0.5541380000000  0.4416940000000  0.5732180000000 1.0
C      1  0.4524840000000  0.4806370000000  0.5062330000000 1.0
C      1  0.4973410000000  0.4351650000000  0.6065590000000 1.0
C      1  0.5694350000000  0.5614540000000  0.5552310000000 1.0
C      1  0.5910790000000  0.5125850000000  0.4689290000000 1.0
C      1  0.5584590000000  0.4690840000000  0.3854660000000 1.0
C      1  0.5166650000000  0.4569250000000  0.4850320000000 1.0
C      1  0.5553000000000  0.4300760000000  0.4703460000000 1.0
C      1  0.4605090000000  0.5107580000000  0.5426710000000 1.0
C      1  0.4249840000000  0.5616030000000  0.4920770000000 1.0
C      1  0.5115680000000  0.5343860000000  0.3763180000000 1.0
C      1  0.4231470000000  0.5018890000000  0.5930060000000 1.0
C      1  0.4313510000000  0.3956100000000  0.4649710000000 1.0
C      1  0.5320780000000  0.5451210000000  0.5892550000000 1.0
END
