TITL C-599892-9790-418 0.0606837428911459 125000 -839.758756645303 0 0 140 (C1) n - 1
REM
REM in /home/nfs/bkarasulu/CARBON/AIRSS/Generating-Clusters/TERSOFF/Only-C1/FIRE-HFTN
REM
REM
REM
REM
REM
REM ./C.cell (11c1c37f851c82e70ff6c80c92926a4b)
REM AIRSS Version 0.9.1 bugfix July 2018 build 013d7b7c2542+ Fri, 06 Jul 2018 19:26:36 +0100
REM compiler GCC version 9.2.1 20190827 (Red Hat 9.2.1-1)
REM options -cpp -mtune=generic -march=x86-64 -g -O0 -fpre-include=/usr/include/finclude/math-vector-fortran.h
REM seed -2122934359 -509866126 513659029 1868296644 407730603 -979680550 -1697845465 1127431067 641087081 912681886 770374032 -1040877838 -769390490 -1337871065 -604815434 1803438083 -202334726 -888218349 1628246655 1794254103 -800066489 925910193 -1972927406 922641159 948382549 1316943518 273649133 1822396380 1186145858 -658405687 -1764381479 49430653 517001924
REM
CELL 1.54180   50.00000   50.00000   50.00000   90.00000   90.00000   90.00000
LATT -1
SFAC C  
C      1  0.5211750000000  0.4450380000000  0.5091140000000 1.0
C      1  0.4440970000000  0.5140020000000  0.3920810000000 1.0
C      1  0.4474400000000  0.4712860000000  0.4117650000000 1.0
C      1  0.5490380000000  0.4802880000000  0.5283440000000 1.0
C      1  0.5015650000000  0.4576580000000  0.4675420000000 1.0
C      1  0.4505600000000  0.5022180000000  0.5770210000000 1.0
C      1  0.4319290000000  0.4632170000000  0.5144030000000 1.0
C      1  0.4430710000000  0.4004380000000  0.4437990000000 1.0
C      1  0.5402010000000  0.4657240000000  0.5063190000000 1.0
C      1  0.5469460000000  0.4724470000000  0.5557200000000 1.0
C      1  0.5181000000000  0.4161600000000  0.5781440000000 1.0
C      1  0.5539370000000  0.5405370000000  0.4983510000000 1.0
C      1  0.4000840000000  0.5815680000000  0.4610980000000 1.0
C      1  0.5317530000000  0.5445500000000  0.5185310000000 1.0
C      1  0.5135440000000  0.4993420000000  0.4839620000000 1.0
C      1  0.5660080000000  0.5877310000000  0.4820700000000 1.0
C      1  0.4834220000000  0.4911660000000  0.6114980000000 1.0
C      1  0.4880150000000  0.4037700000000  0.4348060000000 1.0
C      1  0.5304980000000  0.5452600000000  0.4399370000000 1.0
C      1  0.4483150000000  0.5239990000000  0.6206090000000 1.0
C      1  0.4880900000000  0.4952900000000  0.3992290000000 1.0
C      1  0.5093780000000  0.5017870000000  0.6140870000000 1.0
C      1  0.5086670000000  0.5270080000000  0.4437120000000 1.0
C      1  0.4747680000000  0.4693210000000  0.4027020000000 1.0
C      1  0.5842980000000  0.4958770000000  0.4808770000000 1.0
C      1  0.3959800000000  0.3869460000000  0.4666140000000 1.0
C      1  0.4244310000000  0.5800260000000  0.4702130000000 1.0
C      1  0.4494830000000  0.5910970000000  0.5277150000000 1.0
C      1  0.5643970000000  0.4207050000000  0.4912760000000 1.0
C      1  0.4034940000000  0.5676450000000  0.5315370000000 1.0
C      1  0.4431630000000  0.5125840000000  0.5261450000000 1.0
C      1  0.5426790000000  0.4277860000000  0.5743560000000 1.0
C      1  0.3989190000000  0.4720780000000  0.3661900000000 1.0
C      1  0.4308860000000  0.4896560000000  0.3976640000000 1.0
C      1  0.5915940000000  0.5365720000000  0.5579080000000 1.0
C      1  0.4522460000000  0.5765300000000  0.4797750000000 1.0
C      1  0.4783460000000  0.5556700000000  0.5186480000000 1.0
C      1  0.4755960000000  0.4206940000000  0.4144170000000 1.0
C      1  0.4892070000000  0.4446050000000  0.4073680000000 1.0
C      1  0.5851130000000  0.5020980000000  0.4522130000000 1.0
C      1  0.5231490000000  0.5936590000000  0.4594430000000 1.0
C      1  0.4387560000000  0.4222160000000  0.5628540000000 1.0
C      1  0.4485670000000  0.5170970000000  0.5534830000000 1.0
C      1  0.5552970000000  0.5610950000000  0.4786310000000 1.0
C      1  0.5773470000000  0.4407500000000  0.5366820000000 1.0
C      1  0.4501450000000  0.4753560000000  0.5689780000000 1.0
C      1  0.5588310000000  0.4468000000000  0.5597500000000 1.0
C      1  0.5904500000000  0.4674640000000  0.4938720000000 1.0
C      1  0.5153660000000  0.5068410000000  0.5523980000000 1.0
C      1  0.5079640000000  0.3943990000000  0.4851050000000 1.0
C      1  0.4529410000000  0.5021310000000  0.4824230000000 1.0
C      1  0.5692600000000  0.5155550000000  0.4981680000000 1.0
C      1  0.5113330000000  0.5919410000000  0.5466130000000 1.0
C      1  0.5623800000000  0.5036300000000  0.5227810000000 1.0
C      1  0.3954530000000  0.5150440000000  0.5333600000000 1.0
C      1  0.4956880000000  0.5985100000000  0.4673110000000 1.0
C      1  0.4196760000000  0.4403200000000  0.5543370000000 1.0
C      1  0.4421870000000  0.4904890000000  0.5070840000000 1.0
C      1  0.5782870000000  0.5283880000000  0.4437870000000 1.0
C      1  0.6021040000000  0.4887440000000  0.5381620000000 1.0
C      1  0.5300170000000  0.4969610000000  0.5974520000000 1.0
C      1  0.5655160000000  0.4847960000000  0.4087880000000 1.0
C      1  0.4697520000000  0.5675850000000  0.5676570000000 1.0
C      1  0.5653000000000  0.5945880000000  0.5099000000000 1.0
C      1  0.6477130000000  0.5522590000000  0.4813620000000 1.0
C      1  0.4425290000000  0.4638170000000  0.4383240000000 1.0
C      1  0.6368240000000  0.5408450000000  0.5021140000000 1.0
C      1  0.5144290000000  0.4952310000000  0.4100360000000 1.0
C      1  0.4837720000000  0.4633670000000  0.6058170000000 1.0
C      1  0.4838400000000  0.4696360000000  0.5337750000000 1.0
C      1  0.5326920000000  0.5849920000000  0.5616830000000 1.0
C      1  0.4600260000000  0.4141300000000  0.5012830000000 1.0
C      1  0.5494480000000  0.6051540000000  0.4647320000000 1.0
C      1  0.5486250000000  0.4680570000000  0.4785970000000 1.0
C      1  0.4860740000000  0.4500360000000  0.5811680000000 1.0
C      1  0.4901680000000  0.4222190000000  0.5773970000000 1.0
C      1  0.4336510000000  0.5366130000000  0.5128250000000 1.0
C      1  0.4562720000000  0.5492900000000  0.4958240000000 1.0
C      1  0.5312720000000  0.4908490000000  0.5702450000000 1.0
C      1  0.4911430000000  0.5342080000000  0.4656800000000 1.0
C      1  0.5825880000000  0.4844610000000  0.4299460000000 1.0
C      1  0.5386810000000  0.6049970000000  0.5128220000000 1.0
C      1  0.4987940000000  0.4938630000000  0.5329840000000 1.0
C      1  0.4135150000000  0.4627270000000  0.5365740000000 1.0
C      1  0.4638060000000  0.4122810000000  0.5692880000000 1.0
C      1  0.4513290000000  0.4408140000000  0.5110630000000 1.0
C      1  0.4897090000000  0.6038500000000  0.4963070000000 1.0
C      1  0.4663410000000  0.5711350000000  0.5403010000000 1.0
C      1  0.5372940000000  0.4470430000000  0.4312850000000 1.0
C      1  0.5025040000000  0.5039160000000  0.5073970000000 1.0
C      1  0.4733520000000  0.4628100000000  0.5594090000000 1.0
C      1  0.4607660000000  0.5069490000000  0.6032560000000 1.0
C      1  0.3651580000000  0.4976970000000  0.4248090000000 1.0
C      1  0.4708940000000  0.5197740000000  0.4003060000000 1.0
C      1  0.4813880000000  0.5646230000000  0.5914140000000 1.0
C      1  0.6050620000000  0.5178560000000  0.5398010000000 1.0
C      1  0.5567160000000  0.5393420000000  0.4318730000000 1.0
C      1  0.5782930000000  0.5788920000000  0.5298760000000 1.0
C      1  0.5829410000000  0.4412220000000  0.4817340000000 1.0
C      1  0.5404840000000  0.4904830000000  0.4002300000000 1.0
C      1  0.5958010000000  0.5311080000000  0.5848140000000 1.0
C      1  0.6236010000000  0.5292910000000  0.5219530000000 1.0
C      1  0.4072630000000  0.5405170000000  0.5241340000000 1.0
C      1  0.5663770000000  0.4182820000000  0.5202080000000 1.0
C      1  0.4761850000000  0.4593460000000  0.4791980000000 1.0
C      1  0.4693400000000  0.3967800000000  0.4561610000000 1.0
C      1  0.5420930000000  0.4076960000000  0.5309850000000 1.0
C      1  0.4539760000000  0.4591220000000  0.4619310000000 1.0
C      1  0.5930860000000  0.4646140000000  0.5240380000000 1.0
C      1  0.4661780000000  0.5271760000000  0.4773760000000 1.0
C      1  0.5169360000000  0.4444510000000  0.4138870000000 1.0
C      1  0.5295720000000  0.5639350000000  0.4629160000000 1.0
C      1  0.5202350000000  0.4237460000000  0.5275660000000 1.0
C      1  0.5269050000000  0.5309760000000  0.5430230000000 1.0
C      1  0.5168680000000  0.4379260000000  0.4810160000000 1.0
C      1  0.4475550000000  0.4142590000000  0.4185720000000 1.0
C      1  0.4740720000000  0.5451060000000  0.4141800000000 1.0
C      1  0.4724140000000  0.5659810000000  0.4319190000000 1.0
C      1  0.5112820000000  0.5924920000000  0.5160990000000 1.0
C      1  0.5067170000000  0.5538590000000  0.4799410000000 1.0
C      1  0.5505200000000  0.5589500000000  0.5967030000000 1.0
C      1  0.5108280000000  0.4838030000000  0.4605840000000 1.0
C      1  0.4610880000000  0.5975260000000  0.5016890000000 1.0
C      1  0.5076700000000  0.5610690000000  0.5092030000000 1.0
C      1  0.4732090000000  0.5815700000000  0.4564550000000 1.0
C      1  0.5124360000000  0.4999320000000  0.4377320000000 1.0
C      1  0.5280860000000  0.5575200000000  0.6114490000000 1.0
C      1  0.3835210000000  0.4910310000000  0.4075590000000 1.0
C      1  0.5542940000000  0.5686180000000  0.5705050000000 1.0
C      1  0.4754250000000  0.4569560000000  0.5085120000000 1.0
C      1  0.4785320000000  0.3994510000000  0.4831520000000 1.0
C      1  0.4042920000000  0.4841170000000  0.3901580000000 1.0
C      1  0.5486720000000  0.4578640000000  0.4532430000000 1.0
C      1  0.3984540000000  0.4879360000000  0.5389930000000 1.0
C      1  0.3738440000000  0.3816450000000  0.4793240000000 1.0
C      1  0.4215170000000  0.5880930000000  0.5321190000000 1.0
C      1  0.5306800000000  0.4127110000000  0.4796890000000 1.0
C      1  0.5017140000000  0.5606950000000  0.6082260000000 1.0
C      1  0.5757870000000  0.5609660000000  0.5522280000000 1.0
C      1  0.4186850000000  0.3927170000000  0.4542440000000 1.0
END
