TITL C-599890-3321-1436 1102.14572544345 125000 -1203.29991627875 0 0 196 (C1) n - 1
REM
REM in /home/nfs/bkarasulu/CARBON/AIRSS/Generating-Clusters/TERSOFF/Only-C1/FIRE-HFTN
REM
REM
REM
REM
REM
REM ./C.cell (11c1c37f851c82e70ff6c80c92926a4b)
REM AIRSS Version 0.9.1 bugfix July 2018 build 013d7b7c2542+ Fri, 06 Jul 2018 19:26:36 +0100
REM compiler GCC version 9.2.1 20190827 (Red Hat 9.2.1-1)
REM options -cpp -mtune=generic -march=x86-64 -g -O0 -fpre-include=/usr/include/finclude/math-vector-fortran.h
REM seed -1447618814 1977114837 -425151107 154019130 -94554935 -994206946 1408658895 -1592072555 537324014 -355619658 -444728321 1591632541 1031487807 -1099130418 -1764080038 -40636064 -1540743013 -275954552 846828885 343726026 -328186565 1850306676 -257424248 -1011133135 -1584877996 414341059 -1072053585 -2019423611 -417885773 -1504725949 1824727917 -1975786059 1095190734
REM
CELL 1.54180   50.00000   50.00000   50.00000   90.00000   90.00000   90.00000
LATT -1
SFAC C  
C      1  0.4775660000000  0.4508710000000  0.5451570000000 1.0
C      1  0.5259640000000  0.6044550000000  0.5740300000000 1.0
C      1  0.4652130000000  0.5368380000000  0.4846070000000 1.0
C      1  0.4394330000000  0.5825630000000  0.5661220000000 1.0
C      1  0.3759910000000  0.5395100000000  0.4618040000000 1.0
C      1  0.5671550000000  0.5685830000000  0.3652360000000 1.0
C      1  0.4864790000000  0.4013490000000  0.5497910000000 1.0
C      1  0.4972190000000  0.6020900000000  0.5849590000000 1.0
C      1  0.5741150000000  0.4321340000000  0.5719280000000 1.0
C      1  0.5642420000000  0.4742290000000  0.4825440000000 1.0
C      1  0.4654470000000  0.4889480000000  0.6488670000000 1.0
C      1  0.3656700000000  0.3440050000000  0.4816090000000 1.0
C      1  0.5133220000000  0.4632720000000  0.6132490000000 1.0
C      1  0.5244280000000  0.5070380000000  0.4863620000000 1.0
C      1  0.5750900000000  0.5970380000000  0.4939520000000 1.0
C      1  0.4612180000000  0.4120690000000  0.4122630000000 1.0
C      1  0.4704620000000  0.4348760000000  0.3970040000000 1.0
C      1  0.4897760000000  0.5720130000000  0.4128650000000 1.0
C      1  0.6046160000000  0.4518050000000  0.5331850000000 1.0
C      1  0.6600660000000  0.5596170000000  0.4657180000000 1.0
C      1  0.6122330000000  0.5347720000000  0.4640830000000 1.0
C      1  0.5228290000000  0.5627660000000  0.4995130000000 1.0
C      1  0.4413290000000  0.5042970000000  0.3745620000000 1.0
C      1  0.4702210000000  0.4802280000000  0.5917400000000 1.0
C      1  0.5626410000000  0.4276680000000  0.5256270000000 1.0
C      1  0.4609870000000  0.4616770000000  0.3908140000000 1.0
C      1  0.4818570000000  0.6074060000000  0.5601770000000 1.0
C      1  0.3868300000000  0.4627290000000  0.5063560000000 1.0
C      1  0.5765800000000  0.5741040000000  0.5369220000000 1.0
C      1  0.4605070000000  0.4470060000000  0.5226720000000 1.0
C      1  0.5147880000000  0.6038420000000  0.4372270000000 1.0
C      1  0.4805830000000  0.4478790000000  0.4515200000000 1.0
C      1  0.5560200000000  0.5354660000000  0.5634200000000 1.0
C      1  0.5711760000000  0.5216850000000  0.4851180000000 1.0
C      1  0.5022490000000  0.4640170000000  0.4956520000000 1.0
C      1  0.5119370000000  0.3783500000000  0.4990950000000 1.0
C      1  0.4685340000000  0.3915530000000  0.5299000000000 1.0
C      1  0.5498030000000  0.6157870000000  0.5325400000000 1.0
C      1  0.5382120000000  0.4301120000000  0.4818970000000 1.0
C      1  0.4836000000000  0.3571780000000  0.4547580000000 1.0
C      1  0.4330970000000  0.5295680000000  0.5860690000000 1.0
C      1  0.4151880000000  0.5421570000000  0.5701430000000 1.0
C      1  0.4294430000000  0.5064150000000  0.4008350000000 1.0
C      1  0.5163260000000  0.5686620000000  0.4726510000000 1.0
C      1  0.5979030000000  0.5553820000000  0.5299750000000 1.0
C      1  0.6086630000000  0.4251310000000  0.4432580000000 1.0
C      1  0.4822060000000  0.4322980000000  0.5899690000000 1.0
C      1  0.4993680000000  0.5491120000000  0.5568420000000 1.0
C      1  0.5647620000000  0.5689060000000  0.4506500000000 1.0
C      1  0.3878890000000  0.3884910000000  0.4986430000000 1.0
C      1  0.4697100000000  0.3930830000000  0.6248190000000 1.0
C      1  0.4930840000000  0.5747210000000  0.5955790000000 1.0
C      1  0.5508750000000  0.5308120000000  0.6169040000000 1.0
C      1  0.5216410000000  0.4687130000000  0.5387220000000 1.0
C      1  0.5907230000000  0.4834570000000  0.5640460000000 1.0
C      1  0.5000070000000  0.4929340000000  0.4948500000000 1.0
C      1  0.5002490000000  0.4516560000000  0.4303280000000 1.0
C      1  0.5676630000000  0.5209860000000  0.5399010000000 1.0
C      1  0.4723490000000  0.5051650000000  0.4983140000000 1.0
C      1  0.4018350000000  0.4741750000000  0.5635970000000 1.0
C      1  0.4710640000000  0.5735950000000  0.3909220000000 1.0
C      1  0.4474410000000  0.6216170000000  0.3830660000000 1.0
C      1  0.4919290000000  0.4928930000000  0.6461470000000 1.0
C      1  0.6067440000000  0.4801270000000  0.5407670000000 1.0
C      1  0.4491650000000  0.4768570000000  0.3692980000000 1.0
C      1  0.5921670000000  0.5124970000000  0.4165480000000 1.0
C      1  0.4885130000000  0.5048260000000  0.4019040000000 1.0
C      1  0.4514570000000  0.5497900000000  0.5053690000000 1.0
C      1  0.4861820000000  0.5030280000000  0.5529920000000 1.0
C      1  0.5313970000000  0.5178980000000  0.5678690000000 1.0
C      1  0.5382270000000  0.4539020000000  0.6001320000000 1.0
C      1  0.5500560000000  0.4532310000000  0.4687970000000 1.0
C      1  0.5210470000000  0.4704870000000  0.4355780000000 1.0
C      1  0.5634520000000  0.4769910000000  0.5647450000000 1.0
C      1  0.4114140000000  0.4858320000000  0.4099220000000 1.0
C      1  0.5515180000000  0.4300850000000  0.5902930000000 1.0
C      1  0.5482940000000  0.4771910000000  0.5875190000000 1.0
C      1  0.4577650000000  0.4937380000000  0.4371000000000 1.0
C      1  0.4689830000000  0.3982740000000  0.4347010000000 1.0
C      1  0.4822090000000  0.4274880000000  0.5618210000000 1.0
C      1  0.5822600000000  0.4358740000000  0.5444470000000 1.0
C      1  0.4715440000000  0.5472510000000  0.4597230000000 1.0
C      1  0.4774500000000  0.6247140000000  0.4964040000000 1.0
C      1  0.4756390000000  0.5281690000000  0.4146780000000 1.0
C      1  0.6135730000000  0.5051670000000  0.5274890000000 1.0
C      1  0.5896560000000  0.4359600000000  0.4279870000000 1.0
C      1  0.5977590000000  0.5302880000000  0.4881660000000 1.0
C      1  0.4284050000000  0.4868390000000  0.5119760000000 1.0
C      1  0.4943730000000  0.3970800000000  0.4823800000000 1.0
C      1  0.4514080000000  0.4258410000000  0.5059170000000 1.0
C      1  0.4646320000000  0.5856810000000  0.5522120000000 1.0
C      1  0.5521080000000  0.5715850000000  0.3868330000000 1.0
C      1  0.4510010000000  0.6162560000000  0.4932190000000 1.0
C      1  0.5738660000000  0.5848900000000  0.4701290000000 1.0
C      1  0.4703880000000  0.4814220000000  0.4100110000000 1.0
C      1  0.4294080000000  0.4804690000000  0.5632280000000 1.0
C      1  0.5823370000000  0.5642550000000  0.3444920000000 1.0
C      1  0.5664510000000  0.4489650000000  0.4246700000000 1.0
C      1  0.4882310000000  0.4587870000000  0.5993530000000 1.0
C      1  0.4984440000000  0.6232990000000  0.5424560000000 1.0
C      1  0.5698330000000  0.5981490000000  0.5216930000000 1.0
C      1  0.4977420000000  0.4385380000000  0.4057390000000 1.0
C      1  0.5136850000000  0.5873450000000  0.4144760000000 1.0
C      1  0.5115210000000  0.3875530000000  0.5500840000000 1.0
C      1  0.4171190000000  0.5130180000000  0.4590420000000 1.0
C      1  0.5511130000000  0.5630180000000  0.5501120000000 1.0
C      1  0.6165180000000  0.4776920000000  0.4698890000000 1.0
C      1  0.4647610000000  0.5108580000000  0.5330310000000 1.0
C      1  0.4398330000000  0.4928540000000  0.5381280000000 1.0
C      1  0.3856290000000  0.5575110000000  0.5174000000000 1.0
C      1  0.4941340000000  0.4453080000000  0.4759610000000 1.0
C      1  0.5118920000000  0.5612330000000  0.5790020000000 1.0
C      1  0.6282200000000  0.4803300000000  0.3917240000000 1.0
C      1  0.4006070000000  0.4868740000000  0.5070950000000 1.0
C      1  0.5526480000000  0.5000890000000  0.4951600000000 1.0
C      1  0.4585940000000  0.5983080000000  0.3864500000000 1.0
C      1  0.6590990000000  0.4411560000000  0.3751500000000 1.0
C      1  0.6423400000000  0.3948820000000  0.4590550000000 1.0
C      1  0.4475880000000  0.5194860000000  0.4225720000000 1.0
C      1  0.3891860000000  0.5116150000000  0.4994010000000 1.0
C      1  0.5403820000000  0.4336170000000  0.5101890000000 1.0
C      1  0.6066320000000  0.5312840000000  0.5157120000000 1.0
C      1  0.5232760000000  0.5178180000000  0.4592770000000 1.0
C      1  0.5309530000000  0.5095500000000  0.6170970000000 1.0
C      1  0.5103840000000  0.5957080000000  0.4639520000000 1.0
C      1  0.6240490000000  0.4267620000000  0.4898510000000 1.0
C      1  0.5270550000000  0.3884580000000  0.5731780000000 1.0
C      1  0.5331550000000  0.5603640000000  0.5241460000000 1.0
C      1  0.6111700000000  0.4976200000000  0.4023040000000 1.0
C      1  0.4418650000000  0.4814660000000  0.6382240000000 1.0
C      1  0.3596960000000  0.5003280000000  0.5564250000000 1.0
C      1  0.3612570000000  0.5201220000000  0.5385910000000 1.0
C      1  0.4469970000000  0.4896310000000  0.4896680000000 1.0
C      1  0.3762560000000  0.4813270000000  0.5652010000000 1.0
C      1  0.5114600000000  0.4959050000000  0.4449050000000 1.0
C      1  0.4759070000000  0.5069000000000  0.5822010000000 1.0
C      1  0.4952440000000  0.4741160000000  0.5483490000000 1.0
C      1  0.4530590000000  0.5285500000000  0.3655250000000 1.0
C      1  0.4300240000000  0.4748970000000  0.6147120000000 1.0
C      1  0.4615570000000  0.5313230000000  0.5916820000000 1.0
C      1  0.4820170000000  0.3846750000000  0.4566170000000 1.0
C      1  0.6440570000000  0.4609320000000  0.3830390000000 1.0
C      1  0.4610080000000  0.5407950000000  0.5307290000000 1.0
C      1  0.3676280000000  0.5630110000000  0.4721200000000 1.0
C      1  0.5558760000000  0.5002350000000  0.5247650000000 1.0
C      1  0.4008560000000  0.4117800000000  0.5069640000000 1.0
C      1  0.5922730000000  0.4741650000000  0.4788900000000 1.0
C      1  0.4892390000000  0.5489540000000  0.4331600000000 1.0
C      1  0.5150400000000  0.5053880000000  0.3929100000000 1.0
C      1  0.5143310000000  0.4886350000000  0.6293580000000 1.0
C      1  0.4109520000000  0.5661440000000  0.5270790000000 1.0
C      1  0.4110000000000  0.4652510000000  0.4278560000000 1.0
C      1  0.6008150000000  0.5262970000000  0.4395590000000 1.0
C      1  0.4519950000000  0.4455980000000  0.4507610000000 1.0
C      1  0.5108520000000  0.4218230000000  0.4761670000000 1.0
C      1  0.4397200000000  0.3908370000000  0.5326640000000 1.0
C      1  0.4681500000000  0.5601170000000  0.5992130000000 1.0
C      1  0.4868820000000  0.6354890000000  0.5203900000000 1.0
C      1  0.4283460000000  0.5321230000000  0.4409310000000 1.0
C      1  0.6197210000000  0.4396990000000  0.5127740000000 1.0
C      1  0.5081180000000  0.5228180000000  0.5533030000000 1.0
C      1  0.4753430000000  0.4122370000000  0.6080750000000 1.0
C      1  0.5200130000000  0.4529920000000  0.5158200000000 1.0
C      1  0.4422020000000  0.4754870000000  0.5890310000000 1.0
C      1  0.5351480000000  0.5770790000000  0.5716190000000 1.0
C      1  0.5655500000000  0.5123130000000  0.4072320000000 1.0
C      1  0.5194140000000  0.5465290000000  0.4491010000000 1.0
C      1  0.5643610000000  0.5387740000000  0.5935610000000 1.0
C      1  0.6370610000000  0.5474370000000  0.4644850000000 1.0
C      1  0.5374560000000  0.5721740000000  0.4102850000000 1.0
C      1  0.5332240000000  0.5005430000000  0.5898620000000 1.0
C      1  0.4761770000000  0.5598650000000  0.5450850000000 1.0
C      1  0.4719630000000  0.4045290000000  0.5030270000000 1.0
C      1  0.4968460000000  0.6139060000000  0.4797730000000 1.0
C      1  0.4351530000000  0.5949690000000  0.4954510000000 1.0
C      1  0.6250490000000  0.4155400000000  0.4640440000000 1.0
C      1  0.3930570000000  0.5194930000000  0.4722510000000 1.0
C      1  0.5414310000000  0.5086050000000  0.3962410000000 1.0
C      1  0.4279220000000  0.4615110000000  0.4506040000000 1.0
C      1  0.5440120000000  0.5581860000000  0.4344500000000 1.0
C      1  0.5389680000000  0.4050150000000  0.5903780000000 1.0
C      1  0.5472690000000  0.4796020000000  0.5416340000000 1.0
C      1  0.4452390000000  0.5775400000000  0.5940440000000 1.0
C      1  0.4187850000000  0.5658120000000  0.5546460000000 1.0
C      1  0.3720630000000  0.5720760000000  0.4972230000000 1.0
C      1  0.3766240000000  0.3660700000000  0.4901390000000 1.0
C      1  0.5191410000000  0.3765410000000  0.5250890000000 1.0
C      1  0.4639700000000  0.5519330000000  0.3736940000000 1.0
C      1  0.4274940000000  0.4108690000000  0.5155010000000 1.0
C      1  0.3874500000000  0.4362380000000  0.5063770000000 1.0
C      1  0.4837550000000  0.4967500000000  0.4510200000000 1.0
C      1  0.5459880000000  0.4585350000000  0.4412410000000 1.0
C      1  0.4314130000000  0.5698410000000  0.5070650000000 1.0
C      1  0.3784500000000  0.5298150000000  0.5187920000000 1.0
C      1  0.5267030000000  0.6193070000000  0.5487770000000 1.0
C      1  0.4366700000000  0.4887710000000  0.4605790000000 1.0
END
