TITL C-599892-9790-763 0.184543226894716 125000 -579.759612616804 0 0 95 (C1) n - 1
REM
REM in /home/nfs/bkarasulu/CARBON/AIRSS/Generating-Clusters/TERSOFF/Only-C1/FIRE-HFTN
REM
REM
REM
REM
REM
REM ./C.cell (11c1c37f851c82e70ff6c80c92926a4b)
REM AIRSS Version 0.9.1 bugfix July 2018 build 013d7b7c2542+ Fri, 06 Jul 2018 19:26:36 +0100
REM compiler GCC version 9.2.1 20190827 (Red Hat 9.2.1-1)
REM options -cpp -mtune=generic -march=x86-64 -g -O0 -fpre-include=/usr/include/finclude/math-vector-fortran.h
REM seed 1012771008 642096769 -650183233 -1494151009 -1101607683 865617764 -2133162368 -1508366534 -1714470421 -1648284893 705458480 -1252639087 1699608498 548709584 276277564 -2060059623 -1674698450 1851293929 428436463 969306662 -862411943 170276227 1014318185 -1280381406 -1612437271 957547250 716058850 -1931481943 -451264707 -1104475225 1711273072 -821307587 -220826466
REM
CELL 1.54180   50.00000   50.00000   50.00000   90.00000   90.00000   90.00000
LATT -1
SFAC C  
C      1  0.5651840000000  0.4549530000000  0.3775500000000 1.0
C      1  0.4384990000000  0.5349340000000  0.4551900000000 1.0
C      1  0.5560210000000  0.4593030000000  0.4015540000000 1.0
C      1  0.5068620000000  0.5247510000000  0.5443860000000 1.0
C      1  0.5456490000000  0.4641230000000  0.4271480000000 1.0
C      1  0.5586340000000  0.4371830000000  0.5341950000000 1.0
C      1  0.5177910000000  0.4386030000000  0.5072590000000 1.0
C      1  0.4953470000000  0.4546280000000  0.5123580000000 1.0
C      1  0.5145960000000  0.5484290000000  0.5305880000000 1.0
C      1  0.4747880000000  0.5824820000000  0.4485530000000 1.0
C      1  0.5636470000000  0.4972500000000  0.6529870000000 1.0
C      1  0.5544050000000  0.4449240000000  0.5594600000000 1.0
C      1  0.4555470000000  0.4945030000000  0.3729400000000 1.0
C      1  0.5174020000000  0.4997330000000  0.5370090000000 1.0
C      1  0.5527850000000  0.4978790000000  0.6272470000000 1.0
C      1  0.4633890000000  0.5103430000000  0.5775870000000 1.0
C      1  0.4137430000000  0.5703100000000  0.4832670000000 1.0
C      1  0.4623920000000  0.4551580000000  0.5686940000000 1.0
C      1  0.4728510000000  0.4572890000000  0.4976440000000 1.0
C      1  0.4474960000000  0.5284380000000  0.5629890000000 1.0
C      1  0.4797580000000  0.4416130000000  0.5863040000000 1.0
C      1  0.4467420000000  0.5837840000000  0.4446000000000 1.0
C      1  0.5055240000000  0.4365290000000  0.4267290000000 1.0
C      1  0.5840650000000  0.4960430000000  0.7014090000000 1.0
C      1  0.5297420000000  0.4971670000000  0.5120030000000 1.0
C      1  0.5914760000000  0.4685790000000  0.5006780000000 1.0
C      1  0.5161440000000  0.5556720000000  0.4416880000000 1.0
C      1  0.5640450000000  0.5101940000000  0.4826580000000 1.0
C      1  0.4605090000000  0.4468050000000  0.4762450000000 1.0
C      1  0.4639210000000  0.4367770000000  0.4515820000000 1.0
C      1  0.5665910000000  0.4881320000000  0.4641130000000 1.0
C      1  0.4969460000000  0.4941460000000  0.4682560000000 1.0
C      1  0.5380410000000  0.4757750000000  0.6179480000000 1.0
C      1  0.5739380000000  0.4966420000000  0.6773940000000 1.0
C      1  0.5760360000000  0.5841500000000  0.5122180000000 1.0
C      1  0.5562100000000  0.4425510000000  0.4817980000000 1.0
C      1  0.5390040000000  0.5590440000000  0.5457160000000 1.0
C      1  0.5519460000000  0.4892120000000  0.4396470000000 1.0
C      1  0.5141340000000  0.4949880000000  0.4885780000000 1.0
C      1  0.5619780000000  0.5525970000000  0.4559540000000 1.0
C      1  0.5575830000000  0.5653540000000  0.5231460000000 1.0
C      1  0.5172210000000  0.5522310000000  0.5023950000000 1.0
C      1  0.5343330000000  0.5472850000000  0.5727900000000 1.0
C      1  0.4300130000000  0.5172800000000  0.4125330000000 1.0
C      1  0.5091260000000  0.5314930000000  0.5726220000000 1.0
C      1  0.5134820000000  0.4210190000000  0.4835210000000 1.0
C      1  0.4290310000000  0.5853210000000  0.4668870000000 1.0
C      1  0.4915170000000  0.4042760000000  0.4912630000000 1.0
C      1  0.4735470000000  0.4060720000000  0.5119570000000 1.0
C      1  0.4183930000000  0.4793230000000  0.5186850000000 1.0
C      1  0.5568020000000  0.5206130000000  0.6111180000000 1.0
C      1  0.5522280000000  0.5397780000000  0.5930260000000 1.0
C      1  0.5360050000000  0.4617750000000  0.5720710000000 1.0
C      1  0.4508580000000  0.4437780000000  0.5447200000000 1.0
C      1  0.5225370000000  0.4804180000000  0.5562470000000 1.0
C      1  0.3981360000000  0.5238220000000  0.5084480000000 1.0
C      1  0.4956700000000  0.5610770000000  0.4867800000000 1.0
C      1  0.5752220000000  0.5772760000000  0.4612670000000 1.0
C      1  0.5463410000000  0.4401270000000  0.5094520000000 1.0
C      1  0.4608330000000  0.4202240000000  0.5314790000000 1.0
C      1  0.4463140000000  0.5462820000000  0.5432450000000 1.0
C      1  0.5455330000000  0.5516010000000  0.4998120000000 1.0
C      1  0.4588040000000  0.4827190000000  0.5746520000000 1.0
C      1  0.5438030000000  0.5152720000000  0.4307030000000 1.0
C      1  0.4963320000000  0.5669580000000  0.4586320000000 1.0
C      1  0.4047780000000  0.5476690000000  0.4946280000000 1.0
C      1  0.5413940000000  0.5430110000000  0.4380650000000 1.0
C      1  0.4322110000000  0.5409630000000  0.4279520000000 1.0
C      1  0.4720350000000  0.4990230000000  0.4567370000000 1.0
C      1  0.5752390000000  0.4633340000000  0.4773170000000 1.0
C      1  0.5578490000000  0.5002860000000  0.5090540000000 1.0
C      1  0.4364380000000  0.5682950000000  0.4227300000000 1.0
C      1  0.3819200000000  0.5257420000000  0.5305570000000 1.0
C      1  0.4878750000000  0.5210880000000  0.5877140000000 1.0
C      1  0.5345400000000  0.4318030000000  0.4650360000000 1.0
C      1  0.4701110000000  0.4679260000000  0.4163690000000 1.0
C      1  0.5812020000000  0.5883590000000  0.4856120000000 1.0
C      1  0.4786570000000  0.4438810000000  0.4284860000000 1.0
C      1  0.5021840000000  0.4450600000000  0.6007210000000 1.0
C      1  0.5798010000000  0.4853210000000  0.5191520000000 1.0
C      1  0.4715680000000  0.5642080000000  0.5011900000000 1.0
C      1  0.4595770000000  0.4953810000000  0.3459790000000 1.0
C      1  0.5597240000000  0.5376190000000  0.4799930000000 1.0
C      1  0.4682000000000  0.4751610000000  0.3893340000000 1.0
C      1  0.4069890000000  0.4976840000000  0.5003520000000 1.0
C      1  0.4569530000000  0.5201410000000  0.4676480000000 1.0
C      1  0.4039400000000  0.4897080000000  0.4735280000000 1.0
C      1  0.4309550000000  0.4595610000000  0.5317370000000 1.0
C      1  0.5297390000000  0.4432860000000  0.4393570000000 1.0
C      1  0.4316200000000  0.4939940000000  0.4296080000000 1.0
C      1  0.4116650000000  0.4872470000000  0.4480940000000 1.0
C      1  0.4384640000000  0.5129050000000  0.3861160000000 1.0
C      1  0.4588310000000  0.4861710000000  0.4348610000000 1.0
C      1  0.5265510000000  0.4590600000000  0.5986600000000 1.0
C      1  0.4555480000000  0.5591190000000  0.5218440000000 1.0
END
