TITL C-599895-9959-307 -0.349076575553368 125000 -585.925677099456 0 0 98 (C1) n - 1
REM
REM in /home/nfs/bkarasulu/CARBON/AIRSS/Generating-Clusters/TERSOFF/Only-C1/FIRE-HFTN
REM
REM
REM
REM
REM
REM ./C.cell (11c1c37f851c82e70ff6c80c92926a4b)
REM AIRSS Version 0.9.1 bugfix July 2018 build 013d7b7c2542+ Fri, 06 Jul 2018 19:26:36 +0100
REM compiler GCC version 9.2.1 20190827 (Red Hat 9.2.1-1)
REM options -cpp -mtune=generic -march=x86-64 -g -O0 -fpre-include=/usr/include/finclude/math-vector-fortran.h
REM seed -1511952925 1873549661 951429873 887958571 -221920022 1032948964 -1856390510 118219336 -1172913063 1723188716 391915938 1225940936 -1086594093 258359855 1473630368 -354754863 -723164824 349782377 -265888165 -1297220091 686554805 -1441466607 -692059464 2024166182 1370444098 69306735 1567428354 48222331 2045842706 -967511659 -6092664 1254106846 2013988767
REM
CELL 1.54180   50.00000   50.00000   50.00000   90.00000   90.00000   90.00000
LATT -1
SFAC C  
C      1  0.5011750000000  0.5160260000000  0.5889540000000 1.0
C      1  0.5615440000000  0.5611720000000  0.4591920000000 1.0
C      1  0.5287610000000  0.5272320000000  0.5152580000000 1.0
C      1  0.4066430000000  0.4997700000000  0.4623360000000 1.0
C      1  0.5155480000000  0.5086850000000  0.5322670000000 1.0
C      1  0.5540400000000  0.5227100000000  0.5038100000000 1.0
C      1  0.4403580000000  0.5322310000000  0.5001880000000 1.0
C      1  0.5233030000000  0.5420610000000  0.4360930000000 1.0
C      1  0.5283000000000  0.4617950000000  0.5235790000000 1.0
C      1  0.5749490000000  0.5629500000000  0.5289350000000 1.0
C      1  0.4710400000000  0.4512540000000  0.4160710000000 1.0
C      1  0.5585060000000  0.4867870000000  0.4308850000000 1.0
C      1  0.5798620000000  0.5401780000000  0.5424910000000 1.0
C      1  0.5667990000000  0.4457240000000  0.4579290000000 1.0
C      1  0.5192700000000  0.4358860000000  0.5173370000000 1.0
C      1  0.5309030000000  0.4232730000000  0.5620310000000 1.0
C      1  0.5634960000000  0.5744490000000  0.4825530000000 1.0
C      1  0.4007130000000  0.5145590000000  0.5285400000000 1.0
C      1  0.4373900000000  0.4614250000000  0.5554290000000 1.0
C      1  0.4616400000000  0.4739990000000  0.5082130000000 1.0
C      1  0.4167580000000  0.4455840000000  0.5451020000000 1.0
C      1  0.5338730000000  0.5876510000000  0.5195090000000 1.0
C      1  0.5853990000000  0.5121850000000  0.4627590000000 1.0
C      1  0.5710290000000  0.5143390000000  0.5511280000000 1.0
C      1  0.5028660000000  0.5512510000000  0.4545470000000 1.0
C      1  0.5749940000000  0.4290580000000  0.5334290000000 1.0
C      1  0.4861580000000  0.5813390000000  0.5278640000000 1.0
C      1  0.4776700000000  0.5877720000000  0.4331660000000 1.0
C      1  0.4642240000000  0.4632420000000  0.5427610000000 1.0
C      1  0.5182390000000  0.4194150000000  0.4417530000000 1.0
C      1  0.3995900000000  0.5253700000000  0.4687650000000 1.0
C      1  0.4568910000000  0.4573610000000  0.3933310000000 1.0
C      1  0.3916050000000  0.4487100000000  0.5364830000000 1.0
C      1  0.5139180000000  0.5193950000000  0.4219810000000 1.0
C      1  0.4834870000000  0.4687550000000  0.4670710000000 1.0
C      1  0.5075600000000  0.4590500000000  0.4771210000000 1.0
C      1  0.6118810000000  0.5053090000000  0.4580360000000 1.0
C      1  0.3811880000000  0.4965000000000  0.5299730000000 1.0
C      1  0.4511920000000  0.5253670000000  0.4327180000000 1.0
C      1  0.5562220000000  0.4232440000000  0.5522320000000 1.0
C      1  0.4617660000000  0.5007420000000  0.4335510000000 1.0
C      1  0.4377570000000  0.4999580000000  0.5926980000000 1.0
C      1  0.4995010000000  0.5378210000000  0.4797880000000 1.0
C      1  0.4784440000000  0.5329590000000  0.5962720000000 1.0
C      1  0.4872380000000  0.5053200000000  0.5329260000000 1.0
C      1  0.4831670000000  0.5155370000000  0.4863790000000 1.0
C      1  0.5253410000000  0.6006090000000  0.5438250000000 1.0
C      1  0.4324710000000  0.4788290000000  0.5772070000000 1.0
C      1  0.4790970000000  0.4875170000000  0.5538170000000 1.0
C      1  0.5505560000000  0.4119910000000  0.4883560000000 1.0
C      1  0.5015120000000  0.5719540000000  0.5754610000000 1.0
C      1  0.5269140000000  0.5279560000000  0.5816820000000 1.0
C      1  0.4787860000000  0.5633550000000  0.4451150000000 1.0
C      1  0.5094460000000  0.5731830000000  0.5115890000000 1.0
C      1  0.4819860000000  0.4396460000000  0.5497690000000 1.0
C      1  0.5301780000000  0.4758600000000  0.4795520000000 1.0
C      1  0.5656750000000  0.5136390000000  0.4416930000000 1.0
C      1  0.5280200000000  0.4146720000000  0.5031180000000 1.0
C      1  0.4953110000000  0.4046330000000  0.4500520000000 1.0
C      1  0.4568740000000  0.4410040000000  0.4398110000000 1.0
C      1  0.4190980000000  0.4758710000000  0.4579590000000 1.0
C      1  0.4997950000000  0.5895650000000  0.5532880000000 1.0
C      1  0.5506110000000  0.4586710000000  0.4369890000000 1.0
C      1  0.4697200000000  0.4171020000000  0.4492440000000 1.0
C      1  0.5513090000000  0.5401020000000  0.4427420000000 1.0
C      1  0.4345360000000  0.5811550000000  0.5073180000000 1.0
C      1  0.4538050000000  0.5199270000000  0.6004580000000 1.0
C      1  0.4133380000000  0.5707680000000  0.4933190000000 1.0
C      1  0.5042930000000  0.4285640000000  0.5605930000000 1.0
C      1  0.5752260000000  0.5182640000000  0.4881780000000 1.0
C      1  0.5252870000000  0.5563500000000  0.5786190000000 1.0
C      1  0.3764690000000  0.4702180000000  0.5313180000000 1.0
C      1  0.5697190000000  0.4327660000000  0.4836700000000 1.0
C      1  0.5247740000000  0.4447170000000  0.4294250000000 1.0
C      1  0.4925120000000  0.4911790000000  0.5783830000000 1.0
C      1  0.4747620000000  0.4997320000000  0.5083020000000 1.0
C      1  0.5257240000000  0.4833520000000  0.5413320000000 1.0
C      1  0.5776940000000  0.4911360000000  0.5346780000000 1.0
C      1  0.4477980000000  0.5431520000000  0.4768220000000 1.0
C      1  0.4977600000000  0.3786480000000  0.4582150000000 1.0
C      1  0.5450250000000  0.4729380000000  0.5027480000000 1.0
C      1  0.5132320000000  0.5472080000000  0.5022120000000 1.0
C      1  0.4008530000000  0.5506740000000  0.4792940000000 1.0
C      1  0.4409740000000  0.4573130000000  0.4600500000000 1.0
C      1  0.4836030000000  0.4877070000000  0.4454340000000 1.0
C      1  0.4558790000000  0.5470020000000  0.4501230000000 1.0
C      1  0.6364120000000  0.4976050000000  0.4537970000000 1.0
C      1  0.4800480000000  0.5604590000000  0.5896660000000 1.0
C      1  0.5793500000000  0.4445280000000  0.5093960000000 1.0
C      1  0.5720960000000  0.4726230000000  0.5130360000000 1.0
C      1  0.5091080000000  0.4981330000000  0.4395290000000 1.0
C      1  0.4594290000000  0.4636410000000  0.4820250000000 1.0
C      1  0.5278860000000  0.4960020000000  0.4608250000000 1.0
C      1  0.5590030000000  0.5776970000000  0.5105000000000 1.0
C      1  0.4239710000000  0.5237220000000  0.5194480000000 1.0
C      1  0.5002290000000  0.4531660000000  0.4160030000000 1.0
C      1  0.5505320000000  0.5151490000000  0.5715090000000 1.0
C      1  0.4591200000000  0.5829460000000  0.5190740000000 1.0
END
