TITL C-599895-9959-685 0.753765338473633 125000 -313.133412936011 0 0 52 (C1) n - 1
REM
REM in /home/nfs/bkarasulu/CARBON/AIRSS/Generating-Clusters/TERSOFF/Only-C1/FIRE-HFTN
REM
REM
REM
REM
REM
REM ./C.cell (11c1c37f851c82e70ff6c80c92926a4b)
REM AIRSS Version 0.9.1 bugfix July 2018 build 013d7b7c2542+ Fri, 06 Jul 2018 19:26:36 +0100
REM compiler GCC version 9.2.1 20190827 (Red Hat 9.2.1-1)
REM options -cpp -mtune=generic -march=x86-64 -g -O0 -fpre-include=/usr/include/finclude/math-vector-fortran.h
REM seed -303493490 1921783804 2064342346 1058509505 1660779415 -846443509 -1570873818 1855504502 -1050205569 537660913 -1943618450 1274508044 949167276 -773620927 -437946528 479645970 1168178946 -659197623 -2088304516 649998689 1655262391 -1346316460 -1450003657 -404975707 1915008966 -157165598 78502774 2079256122 38939998 -1393704845 345599274 2038974738 -1509970510
REM
CELL 1.54180   50.00000   50.00000   50.00000   90.00000   90.00000   90.00000
LATT -1
SFAC C  
C      1  0.5095900000000  0.4478070000000  0.4411470000000 1.0
C      1  0.5232530000000  0.4545850000000  0.5028410000000 1.0
C      1  0.4995480000000  0.4493190000000  0.5176800000000 1.0
C      1  0.3975080000000  0.5299160000000  0.4254100000000 1.0
C      1  0.5023890000000  0.4508540000000  0.5679260000000 1.0
C      1  0.5239610000000  0.5187220000000  0.5608380000000 1.0
C      1  0.3751480000000  0.5355760000000  0.4123620000000 1.0
C      1  0.5478720000000  0.4916150000000  0.4406740000000 1.0
C      1  0.4600090000000  0.5365680000000  0.5422830000000 1.0
C      1  0.5401320000000  0.5396020000000  0.4566630000000 1.0
C      1  0.4749000000000  0.4325370000000  0.4765820000000 1.0
C      1  0.5619660000000  0.5391010000000  0.4967450000000 1.0
C      1  0.5348710000000  0.4454890000000  0.4554760000000 1.0
C      1  0.4866900000000  0.4363050000000  0.4527590000000 1.0
C      1  0.5090030000000  0.4984100000000  0.4894820000000 1.0
C      1  0.4485880000000  0.5159730000000  0.5560970000000 1.0
C      1  0.4622120000000  0.4917170000000  0.5611830000000 1.0
C      1  0.4869440000000  0.5065070000000  0.4772150000000 1.0
C      1  0.3304240000000  0.5468980000000  0.3862630000000 1.0
C      1  0.5400630000000  0.5525630000000  0.4826750000000 1.0
C      1  0.3527890000000  0.5412360000000  0.3993140000000 1.0
C      1  0.5492020000000  0.5429600000000  0.5921440000000 1.0
C      1  0.5562630000000  0.5163320000000  0.5951450000000 1.0
C      1  0.5564890000000  0.4907730000000  0.5017680000000 1.0
C      1  0.5480130000000  0.4735870000000  0.5683180000000 1.0
C      1  0.5295130000000  0.4820770000000  0.4992770000000 1.0
C      1  0.5534520000000  0.5136570000000  0.4572680000000 1.0
C      1  0.5254510000000  0.4910480000000  0.4229940000000 1.0
C      1  0.5335020000000  0.4376970000000  0.4826640000000 1.0
C      1  0.5669860000000  0.4706250000000  0.5477530000000 1.0
C      1  0.5637230000000  0.5124460000000  0.4850970000000 1.0
C      1  0.4868510000000  0.4894150000000  0.5455770000000 1.0
C      1  0.5922470000000  0.5579150000000  0.5368530000000 1.0
C      1  0.5547140000000  0.4649210000000  0.4484700000000 1.0
C      1  0.5304420000000  0.5451220000000  0.5718010000000 1.0
C      1  0.4870420000000  0.5363690000000  0.5333340000000 1.0
C      1  0.4800290000000  0.4530510000000  0.5855180000000 1.0
C      1  0.4606080000000  0.4719810000000  0.5815360000000 1.0
C      1  0.5018450000000  0.5138830000000  0.5440880000000 1.0
C      1  0.5174480000000  0.5605650000000  0.4969980000000 1.0
C      1  0.4198680000000  0.5242550000000  0.4384570000000 1.0
C      1  0.5084370000000  0.4697160000000  0.4229760000000 1.0
C      1  0.4790260000000  0.4369520000000  0.5028010000000 1.0
C      1  0.5420760000000  0.5001260000000  0.5756700000000 1.0
C      1  0.4645830000000  0.5128260000000  0.4645010000000 1.0
C      1  0.4963540000000  0.4626470000000  0.5422920000000 1.0
C      1  0.4988950000000  0.5539650000000  0.5150980000000 1.0
C      1  0.5776820000000  0.5495430000000  0.5169330000000 1.0
C      1  0.5712460000000  0.4798660000000  0.5229430000000 1.0
C      1  0.4422270000000  0.5185920000000  0.4515030000000 1.0
C      1  0.3084260000000  0.5524660000000  0.3734270000000 1.0
C      1  0.5295000000000  0.4533220000000  0.5751760000000 1.0
END
