TITL C-599896-8500-800 0.0631588884940883 125000 -508.422425017419 0 0 85 (C1) n - 1
REM
REM in /home/nfs/bkarasulu/CARBON/AIRSS/Generating-Clusters/TERSOFF/Only-C1/FIRE-HFTN
REM
REM
REM
REM
REM
REM ./C.cell (11c1c37f851c82e70ff6c80c92926a4b)
REM AIRSS Version 0.9.1 bugfix July 2018 build 013d7b7c2542+ Fri, 06 Jul 2018 19:26:36 +0100
REM compiler GCC version 9.2.1 20190827 (Red Hat 9.2.1-1)
REM options -cpp -mtune=generic -march=x86-64 -g -O0 -fpre-include=/usr/include/finclude/math-vector-fortran.h
REM seed -724151827 -708240993 -860417952 -648269974 -738788499 -971204655 -1870932836 176137763 825657874 2108431037 1164486050 -2037187716 -731833095 -134006657 -1853921608 1456078314 -86061827 1425429349 -936208116 379685831 1955746414 -2144625961 1995786259 518826538 -1818082972 1448993685 1983893278 2100158155 -1836557078 1900225417 332119298 1396282681 -1831570822
REM
CELL 1.54180   50.00000   50.00000   50.00000   90.00000   90.00000   90.00000
LATT -1
SFAC C  
C      1  0.5395260000000  0.5065850000000  0.5073320000000 1.0
C      1  0.4111980000000  0.4584610000000  0.5843490000000 1.0
C      1  0.4794490000000  0.4877260000000  0.4276300000000 1.0
C      1  0.5157480000000  0.4690890000000  0.5222210000000 1.0
C      1  0.4758050000000  0.4873700000000  0.5417180000000 1.0
C      1  0.4137390000000  0.4915850000000  0.5493210000000 1.0
C      1  0.4491850000000  0.5249900000000  0.4472270000000 1.0
C      1  0.4808830000000  0.5155660000000  0.5406880000000 1.0
C      1  0.5170620000000  0.5598740000000  0.4426630000000 1.0
C      1  0.5353930000000  0.5785690000000  0.5147050000000 1.0
C      1  0.4430300000000  0.5447160000000  0.4691150000000 1.0
C      1  0.4903120000000  0.5867360000000  0.5389310000000 1.0
C      1  0.4321710000000  0.4302880000000  0.4663400000000 1.0
C      1  0.6388730000000  0.4123020000000  0.4914430000000 1.0
C      1  0.6268480000000  0.4348330000000  0.4862090000000 1.0
C      1  0.5225400000000  0.5177410000000  0.4882530000000 1.0
C      1  0.5309640000000  0.4675610000000  0.5860230000000 1.0
C      1  0.4599750000000  0.4865950000000  0.4780910000000 1.0
C      1  0.4175200000000  0.5118210000000  0.5290520000000 1.0
C      1  0.4554840000000  0.4811370000000  0.5218530000000 1.0
C      1  0.4877950000000  0.5413940000000  0.4719810000000 1.0
C      1  0.4697920000000  0.4308350000000  0.5525630000000 1.0
C      1  0.4248070000000  0.4555610000000  0.4588330000000 1.0
C      1  0.5733210000000  0.5118850000000  0.4552100000000 1.0
C      1  0.5279780000000  0.4284060000000  0.4293490000000 1.0
C      1  0.5647270000000  0.4646350000000  0.4371310000000 1.0
C      1  0.4565020000000  0.5017920000000  0.5015830000000 1.0
C      1  0.5527590000000  0.4387200000000  0.4443900000000 1.0
C      1  0.4462810000000  0.4738530000000  0.4564660000000 1.0
C      1  0.4536910000000  0.5766170000000  0.5057310000000 1.0
C      1  0.4482630000000  0.4536890000000  0.5188170000000 1.0
C      1  0.4998370000000  0.5900370000000  0.4788560000000 1.0
C      1  0.4969910000000  0.5290030000000  0.4950810000000 1.0
C      1  0.4765920000000  0.5159280000000  0.4353120000000 1.0
C      1  0.6000830000000  0.4805970000000  0.4750330000000 1.0
C      1  0.4841150000000  0.4726920000000  0.4841670000000 1.0
C      1  0.6181300000000  0.5100590000000  0.5111660000000 1.0
C      1  0.5408260000000  0.4400590000000  0.4714720000000 1.0
C      1  0.5405980000000  0.4784870000000  0.4293570000000 1.0
C      1  0.4785340000000  0.4368580000000  0.4519340000000 1.0
C      1  0.5507970000000  0.5224220000000  0.4429890000000 1.0
C      1  0.5255280000000  0.4847880000000  0.4527990000000 1.0
C      1  0.4407840000000  0.5600570000000  0.5802500000000 1.0
C      1  0.4691290000000  0.4634060000000  0.4399070000000 1.0
C      1  0.5247440000000  0.5144390000000  0.4572510000000 1.0
C      1  0.4767980000000  0.5206810000000  0.5125080000000 1.0
C      1  0.3933310000000  0.4975160000000  0.5699790000000 1.0
C      1  0.4112870000000  0.5577680000000  0.5401300000000 1.0
C      1  0.4736890000000  0.4167750000000  0.5264050000000 1.0
C      1  0.5519400000000  0.5396160000000  0.4206540000000 1.0
C      1  0.5648580000000  0.5281490000000  0.5481460000000 1.0
C      1  0.5161930000000  0.5847400000000  0.5323250000000 1.0
C      1  0.4348880000000  0.5521900000000  0.4979300000000 1.0
C      1  0.4620670000000  0.4314630000000  0.5039000000000 1.0
C      1  0.4964470000000  0.4683530000000  0.5427140000000 1.0
C      1  0.4199830000000  0.5394490000000  0.5200760000000 1.0
C      1  0.4718540000000  0.5830660000000  0.4832780000000 1.0
C      1  0.4794650000000  0.5323260000000  0.5626580000000 1.0
C      1  0.4649140000000  0.5834590000000  0.5306140000000 1.0
C      1  0.5045160000000  0.4240710000000  0.4480320000000 1.0
C      1  0.5436010000000  0.5656060000000  0.4897990000000 1.0
C      1  0.5012260000000  0.5324880000000  0.4470170000000 1.0
C      1  0.5285930000000  0.4658790000000  0.4751430000000 1.0
C      1  0.4194870000000  0.5648030000000  0.5646920000000 1.0
C      1  0.5812920000000  0.5247050000000  0.4801580000000 1.0
C      1  0.5380730000000  0.4859520000000  0.5244980000000 1.0
C      1  0.5085520000000  0.4664340000000  0.4948950000000 1.0
C      1  0.6144730000000  0.4576350000000  0.4808540000000 1.0
C      1  0.5228330000000  0.5737160000000  0.4686180000000 1.0
C      1  0.4926050000000  0.4467960000000  0.5610120000000 1.0
C      1  0.5115280000000  0.4489620000000  0.5819480000000 1.0
C      1  0.5658090000000  0.5449800000000  0.4956130000000 1.0
C      1  0.4598180000000  0.4278830000000  0.4748540000000 1.0
C      1  0.5198140000000  0.4196110000000  0.4731890000000 1.0
C      1  0.4676630000000  0.5600470000000  0.4676010000000 1.0
C      1  0.5565310000000  0.5103650000000  0.5666580000000 1.0
C      1  0.5817450000000  0.4832010000000  0.4526510000000 1.0
C      1  0.4253160000000  0.4641380000000  0.5594440000000 1.0
C      1  0.4642590000000  0.5473190000000  0.5786740000000 1.0
C      1  0.5689040000000  0.5406480000000  0.5245370000000 1.0
C      1  0.4439480000000  0.4462390000000  0.5473330000000 1.0
C      1  0.5345470000000  0.5602870000000  0.4207100000000 1.0
C      1  0.3926640000000  0.4781820000000  0.5897690000000 1.0
C      1  0.5453790000000  0.4894310000000  0.5795080000000 1.0
C      1  0.6008040000000  0.5053090000000  0.4906780000000 1.0
END
