TITL C-599894-471-1044 149.014461255891 125000 -991.861106111957 0 0 164 (C1) n - 1
REM
REM in /home/nfs/bkarasulu/CARBON/AIRSS/Generating-Clusters/TERSOFF/Only-C1/FIRE-HFTN
REM
REM
REM
REM
REM
REM ./C.cell (11c1c37f851c82e70ff6c80c92926a4b)
REM AIRSS Version 0.9.1 bugfix July 2018 build 013d7b7c2542+ Fri, 06 Jul 2018 19:26:36 +0100
REM compiler GCC version 9.2.1 20190827 (Red Hat 9.2.1-1)
REM options -cpp -mtune=generic -march=x86-64 -g -O0 -fpre-include=/usr/include/finclude/math-vector-fortran.h
REM seed -88499950 607687003 1111510276 -901403889 343524580 -1860647332 707977666 343982944 -745912889 -1755687576 -181471350 971406222 316485590 -486912038 -529840974 1652666109 -2106481082 1093961484 2091712572 -2042584063 1908063119 -1955993076 -1956744555 -1386958661 -61036754 -719257988 -2100597619 -1139441278 2078382793 1451468296 368302336 1554896831 -1273854387
REM
CELL 1.54180   50.00000   50.00000   50.00000   90.00000   90.00000   90.00000
LATT -1
SFAC C  
C      1  0.5385600000000  0.5170910000000  0.4061320000000 1.0
C      1  0.4722130000000  0.5746550000000  0.5840320000000 1.0
C      1  0.5414700000000  0.5808830000000  0.4354370000000 1.0
C      1  0.4891370000000  0.4961230000000  0.5253470000000 1.0
C      1  0.4881040000000  0.4565440000000  0.4450610000000 1.0
C      1  0.5836930000000  0.5063550000000  0.4366750000000 1.0
C      1  0.4617000000000  0.5529950000000  0.5005630000000 1.0
C      1  0.5391870000000  0.5793940000000  0.5192780000000 1.0
C      1  0.4918410000000  0.5230760000000  0.4601210000000 1.0
C      1  0.4605710000000  0.4608490000000  0.4058640000000 1.0
C      1  0.5536050000000  0.5561170000000  0.4388730000000 1.0
C      1  0.5914130000000  0.5098890000000  0.4645900000000 1.0
C      1  0.5244820000000  0.3984740000000  0.4311740000000 1.0
C      1  0.4938630000000  0.4903100000000  0.5523680000000 1.0
C      1  0.5416030000000  0.4524890000000  0.3944330000000 1.0
C      1  0.5605260000000  0.4996360000000  0.4984130000000 1.0
C      1  0.4452600000000  0.4784520000000  0.5199540000000 1.0
C      1  0.4796070000000  0.4203140000000  0.5497950000000 1.0
C      1  0.5031110000000  0.6042020000000  0.4799930000000 1.0
C      1  0.4737480000000  0.5274190000000  0.3741550000000 1.0
C      1  0.4548740000000  0.4586770000000  0.5373840000000 1.0
C      1  0.3802270000000  0.5008180000000  0.4902820000000 1.0
C      1  0.5432380000000  0.5350940000000  0.4564280000000 1.0
C      1  0.3334570000000  0.4996370000000  0.4663630000000 1.0
C      1  0.5123660000000  0.4155610000000  0.4121430000000 1.0
C      1  0.6205600000000  0.6194360000000  0.5281180000000 1.0
C      1  0.6053590000000  0.5687470000000  0.5179760000000 1.0
C      1  0.5303470000000  0.5461040000000  0.4789110000000 1.0
C      1  0.5754050000000  0.5627790000000  0.5684280000000 1.0
C      1  0.5275070000000  0.5259040000000  0.3798520000000 1.0
C      1  0.4956840000000  0.4062820000000  0.3919770000000 1.0
C      1  0.4698880000000  0.5172960000000  0.4186830000000 1.0
C      1  0.4576000000000  0.5143410000000  0.3934220000000 1.0
C      1  0.4532390000000  0.4216830000000  0.4347650000000 1.0
C      1  0.5710620000000  0.5467550000000  0.4190660000000 1.0
C      1  0.4371500000000  0.5740370000000  0.4508010000000 1.0
C      1  0.4937150000000  0.5551920000000  0.5860410000000 1.0
C      1  0.4721950000000  0.4870350000000  0.6074910000000 1.0
C      1  0.5374300000000  0.4435660000000  0.6126480000000 1.0
C      1  0.4322080000000  0.4799860000000  0.4554830000000 1.0
C      1  0.6138020000000  0.5948510000000  0.5227360000000 1.0
C      1  0.3993850000000  0.5443320000000  0.4488280000000 1.0
C      1  0.4689060000000  0.5408290000000  0.5469440000000 1.0
C      1  0.5047140000000  0.5950910000000  0.5504110000000 1.0
C      1  0.5359570000000  0.4759710000000  0.4505890000000 1.0
C      1  0.5356880000000  0.5197770000000  0.6147540000000 1.0
C      1  0.6058310000000  0.4821850000000  0.5045790000000 1.0
C      1  0.5335550000000  0.5008850000000  0.3639200000000 1.0
C      1  0.5092980000000  0.6099130000000  0.4548510000000 1.0
C      1  0.5392540000000  0.5054650000000  0.4533430000000 1.0
C      1  0.4980440000000  0.5849950000000  0.4151700000000 1.0
C      1  0.5400390000000  0.4420510000000  0.5849820000000 1.0
C      1  0.5648940000000  0.4386240000000  0.5726720000000 1.0
C      1  0.4226490000000  0.5242010000000  0.4997010000000 1.0
C      1  0.4558600000000  0.4661780000000  0.5647140000000 1.0
C      1  0.4658750000000  0.6134850000000  0.5256010000000 1.0
C      1  0.4604650000000  0.3949060000000  0.3546990000000 1.0
C      1  0.5422650000000  0.5471170000000  0.6059060000000 1.0
C      1  0.4094640000000  0.4101770000000  0.5447360000000 1.0
C      1  0.4784790000000  0.3999130000000  0.3728640000000 1.0
C      1  0.5658910000000  0.4369490000000  0.4749480000000 1.0
C      1  0.5318260000000  0.4485550000000  0.6646570000000 1.0
C      1  0.4629590000000  0.5173150000000  0.4621110000000 1.0
C      1  0.5870490000000  0.5048450000000  0.5664330000000 1.0
C      1  0.5686130000000  0.5453820000000  0.5904360000000 1.0
C      1  0.4209940000000  0.4680120000000  0.4324120000000 1.0
C      1  0.6091630000000  0.4783280000000  0.5327240000000 1.0
C      1  0.4262950000000  0.4201600000000  0.4370580000000 1.0
C      1  0.4181870000000  0.4358430000000  0.5845350000000 1.0
C      1  0.4451170000000  0.5613570000000  0.5787300000000 1.0
C      1  0.4866170000000  0.5981990000000  0.5736570000000 1.0
C      1  0.4904120000000  0.4975220000000  0.6237760000000 1.0
C      1  0.5028690000000  0.5416120000000  0.4785750000000 1.0
C      1  0.4157030000000  0.5600130000000  0.4662010000000 1.0
C      1  0.4512300000000  0.5255230000000  0.5051040000000 1.0
C      1  0.4255920000000  0.4877190000000  0.5938560000000 1.0
C      1  0.5486900000000  0.4143730000000  0.4713380000000 1.0
C      1  0.5185510000000  0.5607600000000  0.5985400000000 1.0
C      1  0.4904050000000  0.5356190000000  0.5657830000000 1.0
C      1  0.4530110000000  0.4819800000000  0.5878810000000 1.0
C      1  0.5176110000000  0.4432060000000  0.5678880000000 1.0
C      1  0.5378400000000  0.4926210000000  0.5158300000000 1.0
C      1  0.5686440000000  0.5112950000000  0.5453580000000 1.0
C      1  0.6050180000000  0.5566920000000  0.4916050000000 1.0
C      1  0.4463900000000  0.3931020000000  0.5710320000000 1.0
C      1  0.6113760000000  0.5014160000000  0.5512850000000 1.0
C      1  0.5348370000000  0.4455830000000  0.6389340000000 1.0
C      1  0.5408130000000  0.5644580000000  0.4972950000000 1.0
C      1  0.5155910000000  0.4589500000000  0.4369230000000 1.0
C      1  0.4838070000000  0.6226120000000  0.5859180000000 1.0
C      1  0.4431010000000  0.5547790000000  0.5498980000000 1.0
C      1  0.4323940000000  0.5009060000000  0.3967670000000 1.0
C      1  0.3924500000000  0.5189610000000  0.6094770000000 1.0
C      1  0.5745990000000  0.5329130000000  0.5287010000000 1.0
C      1  0.5669310000000  0.5185190000000  0.4154980000000 1.0
C      1  0.6182720000000  0.5298380000000  0.5464110000000 1.0
C      1  0.5007290000000  0.4766520000000  0.4853630000000 1.0
C      1  0.4471170000000  0.5778970000000  0.5008830000000 1.0
C      1  0.5554560000000  0.4605840000000  0.4642310000000 1.0
C      1  0.4130180000000  0.5512490000000  0.5007830000000 1.0
C      1  0.5487290000000  0.4065060000000  0.4433820000000 1.0
C      1  0.5300750000000  0.4096580000000  0.4934350000000 1.0
C      1  0.4906130000000  0.5996230000000  0.5258350000000 1.0
C      1  0.4550490000000  0.5587500000000  0.4334840000000 1.0
C      1  0.5854960000000  0.4890070000000  0.4857330000000 1.0
C      1  0.4190440000000  0.4788230000000  0.5104110000000 1.0
C      1  0.5172980000000  0.5946470000000  0.4329490000000 1.0
C      1  0.5440560000000  0.4985910000000  0.5435870000000 1.0
C      1  0.4210170000000  0.5587130000000  0.5297140000000 1.0
C      1  0.5215160000000  0.4427200000000  0.4138280000000 1.0
C      1  0.5317450000000  0.5038010000000  0.5692290000000 1.0
C      1  0.4820340000000  0.4712920000000  0.3911810000000 1.0
C      1  0.3563790000000  0.4999790000000  0.4787750000000 1.0
C      1  0.4811070000000  0.4294260000000  0.5036200000000 1.0
C      1  0.3968060000000  0.4089640000000  0.5219890000000 1.0
C      1  0.4962590000000  0.5867230000000  0.5007860000000 1.0
C      1  0.5027080000000  0.4660220000000  0.5627970000000 1.0
C      1  0.5134960000000  0.5101000000000  0.6283110000000 1.0
C      1  0.4965170000000  0.5416330000000  0.3840040000000 1.0
C      1  0.5304660000000  0.4754070000000  0.3792830000000 1.0
C      1  0.5650490000000  0.4377970000000  0.4031020000000 1.0
C      1  0.5917090000000  0.4334550000000  0.4829590000000 1.0
C      1  0.5896770000000  0.5349310000000  0.4817110000000 1.0
C      1  0.4949880000000  0.3785210000000  0.5459900000000 1.0
C      1  0.5184250000000  0.3972360000000  0.5408040000000 1.0
C      1  0.5081420000000  0.4211510000000  0.5541780000000 1.0
C      1  0.4704800000000  0.3935690000000  0.5552540000000 1.0
C      1  0.4884600000000  0.5593220000000  0.4948040000000 1.0
C      1  0.3989380000000  0.5301670000000  0.4258960000000 1.0
C      1  0.5048010000000  0.5120080000000  0.5664900000000 1.0
C      1  0.4960880000000  0.5147060000000  0.4316670000000 1.0
C      1  0.4429070000000  0.3732530000000  0.5897030000000 1.0
C      1  0.5028880000000  0.4185520000000  0.4917730000000 1.0
C      1  0.4821440000000  0.5633740000000  0.4096440000000 1.0
C      1  0.5954000000000  0.5509620000000  0.5404610000000 1.0
C      1  0.4686380000000  0.4443890000000  0.4282040000000 1.0
C      1  0.5389420000000  0.4040490000000  0.5209770000000 1.0
C      1  0.4626610000000  0.5013100000000  0.5160810000000 1.0
C      1  0.4454220000000  0.6025320000000  0.5117190000000 1.0
C      1  0.5475190000000  0.5046670000000  0.5933190000000 1.0
C      1  0.4380850000000  0.6015020000000  0.4504220000000 1.0
C      1  0.4102270000000  0.4419460000000  0.4350640000000 1.0
C      1  0.4570800000000  0.4894590000000  0.4647220000000 1.0
C      1  0.4801800000000  0.4723870000000  0.4668890000000 1.0
C      1  0.5554810000000  0.5823540000000  0.5628490000000 1.0
C      1  0.5665660000000  0.4197160000000  0.4240880000000 1.0
C      1  0.4540730000000  0.5311290000000  0.4382950000000 1.0
C      1  0.4063270000000  0.5013530000000  0.4997210000000 1.0
C      1  0.4694920000000  0.4360190000000  0.5287200000000 1.0
C      1  0.4101850000000  0.5163540000000  0.4056780000000 1.0
C      1  0.5153520000000  0.5025340000000  0.4156710000000 1.0
C      1  0.4123540000000  0.4617070000000  0.5918790000000 1.0
C      1  0.5631320000000  0.4167480000000  0.5303380000000 1.0
C      1  0.5982130000000  0.4532110000000  0.5415240000000 1.0
C      1  0.4351920000000  0.4744250000000  0.4080330000000 1.0
C      1  0.5768820000000  0.4352700000000  0.5473910000000 1.0
C      1  0.5695880000000  0.5273080000000  0.5018510000000 1.0
C      1  0.4253350000000  0.4132930000000  0.5678610000000 1.0
C      1  0.5328560000000  0.5867240000000  0.5461230000000 1.0
C      1  0.4177580000000  0.5153100000000  0.5989660000000 1.0
C      1  0.5070680000000  0.4827650000000  0.3960760000000 1.0
C      1  0.5744300000000  0.5159050000000  0.5889640000000 1.0
C      1  0.4331610000000  0.5397160000000  0.5944460000000 1.0
C      1  0.5104990000000  0.4890870000000  0.5080030000000 1.0
END
