TITL C-599890-3321-327 0.0135536950601382 125000 -389.450332252518 0 0 65 (C1) n - 1
REM
REM in /home/nfs/bkarasulu/CARBON/AIRSS/Generating-Clusters/TERSOFF/Only-C1/FIRE-HFTN
REM
REM
REM
REM
REM
REM ./C.cell (11c1c37f851c82e70ff6c80c92926a4b)
REM AIRSS Version 0.9.1 bugfix July 2018 build 013d7b7c2542+ Fri, 06 Jul 2018 19:26:36 +0100
REM compiler GCC version 9.2.1 20190827 (Red Hat 9.2.1-1)
REM options -cpp -mtune=generic -march=x86-64 -g -O0 -fpre-include=/usr/include/finclude/math-vector-fortran.h
REM seed 847887261 736692179 -269439702 -250634668 -1207267527 555042988 -1547968056 -2133705831 -1798033561 1915396924 -45433466 -875492341 1221984716 -1186173944 1452975305 -766820236 579917686 838335524 126072971 -118723385 -1149696687 726448416 420166828 -1193354858 461785062 742255052 849407825 1409200969 -382254359 719287505 1640528168 10896827 -273554997
REM
CELL 1.54180   50.00000   50.00000   50.00000   90.00000   90.00000   90.00000
LATT -1
SFAC C  
C      1  0.4604430000000  0.4521850000000  0.5008670000000 1.0
C      1  0.5035440000000  0.5088390000000  0.5731310000000 1.0
C      1  0.5318560000000  0.5000030000000  0.5224340000000 1.0
C      1  0.4419480000000  0.4875730000000  0.5541530000000 1.0
C      1  0.5616470000000  0.5344440000000  0.5274720000000 1.0
C      1  0.4819840000000  0.5655950000000  0.4899290000000 1.0
C      1  0.4738170000000  0.4968440000000  0.4943850000000 1.0
C      1  0.3993680000000  0.4920840000000  0.5293140000000 1.0
C      1  0.4741070000000  0.5267160000000  0.4211910000000 1.0
C      1  0.5555470000000  0.5107700000000  0.5107850000000 1.0
C      1  0.4540800000000  0.4942440000000  0.4505160000000 1.0
C      1  0.5138980000000  0.5774950000000  0.4560830000000 1.0
C      1  0.5286470000000  0.4539250000000  0.4857650000000 1.0
C      1  0.4952460000000  0.4782800000000  0.4341780000000 1.0
C      1  0.4497010000000  0.5818790000000  0.6295500000000 1.0
C      1  0.5177480000000  0.4193590000000  0.5169720000000 1.0
C      1  0.4481390000000  0.5052060000000  0.4792700000000 1.0
C      1  0.4528240000000  0.4648980000000  0.4543350000000 1.0
C      1  0.4995110000000  0.5028010000000  0.4816070000000 1.0
C      1  0.5083990000000  0.5289240000000  0.4686190000000 1.0
C      1  0.5239640000000  0.4818110000000  0.4332210000000 1.0
C      1  0.5640720000000  0.5088940000000  0.4834880000000 1.0
C      1  0.4840710000000  0.5308450000000  0.5208850000000 1.0
C      1  0.4267030000000  0.4848120000000  0.4875740000000 1.0
C      1  0.4632970000000  0.5639780000000  0.6163460000000 1.0
C      1  0.5850550000000  0.4483340000000  0.4973780000000 1.0
C      1  0.4042410000000  0.4892430000000  0.5031380000000 1.0
C      1  0.5649850000000  0.4362310000000  0.5107800000000 1.0
C      1  0.4476610000000  0.5345580000000  0.4831170000000 1.0
C      1  0.4786650000000  0.4316800000000  0.4922930000000 1.0
C      1  0.5493550000000  0.5328590000000  0.5542140000000 1.0
C      1  0.4871540000000  0.4342390000000  0.4648070000000 1.0
C      1  0.4906990000000  0.5276120000000  0.5892470000000 1.0
C      1  0.5370560000000  0.4367440000000  0.5067700000000 1.0
C      1  0.5664850000000  0.5575660000000  0.4826080000000 1.0
C      1  0.4798300000000  0.4554460000000  0.4472630000000 1.0
C      1  0.5304050000000  0.4627790000000  0.5576470000000 1.0
C      1  0.5409500000000  0.4492170000000  0.4606770000000 1.0
C      1  0.4771170000000  0.5457780000000  0.6029190000000 1.0
C      1  0.5867990000000  0.4669590000000  0.4779210000000 1.0
C      1  0.5479160000000  0.4743060000000  0.4479310000000 1.0
C      1  0.5319520000000  0.5116550000000  0.5653450000000 1.0
C      1  0.4158110000000  0.4913020000000  0.5504410000000 1.0
C      1  0.5683500000000  0.4857450000000  0.4667940000000 1.0
C      1  0.4443410000000  0.5483400000000  0.4583190000000 1.0
C      1  0.4775360000000  0.3925300000000  0.5212000000000 1.0
C      1  0.4698100000000  0.4762270000000  0.5153500000000 1.0
C      1  0.4909030000000  0.4137830000000  0.5105660000000 1.0
C      1  0.5000680000000  0.5573320000000  0.4701460000000 1.0
C      1  0.5584880000000  0.5329650000000  0.4696240000000 1.0
C      1  0.4564070000000  0.5447580000000  0.4343390000000 1.0
C      1  0.4406800000000  0.4597730000000  0.4806570000000 1.0
C      1  0.5046760000000  0.4607740000000  0.5661900000000 1.0
C      1  0.5608960000000  0.5815010000000  0.4690080000000 1.0
C      1  0.4882250000000  0.5338150000000  0.3989830000000 1.0
C      1  0.4893340000000  0.4847100000000  0.5628610000000 1.0
C      1  0.5077720000000  0.5171430000000  0.5224460000000 1.0
C      1  0.4759080000000  0.5009540000000  0.4329450000000 1.0
C      1  0.5698100000000  0.5560970000000  0.5110360000000 1.0
C      1  0.5373840000000  0.4881640000000  0.5479800000000 1.0
C      1  0.4670620000000  0.5451540000000  0.5024310000000 1.0
C      1  0.4677100000000  0.4828820000000  0.5437730000000 1.0
C      1  0.5341310000000  0.5301440000000  0.4557650000000 1.0
C      1  0.5381060000000  0.5890770000000  0.4568660000000 1.0
C      1  0.5157080000000  0.4792220000000  0.4861550000000 1.0
END
