TITL C-599893-4344-246 -0.0167153975653657 125000 -976.318761355405 0 0 160 (C1) n - 1
REM
REM in /home/nfs/bkarasulu/CARBON/AIRSS/Generating-Clusters/TERSOFF/Only-C1/FIRE-HFTN
REM
REM
REM
REM
REM
REM ./C.cell (11c1c37f851c82e70ff6c80c92926a4b)
REM AIRSS Version 0.9.1 bugfix July 2018 build 013d7b7c2542+ Fri, 06 Jul 2018 19:26:36 +0100
REM compiler GCC version 9.2.1 20190827 (Red Hat 9.2.1-1)
REM options -cpp -mtune=generic -march=x86-64 -g -O0 -fpre-include=/usr/include/finclude/math-vector-fortran.h
REM seed 1362504573 374445660 1581537550 -1591752842 -1479686415 1518005126 1840042012 -1215448206 306315245 684241904 -1465022118 -1615738261 -2113022323 456044143 -938673730 387888865 886847599 925229624 -18994826 2022964821 -1089039761 1920675857 -1125640730 -1017496596 -2056892537 445156207 -114313257 -1831197249 -838277387 -309281434 -1435361572 -49651862 741120699
REM
CELL 1.54180   50.00000   50.00000   50.00000   90.00000   90.00000   90.00000
LATT -1
SFAC C  
C      1  0.3855860000000  0.4723010000000  0.4496010000000 1.0
C      1  0.4672340000000  0.4533570000000  0.5683870000000 1.0
C      1  0.5409110000000  0.5394470000000  0.4411800000000 1.0
C      1  0.4370550000000  0.4742580000000  0.5294370000000 1.0
C      1  0.5030860000000  0.5636620000000  0.6008580000000 1.0
C      1  0.4246540000000  0.5511760000000  0.4857930000000 1.0
C      1  0.4233920000000  0.5499960000000  0.4549920000000 1.0
C      1  0.5482040000000  0.4129920000000  0.5164150000000 1.0
C      1  0.4469160000000  0.5169930000000  0.5105600000000 1.0
C      1  0.6076750000000  0.4352910000000  0.5532320000000 1.0
C      1  0.4623960000000  0.4265920000000  0.5540580000000 1.0
C      1  0.4838580000000  0.4152510000000  0.4991430000000 1.0
C      1  0.4146160000000  0.4053920000000  0.4385060000000 1.0
C      1  0.4854460000000  0.4076470000000  0.5565000000000 1.0
C      1  0.5602130000000  0.4246730000000  0.4727690000000 1.0
C      1  0.4804340000000  0.4794450000000  0.5615810000000 1.0
C      1  0.4474010000000  0.5475600000000  0.5043250000000 1.0
C      1  0.4954580000000  0.5104200000000  0.3922930000000 1.0
C      1  0.4317820000000  0.5483910000000  0.5816560000000 1.0
C      1  0.5252430000000  0.5605450000000  0.3989780000000 1.0
C      1  0.6193770000000  0.5703130000000  0.5708090000000 1.0
C      1  0.5248760000000  0.3812150000000  0.4245380000000 1.0
C      1  0.4759520000000  0.4505030000000  0.5969400000000 1.0
C      1  0.4937200000000  0.5148070000000  0.5020800000000 1.0
C      1  0.6018920000000  0.5561580000000  0.4524090000000 1.0
C      1  0.6032900000000  0.5826430000000  0.4596290000000 1.0
C      1  0.5849640000000  0.5362980000000  0.4640260000000 1.0
C      1  0.4044920000000  0.5272890000000  0.4498570000000 1.0
C      1  0.4859570000000  0.4566440000000  0.5207650000000 1.0
C      1  0.5089250000000  0.4945320000000  0.4900600000000 1.0
C      1  0.3888980000000  0.5200880000000  0.5477890000000 1.0
C      1  0.4960650000000  0.4190850000000  0.4348830000000 1.0
C      1  0.4852810000000  0.5466530000000  0.6129920000000 1.0
C      1  0.4367250000000  0.5602070000000  0.4314760000000 1.0
C      1  0.4577230000000  0.5793900000000  0.4281090000000 1.0
C      1  0.5140140000000  0.5541420000000  0.4811350000000 1.0
C      1  0.5461530000000  0.4054780000000  0.4891570000000 1.0
C      1  0.5897810000000  0.5997690000000  0.4763900000000 1.0
C      1  0.4827770000000  0.4884230000000  0.3792860000000 1.0
C      1  0.4156340000000  0.5147350000000  0.5508630000000 1.0
C      1  0.5668350000000  0.4744790000000  0.3887830000000 1.0
C      1  0.5253330000000  0.5872430000000  0.4480580000000 1.0
C      1  0.4316390000000  0.5746250000000  0.5776470000000 1.0
C      1  0.4280890000000  0.5212510000000  0.5760010000000 1.0
C      1  0.3943500000000  0.5136840000000  0.4738350000000 1.0
C      1  0.3913020000000  0.4660070000000  0.4968370000000 1.0
C      1  0.5785800000000  0.4660740000000  0.5014930000000 1.0
C      1  0.3898900000000  0.4850690000000  0.4745740000000 1.0
C      1  0.5836890000000  0.5396000000000  0.5149370000000 1.0
C      1  0.5526210000000  0.4993680000000  0.4725130000000 1.0
C      1  0.5251160000000  0.4254980000000  0.5267740000000 1.0
C      1  0.4198270000000  0.4268650000000  0.5186580000000 1.0
C      1  0.5658540000000  0.5931830000000  0.4906060000000 1.0
C      1  0.5040030000000  0.5945680000000  0.4333590000000 1.0
C      1  0.4217750000000  0.4604590000000  0.5489640000000 1.0
C      1  0.5309500000000  0.5155820000000  0.6029520000000 1.0
C      1  0.4396480000000  0.4209500000000  0.5368620000000 1.0
C      1  0.5575500000000  0.5676030000000  0.4813960000000 1.0
C      1  0.5162850000000  0.5236370000000  0.4337450000000 1.0
C      1  0.5793460000000  0.5607090000000  0.5355060000000 1.0
C      1  0.4950390000000  0.3870570000000  0.5374590000000 1.0
C      1  0.5239210000000  0.3858910000000  0.4894750000000 1.0
C      1  0.5375970000000  0.4557770000000  0.5614480000000 1.0
C      1  0.4547440000000  0.3896430000000  0.4680100000000 1.0
C      1  0.4782270000000  0.5477900000000  0.4532150000000 1.0
C      1  0.5001320000000  0.4330170000000  0.5141900000000 1.0
C      1  0.4302370000000  0.5024580000000  0.5298630000000 1.0
C      1  0.5256820000000  0.4789860000000  0.4189400000000 1.0
C      1  0.5207590000000  0.4624670000000  0.5839550000000 1.0
C      1  0.5851550000000  0.4340020000000  0.5379470000000 1.0
C      1  0.5092430000000  0.3952360000000  0.4418460000000 1.0
C      1  0.5995690000000  0.5018870000000  0.5690410000000 1.0
C      1  0.4702560000000  0.4690830000000  0.3953800000000 1.0
C      1  0.5251510000000  0.5225100000000  0.6288780000000 1.0
C      1  0.3720250000000  0.4670990000000  0.5164030000000 1.0
C      1  0.4839100000000  0.4845080000000  0.3255250000000 1.0
C      1  0.4877080000000  0.6403400000000  0.5027430000000 1.0
C      1  0.4340240000000  0.5004630000000  0.5948800000000 1.0
C      1  0.5107130000000  0.5117630000000  0.5827950000000 1.0
C      1  0.5349800000000  0.5625920000000  0.4620590000000 1.0
C      1  0.4917490000000  0.5253960000000  0.4468040000000 1.0
C      1  0.4112010000000  0.4445580000000  0.4971390000000 1.0
C      1  0.5822910000000  0.4958410000000  0.3843870000000 1.0
C      1  0.5115050000000  0.3793010000000  0.5162510000000 1.0
C      1  0.6004280000000  0.5652390000000  0.5536540000000 1.0
C      1  0.4793950000000  0.3961260000000  0.4791390000000 1.0
C      1  0.4597260000000  0.4638560000000  0.5117980000000 1.0
C      1  0.4786060000000  0.5048410000000  0.5479440000000 1.0
C      1  0.4692890000000  0.4644780000000  0.6429250000000 1.0
C      1  0.5422420000000  0.5172710000000  0.5400460000000 1.0
C      1  0.4010780000000  0.5339480000000  0.4937420000000 1.0
C      1  0.5239870000000  0.6057370000000  0.5146930000000 1.0
C      1  0.4344750000000  0.6189920000000  0.5495660000000 1.0
C      1  0.5042930000000  0.4843700000000  0.5786220000000 1.0
C      1  0.5725920000000  0.4570100000000  0.5273140000000 1.0
C      1  0.5422890000000  0.4937530000000  0.5252460000000 1.0
C      1  0.6053520000000  0.5062610000000  0.5434080000000 1.0
C      1  0.5815350000000  0.3851330000000  0.5384990000000 1.0
C      1  0.4794200000000  0.4412440000000  0.4395570000000 1.0
C      1  0.5574110000000  0.5067670000000  0.5985250000000 1.0
C      1  0.4744020000000  0.5578820000000  0.5102400000000 1.0
C      1  0.5616640000000  0.5212670000000  0.4552980000000 1.0
C      1  0.4119870000000  0.4612090000000  0.5738840000000 1.0
C      1  0.5721250000000  0.4096690000000  0.5312450000000 1.0
C      1  0.4832320000000  0.4860820000000  0.3515280000000 1.0
C      1  0.5032780000000  0.4400210000000  0.5931000000000 1.0
C      1  0.5963580000000  0.4903590000000  0.4981970000000 1.0
C      1  0.5839400000000  0.5220420000000  0.3893040000000 1.0
C      1  0.5272880000000  0.4299560000000  0.5542600000000 1.0
C      1  0.4168250000000  0.4780620000000  0.5942230000000 1.0
C      1  0.4449630000000  0.6346330000000  0.5308350000000 1.0
C      1  0.4933670000000  0.5525610000000  0.5567470000000 1.0
C      1  0.4587700000000  0.4982850000000  0.6094400000000 1.0
C      1  0.4346490000000  0.5442250000000  0.4078740000000 1.0
C      1  0.4425620000000  0.5050830000000  0.4832750000000 1.0
C      1  0.5068820000000  0.4199120000000  0.5718530000000 1.0
C      1  0.4533930000000  0.4996600000000  0.4595690000000 1.0
C      1  0.4311320000000  0.5985520000000  0.5661720000000 1.0
C      1  0.4804350000000  0.5005180000000  0.4526360000000 1.0
C      1  0.4680810000000  0.4710560000000  0.6161470000000 1.0
C      1  0.5125790000000  0.5670730000000  0.5741130000000 1.0
C      1  0.5097860000000  0.5881660000000  0.5326410000000 1.0
C      1  0.4966120000000  0.5604450000000  0.4001660000000 1.0
C      1  0.4991410000000  0.4792010000000  0.4642850000000 1.0
C      1  0.5968810000000  0.4628660000000  0.4585100000000 1.0
C      1  0.4721160000000  0.5229610000000  0.6159380000000 1.0
C      1  0.5751970000000  0.5466610000000  0.4891340000000 1.0
C      1  0.4871410000000  0.5692610000000  0.5333380000000 1.0
C      1  0.5497030000000  0.4728910000000  0.4608090000000 1.0
C      1  0.4680560000000  0.4535530000000  0.4169100000000 1.0
C      1  0.5816550000000  0.5018920000000  0.5887340000000 1.0
C      1  0.5304100000000  0.5793700000000  0.5537940000000 1.0
C      1  0.4846830000000  0.5803020000000  0.4181990000000 1.0
C      1  0.4544690000000  0.5369510000000  0.3911350000000 1.0
C      1  0.5243560000000  0.4718420000000  0.4469430000000 1.0
C      1  0.5480150000000  0.5509300000000  0.4135420000000 1.0
C      1  0.4947440000000  0.5424110000000  0.4964500000000 1.0
C      1  0.5366090000000  0.4965250000000  0.4969290000000 1.0
C      1  0.4571290000000  0.4562270000000  0.4835440000000 1.0
C      1  0.5521720000000  0.5986560000000  0.5148980000000 1.0
C      1  0.4313200000000  0.4471820000000  0.4772390000000 1.0
C      1  0.5107180000000  0.6268970000000  0.5026030000000 1.0
C      1  0.5504690000000  0.4699870000000  0.5397660000000 1.0
C      1  0.5444730000000  0.4674190000000  0.4016590000000 1.0
C      1  0.5563690000000  0.5793490000000  0.5376010000000 1.0
C      1  0.5714410000000  0.5427920000000  0.4005120000000 1.0
C      1  0.6090230000000  0.4840950000000  0.4725460000000 1.0
C      1  0.5960720000000  0.5127050000000  0.5174380000000 1.0
C      1  0.5497730000000  0.5335750000000  0.5587270000000 1.0
C      1  0.5152330000000  0.5047600000000  0.4122800000000 1.0
C      1  0.4635350000000  0.6427460000000  0.5136280000000 1.0
C      1  0.4827400000000  0.5364480000000  0.3918290000000 1.0
C      1  0.5044710000000  0.3872240000000  0.4685130000000 1.0
C      1  0.5707000000000  0.4535190000000  0.4724420000000 1.0
C      1  0.3890510000000  0.4503610000000  0.4348390000000 1.0
C      1  0.4793720000000  0.4556760000000  0.4647700000000 1.0
C      1  0.4931800000000  0.5250470000000  0.5627370000000 1.0
C      1  0.4739340000000  0.5094380000000  0.5208640000000 1.0
C      1  0.4333960000000  0.3926680000000  0.4524270000000 1.0
C      1  0.3992670000000  0.4259850000000  0.4314770000000 1.0
END
