TITL C-599893-4344-614 161159.94093699 125000 -691.311630350044 0 0 116 (C1) n - 1
REM
REM in /home/nfs/bkarasulu/CARBON/AIRSS/Generating-Clusters/TERSOFF/Only-C1/FIRE-HFTN
REM
REM
REM
REM
REM
REM ./C.cell (11c1c37f851c82e70ff6c80c92926a4b)
REM AIRSS Version 0.9.1 bugfix July 2018 build 013d7b7c2542+ Fri, 06 Jul 2018 19:26:36 +0100
REM compiler GCC version 9.2.1 20190827 (Red Hat 9.2.1-1)
REM options -cpp -mtune=generic -march=x86-64 -g -O0 -fpre-include=/usr/include/finclude/math-vector-fortran.h
REM seed 935654823 732862919 1357564611 -353252562 1056048178 66992957 -507691037 1262228801 121989680 -209781668 198233668 254237306 1197249388 -1977998557 1978749186 1491617788 -1660943750 -850840924 1854235987 -1376149264 -2059155032 1319553201 742379968 898513441 -151850792 1996105676 -1446845947 -1753979311 -1476563012 -22631273 519185428 1569481519 2091757456
REM
CELL 1.54180   50.00000   50.00000   50.00000   90.00000   90.00000   90.00000
LATT -1
SFAC C  
C      1  0.4531660000000  0.5898460000000  0.5262220000000 1.0
C      1  0.4959150000000  0.5325840000000  0.3208830000000 1.0
C      1  0.4074010000000  0.5682540000000  0.5928460000000 1.0
C      1  0.4382060000000  0.4850380000000  0.5281050000000 1.0
C      1  0.4741920000000  0.5704310000000  0.5302990000000 1.0
C      1  0.4377180000000  0.4389610000000  0.5408630000000 1.0
C      1  0.5004330000000  0.5798660000000  0.5242480000000 1.0
C      1  0.3915150000000  0.5518470000000  0.5441540000000 1.0
C      1  0.6186740000000  0.5533130000000  0.5391660000000 1.0
C      1  0.4460060000000  0.6084840000000  0.4822420000000 1.0
C      1  0.5825380000000  0.4550980000000  0.5115220000000 1.0
C      1  0.4886200000000  0.5221650000000  0.5376810000000 1.0
C      1  0.5342510000000  0.4177950000000  0.4869560000000 1.0
C      1  0.4432810000000  0.5321600000000  0.5223630000000 1.0
C      1  0.4781580000000  0.4237100000000  0.5128550000000 1.0
C      1  0.4584730000000  0.5098040000000  0.4330260000000 1.0
C      1  0.5423660000000  0.4935600000000  0.4292260000000 1.0
C      1  0.4636560000000  0.4839390000000  0.5184090000000 1.0
C      1  0.5987120000000  0.5372410000000  0.4451630000000 1.0
C      1  0.5417280000000  0.4823740000000  0.5106090000000 1.0
C      1  0.4118030000000  0.5846750000000  0.5714190000000 1.0
C      1  0.5683070000000  0.5520750000000  0.4864490000000 1.0
C      1  0.4687870000000  0.5420100000000  0.5320920000000 1.0
C      1  0.4630850000000  0.5222220000000  0.3603280000000 1.0
C      1  0.4347410000000  0.5413710000000  0.4965190000000 1.0
C      1  0.5266570000000  0.4367970000000  0.5303140000000 1.0
C      1  0.4079990000000  0.5752990000000  0.5446840000000 1.0
C      1  0.4680120000000  0.4395510000000  0.4673220000000 1.0
C      1  0.4260600000000  0.4644170000000  0.5439970000000 1.0
C      1  0.5305880000000  0.4696480000000  0.4385550000000 1.0
C      1  0.4883390000000  0.4348300000000  0.4863210000000 1.0
C      1  0.4223410000000  0.4165750000000  0.5332140000000 1.0
C      1  0.4888970000000  0.5193880000000  0.4693820000000 1.0
C      1  0.5135950000000  0.4551950000000  0.4217570000000 1.0
C      1  0.5688840000000  0.4941970000000  0.5746880000000 1.0
C      1  0.5985710000000  0.4686610000000  0.4605310000000 1.0
C      1  0.4888640000000  0.4572210000000  0.5840260000000 1.0
C      1  0.4295090000000  0.5873110000000  0.4767190000000 1.0
C      1  0.4266140000000  0.3944260000000  0.5185470000000 1.0
C      1  0.3990810000000  0.5423590000000  0.5899080000000 1.0
C      1  0.4224780000000  0.4620160000000  0.4575770000000 1.0
C      1  0.5679460000000  0.5032480000000  0.4823220000000 1.0
C      1  0.3952650000000  0.5312550000000  0.5638850000000 1.0
C      1  0.5766840000000  0.4943350000000  0.5468710000000 1.0
C      1  0.4691200000000  0.4718540000000  0.4052860000000 1.0
C      1  0.4776090000000  0.5282230000000  0.3389310000000 1.0
C      1  0.5518550000000  0.5544250000000  0.6035380000000 1.0
C      1  0.5253560000000  0.6128360000000  0.5589720000000 1.0
C      1  0.5800650000000  0.5207930000000  0.5362810000000 1.0
C      1  0.5303900000000  0.5408970000000  0.5610920000000 1.0
C      1  0.4496710000000  0.3846070000000  0.5085200000000 1.0
C      1  0.5328680000000  0.4626260000000  0.4663110000000 1.0
C      1  0.5484270000000  0.5063270000000  0.5916360000000 1.0
C      1  0.5860860000000  0.5140090000000  0.4338930000000 1.0
C      1  0.4980420000000  0.3880220000000  0.5574720000000 1.0
C      1  0.5936890000000  0.5464740000000  0.5310670000000 1.0
C      1  0.5474730000000  0.5587560000000  0.4656350000000 1.0
C      1  0.5031990000000  0.5425270000000  0.4607530000000 1.0
C      1  0.5036590000000  0.4978240000000  0.4820470000000 1.0
C      1  0.4597920000000  0.4981690000000  0.4076210000000 1.0
C      1  0.4111230000000  0.4858650000000  0.4599780000000 1.0
C      1  0.4437220000000  0.4462230000000  0.4591090000000 1.0
C      1  0.5044420000000  0.5503280000000  0.4104280000000 1.0
C      1  0.5575150000000  0.3990490000000  0.4489580000000 1.0
C      1  0.5135570000000  0.5968440000000  0.5421110000000 1.0
C      1  0.3701270000000  0.5452550000000  0.4546780000000 1.0
C      1  0.5051750000000  0.4731700000000  0.5996630000000 1.0
C      1  0.5307740000000  0.3707130000000  0.4770690000000 1.0
C      1  0.4960700000000  0.5644280000000  0.3901540000000 1.0
C      1  0.5269830000000  0.4899140000000  0.6037000000000 1.0
C      1  0.5960710000000  0.4877430000000  0.4411040000000 1.0
C      1  0.4899210000000  0.4558420000000  0.4096310000000 1.0
C      1  0.5108110000000  0.4840190000000  0.5099390000000 1.0
C      1  0.4262620000000  0.5795020000000  0.5238780000000 1.0
C      1  0.5941110000000  0.5403570000000  0.4732360000000 1.0
C      1  0.5444310000000  0.4227800000000  0.5129510000000 1.0
C      1  0.5441950000000  0.5488160000000  0.5370710000000 1.0
C      1  0.4819100000000  0.4361660000000  0.5650970000000 1.0
C      1  0.5100120000000  0.5214750000000  0.5557960000000 1.0
C      1  0.4561990000000  0.5130550000000  0.3842490000000 1.0
C      1  0.5157580000000  0.5427830000000  0.4344700000000 1.0
C      1  0.5749420000000  0.5629870000000  0.5163750000000 1.0
C      1  0.5497970000000  0.4809200000000  0.4823510000000 1.0
C      1  0.5535290000000  0.5261240000000  0.5238880000000 1.0
C      1  0.5446010000000  0.5417270000000  0.4402230000000 1.0
C      1  0.5186180000000  0.4946400000000  0.5601010000000 1.0
C      1  0.4372450000000  0.5246300000000  0.4738170000000 1.0
C      1  0.4576950000000  0.6107310000000  0.5069550000000 1.0
C      1  0.5438650000000  0.5348770000000  0.5861930000000 1.0
C      1  0.5960470000000  0.5124470000000  0.4837140000000 1.0
C      1  0.5719200000000  0.4289880000000  0.5156760000000 1.0
C      1  0.5351190000000  0.4453220000000  0.5556190000000 1.0
C      1  0.5305300000000  0.4707960000000  0.5624970000000 1.0
C      1  0.4243830000000  0.5679110000000  0.4970100000000 1.0
C      1  0.5115010000000  0.5739550000000  0.4991790000000 1.0
C      1  0.5552450000000  0.5255210000000  0.4959160000000 1.0
C      1  0.4669780000000  0.4361210000000  0.5391080000000 1.0
C      1  0.4875980000000  0.4967760000000  0.5244590000000 1.0
C      1  0.5170260000000  0.4391040000000  0.4775780000000 1.0
C      1  0.4924450000000  0.3811750000000  0.5320080000000 1.0
C      1  0.5671800000000  0.4759740000000  0.5258780000000 1.0
C      1  0.5198450000000  0.5604530000000  0.4764330000000 1.0
C      1  0.4286870000000  0.5111700000000  0.5345580000000 1.0
C      1  0.5721340000000  0.4054380000000  0.4283470000000 1.0
C      1  0.4070560000000  0.4794090000000  0.5601580000000 1.0
C      1  0.3909900000000  0.5299460000000  0.4579130000000 1.0
C      1  0.5955930000000  0.4593460000000  0.4860430000000 1.0
C      1  0.6189700000000  0.5034680000000  0.4953260000000 1.0
C      1  0.5576030000000  0.5172680000000  0.4316970000000 1.0
C      1  0.4756420000000  0.3944890000000  0.5136590000000 1.0
C      1  0.5407730000000  0.3954490000000  0.4710770000000 1.0
C      1  0.4079880000000  0.5080470000000  0.5549010000000 1.0
C      1  0.5071080000000  0.4551240000000  0.5194990000000 1.0
C      1  0.4616050000000  0.5175680000000  0.4600660000000 1.0
C      1  0.4924410000000  0.4103590000000  0.5713870000000 1.0
C      1  0.4127200000000  0.5134900000000  0.4638030000000 1.0
END
