TITL C-599892-9790-865 726071.108024506 125000 -1071.69654070406 0 0 180 (C1) n - 1
REM
REM in /home/nfs/bkarasulu/CARBON/AIRSS/Generating-Clusters/TERSOFF/Only-C1/FIRE-HFTN
REM
REM
REM
REM
REM
REM ./C.cell (11c1c37f851c82e70ff6c80c92926a4b)
REM AIRSS Version 0.9.1 bugfix July 2018 build 013d7b7c2542+ Fri, 06 Jul 2018 19:26:36 +0100
REM compiler GCC version 9.2.1 20190827 (Red Hat 9.2.1-1)
REM options -cpp -mtune=generic -march=x86-64 -g -O0 -fpre-include=/usr/include/finclude/math-vector-fortran.h
REM seed 929567973 86671327 -426141040 -1087611273 -328119288 -1379169975 409161902 891413885 1689077777 619775287 1313019884 438019191 -1051809544 483240118 974288434 -51567627 874991358 1162142365 -602838202 1969811918 726116391 2033504050 -238253467 1288199459 -1851882857 49312862 1845287673 1070812614 1308261927 900507961 1325969779 -1219437884 -1005912002
REM
CELL 1.54180   50.00000   50.00000   50.00000   90.00000   90.00000   90.00000
LATT -1
SFAC C  
C      1  0.4739040000000  0.4329980000000  0.4381910000000 1.0
C      1  0.4131320000000  0.4288370000000  0.5413650000000 1.0
C      1  0.4652400000000  0.5297720000000  0.4722880000000 1.0
C      1  0.5131820000000  0.4208110000000  0.5316990000000 1.0
C      1  0.4992960000000  0.5943070000000  0.5581380000000 1.0
C      1  0.4973520000000  0.4764160000000  0.4705010000000 1.0
C      1  0.5112110000000  0.5640730000000  0.5176780000000 1.0
C      1  0.5443620000000  0.5481570000000  0.4698880000000 1.0
C      1  0.4009190000000  0.4681970000000  0.4516110000000 1.0
C      1  0.4925070000000  0.4185870000000  0.4567910000000 1.0
C      1  0.5278210000000  0.5696740000000  0.5971130000000 1.0
C      1  0.5813900000000  0.5427190000000  0.5015920000000 1.0
C      1  0.4304900000000  0.5908240000000  0.5277080000000 1.0
C      1  0.4861440000000  0.4956770000000  0.5503380000000 1.0
C      1  0.4408440000000  0.4965660000000  0.4961500000000 1.0
C      1  0.6029600000000  0.4348150000000  0.4552870000000 1.0
C      1  0.5643940000000  0.4934390000000  0.5228880000000 1.0
C      1  0.5896070000000  0.5299820000000  0.4752850000000 1.0
C      1  0.5055620000000  0.5571200000000  0.4521690000000 1.0
C      1  0.5161460000000  0.5131800000000  0.4864180000000 1.0
C      1  0.5238210000000  0.4744360000000  0.4329250000000 1.0
C      1  0.5942230000000  0.5888720000000  0.5063130000000 1.0
C      1  0.6015290000000  0.5629300000000  0.5122520000000 1.0
C      1  0.4465410000000  0.3965240000000  0.5192970000000 1.0
C      1  0.4089940000000  0.5810520000000  0.5085160000000 1.0
C      1  0.3956560000000  0.5371770000000  0.4849540000000 1.0
C      1  0.4445280000000  0.4409740000000  0.5042750000000 1.0
C      1  0.5128560000000  0.4540460000000  0.4156710000000 1.0
C      1  0.4936410000000  0.6125630000000  0.5337660000000 1.0
C      1  0.5565130000000  0.5620470000000  0.4939210000000 1.0
C      1  0.4825940000000  0.4417540000000  0.5651840000000 1.0
C      1  0.4895390000000  0.6053270000000  0.5060400000000 1.0
C      1  0.4776250000000  0.5686490000000  0.5930760000000 1.0
C      1  0.4913530000000  0.5279550000000  0.4852070000000 1.0
C      1  0.5006950000000  0.5267980000000  0.6084940000000 1.0
C      1  0.5219640000000  0.5194360000000  0.5897290000000 1.0
C      1  0.4741380000000  0.3495110000000  0.5229280000000 1.0
C      1  0.4928680000000  0.4782110000000  0.5939470000000 1.0
C      1  0.4904530000000  0.5449750000000  0.5077920000000 1.0
C      1  0.5263640000000  0.5911010000000  0.5757300000000 1.0
C      1  0.4931520000000  0.5433740000000  0.5593770000000 1.0
C      1  0.4879920000000  0.5009980000000  0.6115460000000 1.0
C      1  0.5432500000000  0.5607120000000  0.3409180000000 1.0
C      1  0.4842570000000  0.4908210000000  0.4503240000000 1.0
C      1  0.4385340000000  0.4011800000000  0.4859190000000 1.0
C      1  0.5947300000000  0.4511030000000  0.5055420000000 1.0
C      1  0.4632140000000  0.5509270000000  0.5164440000000 1.0
C      1  0.4494360000000  0.4696910000000  0.5488760000000 1.0
C      1  0.4667450000000  0.5978330000000  0.4892630000000 1.0
C      1  0.5867830000000  0.5332500000000  0.4251340000000 1.0
C      1  0.4263560000000  0.5667350000000  0.5688970000000 1.0
C      1  0.4327690000000  0.5220210000000  0.4248000000000 1.0
C      1  0.3942510000000  0.4446780000000  0.4668010000000 1.0
C      1  0.4432080000000  0.5400120000000  0.5773300000000 1.0
C      1  0.4513690000000  0.5269330000000  0.5288400000000 1.0
C      1  0.4812860000000  0.5337430000000  0.3910400000000 1.0
C      1  0.4562110000000  0.5713030000000  0.4959630000000 1.0
C      1  0.5272590000000  0.5178670000000  0.5388470000000 1.0
C      1  0.4752590000000  0.4552060000000  0.5905850000000 1.0
C      1  0.5701690000000  0.4434830000000  0.5187430000000 1.0
C      1  0.4891430000000  0.5204230000000  0.4147100000000 1.0
C      1  0.5417700000000  0.4102600000000  0.4696750000000 1.0
C      1  0.5699970000000  0.5217110000000  0.5207860000000 1.0
C      1  0.5147140000000  0.5250680000000  0.5628780000000 1.0
C      1  0.5089330000000  0.5719290000000  0.4023650000000 1.0
C      1  0.5730090000000  0.5751380000000  0.5623830000000 1.0
C      1  0.5088700000000  0.5859540000000  0.4972970000000 1.0
C      1  0.5206010000000  0.5044220000000  0.5138320000000 1.0
C      1  0.5099150000000  0.5762470000000  0.4707470000000 1.0
C      1  0.4685090000000  0.4729850000000  0.4100320000000 1.0
C      1  0.5520660000000  0.3984340000000  0.4935100000000 1.0
C      1  0.5482650000000  0.3719360000000  0.5026150000000 1.0
C      1  0.5346080000000  0.5584790000000  0.3943810000000 1.0
C      1  0.4395640000000  0.4753180000000  0.4098100000000 1.0
C      1  0.5915450000000  0.4426370000000  0.4074670000000 1.0
C      1  0.5820030000000  0.5048460000000  0.4235330000000 1.0
C      1  0.5334160000000  0.3625420000000  0.5510720000000 1.0
C      1  0.5530930000000  0.5519380000000  0.5972400000000 1.0
C      1  0.5267430000000  0.4079700000000  0.4239160000000 1.0
C      1  0.4660280000000  0.4876460000000  0.5074100000000 1.0
C      1  0.4214940000000  0.4457700000000  0.5873470000000 1.0
C      1  0.6065710000000  0.4866240000000  0.5388140000000 1.0
C      1  0.5330550000000  0.4249330000000  0.5863360000000 1.0
C      1  0.4762420000000  0.5231750000000  0.3666420000000 1.0
C      1  0.4417770000000  0.5863280000000  0.5552290000000 1.0
C      1  0.4574200000000  0.4270120000000  0.5258650000000 1.0
C      1  0.5007770000000  0.5371680000000  0.4348350000000 1.0
C      1  0.4674670000000  0.4454360000000  0.4879780000000 1.0
C      1  0.5950200000000  0.4511820000000  0.4330400000000 1.0
C      1  0.5777830000000  0.5746600000000  0.4465110000000 1.0
C      1  0.5698940000000  0.4811080000000  0.4636660000000 1.0
C      1  0.4150570000000  0.5244430000000  0.5733770000000 1.0
C      1  0.5534210000000  0.4449770000000  0.5825760000000 1.0
C      1  0.4289780000000  0.5603330000000  0.4572050000000 1.0
C      1  0.4778630000000  0.5918390000000  0.4344050000000 1.0
C      1  0.4458830000000  0.5089540000000  0.4716240000000 1.0
C      1  0.5273020000000  0.4306510000000  0.4090500000000 1.0
C      1  0.5007960000000  0.5669470000000  0.5449560000000 1.0
C      1  0.4071210000000  0.4495480000000  0.5612780000000 1.0
C      1  0.5227010000000  0.4678520000000  0.4616230000000 1.0
C      1  0.5914980000000  0.4798820000000  0.4418430000000 1.0
C      1  0.5395250000000  0.5576540000000  0.5178460000000 1.0
C      1  0.5550250000000  0.4346130000000  0.4653500000000 1.0
C      1  0.4344160000000  0.5022140000000  0.4478610000000 1.0
C      1  0.4465170000000  0.4381870000000  0.4467990000000 1.0
C      1  0.4322110000000  0.4166330000000  0.4616540000000 1.0
C      1  0.4619030000000  0.3725110000000  0.5225260000000 1.0
C      1  0.6176140000000  0.4913940000000  0.4871880000000 1.0
C      1  0.5247090000000  0.3777240000000  0.5714120000000 1.0
C      1  0.3824920000000  0.5608630000000  0.5467070000000 1.0
C      1  0.6169750000000  0.5197550000000  0.4834990000000 1.0
C      1  0.5123030000000  0.4019300000000  0.5814360000000 1.0
C      1  0.5223670000000  0.4648680000000  0.5507590000000 1.0
C      1  0.3853950000000  0.5750190000000  0.5237020000000 1.0
C      1  0.3954890000000  0.4456310000000  0.4951400000000 1.0
C      1  0.5576030000000  0.5917590000000  0.4400490000000 1.0
C      1  0.5464130000000  0.5246540000000  0.6017350000000 1.0
C      1  0.5846940000000  0.5215850000000  0.5708260000000 1.0
C      1  0.4293410000000  0.4706240000000  0.4391870000000 1.0
C      1  0.4302940000000  0.4027250000000  0.5493340000000 1.0
C      1  0.5689750000000  0.4677660000000  0.5670840000000 1.0
C      1  0.4618330000000  0.5698180000000  0.4191290000000 1.0
C      1  0.5883880000000  0.5479100000000  0.4488940000000 1.0
C      1  0.5049210000000  0.4824160000000  0.5667190000000 1.0
C      1  0.4815590000000  0.5613220000000  0.3978280000000 1.0
C      1  0.5014870000000  0.5577820000000  0.6067520000000 1.0
C      1  0.5324150000000  0.5999930000000  0.4338330000000 1.0
C      1  0.5069690000000  0.4409350000000  0.5499980000000 1.0
C      1  0.5540200000000  0.5418860000000  0.4084590000000 1.0
C      1  0.5393400000000  0.4116850000000  0.5347900000000 1.0
C      1  0.5413790000000  0.3596760000000  0.5255890000000 1.0
C      1  0.4704660000000  0.5043920000000  0.5298530000000 1.0
C      1  0.4719020000000  0.5906020000000  0.5734040000000 1.0
C      1  0.4459810000000  0.4609100000000  0.5927430000000 1.0
C      1  0.4692050000000  0.6024680000000  0.4601730000000 1.0
C      1  0.4042180000000  0.4201190000000  0.4569050000000 1.0
C      1  0.5585680000000  0.4176870000000  0.5150890000000 1.0
C      1  0.6398090000000  0.5356510000000  0.4845610000000 1.0
C      1  0.5692330000000  0.5894720000000  0.4945690000000 1.0
C      1  0.5542290000000  0.4668350000000  0.5381400000000 1.0
C      1  0.5522890000000  0.5932870000000  0.5629200000000 1.0
C      1  0.3820050000000  0.4952710000000  0.5061750000000 1.0
C      1  0.4419120000000  0.4830990000000  0.5734910000000 1.0
C      1  0.6166480000000  0.4823560000000  0.4597130000000 1.0
C      1  0.4307260000000  0.5029900000000  0.4025380000000 1.0
C      1  0.4816920000000  0.4000890000000  0.5795320000000 1.0
C      1  0.5404750000000  0.5616840000000  0.3668200000000 1.0
C      1  0.5534890000000  0.5072230000000  0.4151480000000 1.0
C      1  0.4616760000000  0.4443310000000  0.5468580000000 1.0
C      1  0.4068810000000  0.5627530000000  0.4762170000000 1.0
C      1  0.4840130000000  0.4499530000000  0.4169550000000 1.0
C      1  0.4163260000000  0.4393680000000  0.5130990000000 1.0
C      1  0.4861630000000  0.4238320000000  0.4841000000000 1.0
C      1  0.6619440000000  0.5491220000000  0.4873850000000 1.0
C      1  0.4169720000000  0.4968210000000  0.5710950000000 1.0
C      1  0.5343930000000  0.5007700000000  0.4334650000000 1.0
C      1  0.4548880000000  0.3989420000000  0.5702560000000 1.0
C      1  0.5887160000000  0.4918610000000  0.5626370000000 1.0
C      1  0.5067780000000  0.5924840000000  0.4234080000000 1.0
C      1  0.5387860000000  0.5181820000000  0.4657650000000 1.0
C      1  0.5480400000000  0.5355830000000  0.5326060000000 1.0
C      1  0.5496360000000  0.4615560000000  0.4679560000000 1.0
C      1  0.4027190000000  0.4915210000000  0.5264580000000 1.0
C      1  0.5664640000000  0.5078800000000  0.4720060000000 1.0
C      1  0.5002160000000  0.4158630000000  0.5071680000000 1.0
C      1  0.3843070000000  0.5100650000000  0.4808060000000 1.0
C      1  0.4026640000000  0.4787880000000  0.5526480000000 1.0
C      1  0.6032020000000  0.4364990000000  0.4823840000000 1.0
C      1  0.3873590000000  0.4928360000000  0.4583100000000 1.0
C      1  0.5191140000000  0.4072700000000  0.4514030000000 1.0
C      1  0.4525130000000  0.5553760000000  0.4727210000000 1.0
C      1  0.4008020000000  0.5504330000000  0.5651490000000 1.0
C      1  0.4380900000000  0.5518910000000  0.4298230000000 1.0
C      1  0.4258380000000  0.5115900000000  0.5182360000000 1.0
C      1  0.5743630000000  0.5501020000000  0.5765560000000 1.0
C      1  0.4802620000000  0.4699700000000  0.4914140000000 1.0
C      1  0.4803940000000  0.4955800000000  0.4230570000000 1.0
C      1  0.6085190000000  0.4765840000000  0.5111200000000 1.0
C      1  0.4701170000000  0.5451530000000  0.5766640000000 1.0
C      1  0.4089380000000  0.5343150000000  0.5102570000000 1.0
END
