TITL C-599895-9959-1473 -0.000699722398124936 125000 -431.03415532035 0 0 72 (C1) n - 1
REM
REM in /home/nfs/bkarasulu/CARBON/AIRSS/Generating-Clusters/TERSOFF/Only-C1/FIRE-HFTN
REM
REM
REM
REM
REM
REM ./C.cell (11c1c37f851c82e70ff6c80c92926a4b)
REM AIRSS Version 0.9.1 bugfix July 2018 build 013d7b7c2542+ Fri, 06 Jul 2018 19:26:36 +0100
REM compiler GCC version 9.2.1 20190827 (Red Hat 9.2.1-1)
REM options -cpp -mtune=generic -march=x86-64 -g -O0 -fpre-include=/usr/include/finclude/math-vector-fortran.h
REM seed 875125250 -204869279 1307434936 -1505543068 34093541 -270828503 125723090 -504674659 2117678731 -1952216337 1069801062 -1731685076 -7228675 1463681109 1522339182 -224940509 1984104862 1966418159 861405436 966422903 -2111923132 -539568750 -1639828019 -219699560 -540493262 1663064197 1612777105 -227631616 -1343430786 -997017595 185134580 578033719 1440255718
REM
CELL 1.54180   50.00000   50.00000   50.00000   90.00000   90.00000   90.00000
LATT -1
SFAC C  
C      1  0.5397390000000  0.4274620000000  0.4847020000000 1.0
C      1  0.4598770000000  0.5062410000000  0.5485740000000 1.0
C      1  0.4706390000000  0.5563340000000  0.5338590000000 1.0
C      1  0.5629680000000  0.4415240000000  0.4350220000000 1.0
C      1  0.5686930000000  0.4581790000000  0.4580420000000 1.0
C      1  0.4692390000000  0.4882940000000  0.4749940000000 1.0
C      1  0.4778880000000  0.4899470000000  0.5316290000000 1.0
C      1  0.5376010000000  0.4727950000000  0.4967480000000 1.0
C      1  0.4781210000000  0.6063270000000  0.4753110000000 1.0
C      1  0.5816090000000  0.5618240000000  0.5013160000000 1.0
C      1  0.4978170000000  0.4263240000000  0.4622940000000 1.0
C      1  0.4590640000000  0.5484140000000  0.4640700000000 1.0
C      1  0.4923270000000  0.5991800000000  0.5313040000000 1.0
C      1  0.4379760000000  0.4635830000000  0.5558210000000 1.0
C      1  0.5224690000000  0.6141300000000  0.4938400000000 1.0
C      1  0.5093120000000  0.6176320000000  0.5187000000000 1.0
C      1  0.4522630000000  0.4404770000000  0.5962050000000 1.0
C      1  0.4242190000000  0.4565210000000  0.5322920000000 1.0
C      1  0.4499930000000  0.4246670000000  0.4741850000000 1.0
C      1  0.5932700000000  0.4913840000000  0.4867980000000 1.0
C      1  0.4767760000000  0.4168140000000  0.4793490000000 1.0
C      1  0.4698540000000  0.5832050000000  0.5184950000000 1.0
C      1  0.4240640000000  0.5228770000000  0.4997180000000 1.0
C      1  0.4089770000000  0.5435570000000  0.4908210000000 1.0
C      1  0.4193460000000  0.4606880000000  0.4618140000000 1.0
C      1  0.4989320000000  0.5541390000000  0.5422920000000 1.0
C      1  0.5666610000000  0.5834000000000  0.4962860000000 1.0
C      1  0.5910780000000  0.4755440000000  0.4631330000000 1.0
C      1  0.5855370000000  0.5091090000000  0.5078160000000 1.0
C      1  0.5400120000000  0.5001440000000  0.5031500000000 1.0
C      1  0.6118950000000  0.4770480000000  0.4444930000000 1.0
C      1  0.5521500000000  0.4899340000000  0.5470630000000 1.0
C      1  0.4617920000000  0.5887760000000  0.4905490000000 1.0
C      1  0.4900150000000  0.4795930000000  0.4570220000000 1.0
C      1  0.5745110000000  0.4987800000000  0.5952000000000 1.0
C      1  0.4969520000000  0.4991460000000  0.4373140000000 1.0
C      1  0.5314760000000  0.4562110000000  0.5205720000000 1.0
C      1  0.5636710000000  0.4942740000000  0.5719350000000 1.0
C      1  0.5500670000000  0.4546770000000  0.4788090000000 1.0
C      1  0.5038670000000  0.6138150000000  0.4726300000000 1.0
C      1  0.4177670000000  0.5668350000000  0.4800360000000 1.0
C      1  0.4704360000000  0.5378090000000  0.4880940000000 1.0
C      1  0.5254700000000  0.4183910000000  0.4618990000000 1.0
C      1  0.4530770000000  0.5212640000000  0.5061340000000 1.0
C      1  0.4411950000000  0.4910890000000  0.5636150000000 1.0
C      1  0.4287990000000  0.4420990000000  0.4807680000000 1.0
C      1  0.4681180000000  0.4938370000000  0.5036660000000 1.0
C      1  0.5015280000000  0.4818570000000  0.5447040000000 1.0
C      1  0.4674270000000  0.4248920000000  0.5531340000000 1.0
C      1  0.5330440000000  0.4290540000000  0.5125080000000 1.0
C      1  0.4527150000000  0.4429020000000  0.5689760000000 1.0
C      1  0.4772050000000  0.4124990000000  0.5316960000000 1.0
C      1  0.5901960000000  0.5368770000000  0.5057780000000 1.0
C      1  0.4268890000000  0.5019390000000  0.5841790000000 1.0
C      1  0.5761290000000  0.4438350000000  0.4112070000000 1.0
C      1  0.4938820000000  0.4524670000000  0.4525800000000 1.0
C      1  0.4578520000000  0.5261860000000  0.4459240000000 1.0
C      1  0.5223790000000  0.5214920000000  0.5064440000000 1.0
C      1  0.5057730000000  0.5808700000000  0.5491260000000 1.0
C      1  0.5621510000000  0.5014620000000  0.5222690000000 1.0
C      1  0.4816300000000  0.4083230000000  0.5057180000000 1.0
C      1  0.4256760000000  0.4854090000000  0.4534080000000 1.0
C      1  0.4569380000000  0.5314310000000  0.5343280000000 1.0
C      1  0.6321570000000  0.4793700000000  0.4282640000000 1.0
C      1  0.5283120000000  0.4732420000000  0.5428620000000 1.0
C      1  0.4219510000000  0.4463700000000  0.5077450000000 1.0
C      1  0.5416830000000  0.4223420000000  0.4385150000000 1.0
C      1  0.4811680000000  0.5203880000000  0.4303610000000 1.0
C      1  0.4449960000000  0.5717070000000  0.4741560000000 1.0
C      1  0.5476860000000  0.6018820000000  0.4927300000000 1.0
C      1  0.5149070000000  0.5374870000000  0.5265930000000 1.0
C      1  0.4481470000000  0.5014220000000  0.4584180000000 1.0
END
