TITL C-599896-8500-161 6.31896397292799 125000 -748.522842375754 0 0 122 (C1) n - 1
REM
REM in /home/nfs/bkarasulu/CARBON/AIRSS/Generating-Clusters/TERSOFF/Only-C1/FIRE-HFTN
REM
REM
REM
REM
REM
REM ./C.cell (11c1c37f851c82e70ff6c80c92926a4b)
REM AIRSS Version 0.9.1 bugfix July 2018 build 013d7b7c2542+ Fri, 06 Jul 2018 19:26:36 +0100
REM compiler GCC version 9.2.1 20190827 (Red Hat 9.2.1-1)
REM options -cpp -mtune=generic -march=x86-64 -g -O0 -fpre-include=/usr/include/finclude/math-vector-fortran.h
REM seed -425570117 -2085549984 502472249 1518990464 -1990276528 977863294 -894851724 315929804 -319447537 -645629779 -1696684967 -1292195278 -301962967 1640403704 1380007773 -569537162 -1372337745 1235430759 725148061 -892379017 2041462142 -1805584904 502918682 -1574843945 -24762509 2046789027 1772554253 -838179022 -1962087896 -1972974928 -1505821573 -510188705 1809349806
REM
CELL 1.54180   50.00000   50.00000   50.00000   90.00000   90.00000   90.00000
LATT -1
SFAC C  
C      1  0.4633210000000  0.5140920000000  0.5675160000000 1.0
C      1  0.5351890000000  0.4285160000000  0.4639720000000 1.0
C      1  0.5391150000000  0.5514080000000  0.4326470000000 1.0
C      1  0.4300020000000  0.5227220000000  0.5305870000000 1.0
C      1  0.4522440000000  0.5389780000000  0.4698600000000 1.0
C      1  0.5404750000000  0.5328730000000  0.4095690000000 1.0
C      1  0.4514300000000  0.5365270000000  0.5836550000000 1.0
C      1  0.5526470000000  0.5078130000000  0.4019040000000 1.0
C      1  0.5217250000000  0.5118060000000  0.5425710000000 1.0
C      1  0.4360930000000  0.4455920000000  0.4708170000000 1.0
C      1  0.5198760000000  0.5727620000000  0.5944490000000 1.0
C      1  0.4766680000000  0.5563820000000  0.5055920000000 1.0
C      1  0.5081250000000  0.4806920000000  0.4348370000000 1.0
C      1  0.5605840000000  0.5591390000000  0.4495420000000 1.0
C      1  0.4870830000000  0.4407590000000  0.5406090000000 1.0
C      1  0.4186000000000  0.4635890000000  0.4877230000000 1.0
C      1  0.3645130000000  0.6467170000000  0.5101450000000 1.0
C      1  0.4780710000000  0.4172930000000  0.4936970000000 1.0
C      1  0.5787150000000  0.5630960000000  0.5255370000000 1.0
C      1  0.6182480000000  0.5106760000000  0.5263450000000 1.0
C      1  0.5158420000000  0.5330230000000  0.5604080000000 1.0
C      1  0.4756280000000  0.5453170000000  0.5313540000000 1.0
C      1  0.3810520000000  0.4394630000000  0.5469220000000 1.0
C      1  0.3485820000000  0.4492400000000  0.3497170000000 1.0
C      1  0.5046860000000  0.5999400000000  0.5014480000000 1.0
C      1  0.5624870000000  0.4917030000000  0.4809240000000 1.0
C      1  0.5434350000000  0.5082280000000  0.5901230000000 1.0
C      1  0.5623280000000  0.4068360000000  0.5460520000000 1.0
C      1  0.4523010000000  0.4922820000000  0.4825410000000 1.0
C      1  0.4801670000000  0.4805700000000  0.4251990000000 1.0
C      1  0.4710880000000  0.4533860000000  0.4341770000000 1.0
C      1  0.5233800000000  0.5809550000000  0.4984830000000 1.0
C      1  0.4934890000000  0.5632530000000  0.4583600000000 1.0
C      1  0.5452300000000  0.4970740000000  0.5390660000000 1.0
C      1  0.5681030000000  0.5205560000000  0.5798820000000 1.0
C      1  0.4976900000000  0.5519840000000  0.4113670000000 1.0
C      1  0.4049220000000  0.6134140000000  0.5019940000000 1.0
C      1  0.5304310000000  0.5294890000000  0.4841840000000 1.0
C      1  0.5055370000000  0.4543180000000  0.5577180000000 1.0
C      1  0.5040630000000  0.5106900000000  0.5215540000000 1.0
C      1  0.5639050000000  0.4616980000000  0.4110940000000 1.0
C      1  0.5304180000000  0.4897410000000  0.3912910000000 1.0
C      1  0.6030600000000  0.4622330000000  0.5907230000000 1.0
C      1  0.4262140000000  0.5958000000000  0.4977800000000 1.0
C      1  0.6039260000000  0.5769160000000  0.5637180000000 1.0
C      1  0.4970650000000  0.5511240000000  0.5493550000000 1.0
C      1  0.5319450000000  0.5563760000000  0.4919260000000 1.0
C      1  0.4494710000000  0.4616380000000  0.5218890000000 1.0
C      1  0.3847240000000  0.6300600000000  0.5060670000000 1.0
C      1  0.4809660000000  0.4943180000000  0.4002040000000 1.0
C      1  0.5842110000000  0.4170830000000  0.5339910000000 1.0
C      1  0.5866180000000  0.4546030000000  0.5014720000000 1.0
C      1  0.5805520000000  0.5647160000000  0.4985920000000 1.0
C      1  0.5298130000000  0.4820610000000  0.5900770000000 1.0
C      1  0.6103680000000  0.5153170000000  0.5518470000000 1.0
C      1  0.4049600000000  0.4482840000000  0.4051570000000 1.0
C      1  0.4931300000000  0.4711670000000  0.4930680000000 1.0
C      1  0.4827670000000  0.4974070000000  0.5815110000000 1.0
C      1  0.4792140000000  0.6082810000000  0.5015000000000 1.0
C      1  0.5575620000000  0.4263710000000  0.4469370000000 1.0
C      1  0.4660190000000  0.4745060000000  0.5007280000000 1.0
C      1  0.5449580000000  0.5657600000000  0.5863200000000 1.0
C      1  0.4135860000000  0.5325660000000  0.5519420000000 1.0
C      1  0.5780540000000  0.4629490000000  0.5487220000000 1.0
C      1  0.4239590000000  0.4928390000000  0.4886110000000 1.0
C      1  0.4238680000000  0.4480800000000  0.4237010000000 1.0
C      1  0.5104630000000  0.5597330000000  0.4362370000000 1.0
C      1  0.4465070000000  0.4428510000000  0.5670710000000 1.0
C      1  0.5428570000000  0.5075290000000  0.4672770000000 1.0
C      1  0.3612330000000  0.4317360000000  0.5619930000000 1.0
C      1  0.5823530000000  0.5628400000000  0.5538500000000 1.0
C      1  0.5731840000000  0.4890990000000  0.4098130000000 1.0
C      1  0.4281590000000  0.5423490000000  0.4858130000000 1.0
C      1  0.5127060000000  0.5322900000000  0.3974460000000 1.0
C      1  0.3671680000000  0.4489240000000  0.3679950000000 1.0
C      1  0.4013960000000  0.4473470000000  0.5318930000000 1.0
C      1  0.4240470000000  0.5404850000000  0.5760750000000 1.0
C      1  0.5028100000000  0.4928400000000  0.4790990000000 1.0
C      1  0.5172330000000  0.4557500000000  0.4227600000000 1.0
C      1  0.3446330000000  0.6630990000000  0.5141550000000 1.0
C      1  0.5357990000000  0.4630250000000  0.4026330000000 1.0
C      1  0.4944720000000  0.4312240000000  0.5138980000000 1.0
C      1  0.5078010000000  0.5152350000000  0.4948980000000 1.0
C      1  0.4521490000000  0.4263350000000  0.4855090000000 1.0
C      1  0.5503580000000  0.4698040000000  0.5463180000000 1.0
C      1  0.5203650000000  0.5258180000000  0.5877610000000 1.0
C      1  0.5654750000000  0.5497090000000  0.5734580000000 1.0
C      1  0.4581490000000  0.5233020000000  0.5394210000000 1.0
C      1  0.4601870000000  0.4481130000000  0.5441050000000 1.0
C      1  0.5644030000000  0.5108430000000  0.5237950000000 1.0
C      1  0.4216710000000  0.5191610000000  0.5027420000000 1.0
C      1  0.4206850000000  0.5688160000000  0.4916710000000 1.0
C      1  0.5911200000000  0.4760590000000  0.5704280000000 1.0
C      1  0.5325630000000  0.4482470000000  0.5522280000000 1.0
C      1  0.4526550000000  0.6054960000000  0.4998110000000 1.0
C      1  0.4929960000000  0.4041450000000  0.4727670000000 1.0
C      1  0.4217530000000  0.4563930000000  0.5155580000000 1.0
C      1  0.4590250000000  0.5122380000000  0.4641370000000 1.0
C      1  0.5197060000000  0.4929420000000  0.4564270000000 1.0
C      1  0.4742020000000  0.5553560000000  0.4774130000000 1.0
C      1  0.3860660000000  0.4486030000000  0.3865790000000 1.0
C      1  0.5749990000000  0.5633580000000  0.4720950000000 1.0
C      1  0.5411010000000  0.4214370000000  0.5537300000000 1.0
C      1  0.6059740000000  0.4989660000000  0.5036730000000 1.0
C      1  0.5866770000000  0.4445300000000  0.5282370000000 1.0
C      1  0.4919210000000  0.3505980000000  0.4668180000000 1.0
C      1  0.4970880000000  0.5151120000000  0.6000330000000 1.0
C      1  0.5908270000000  0.5049800000000  0.5698750000000 1.0
C      1  0.5613120000000  0.4629860000000  0.4882180000000 1.0
C      1  0.5055350000000  0.5052700000000  0.3902280000000 1.0
C      1  0.5115020000000  0.4504130000000  0.5000440000000 1.0
C      1  0.4971950000000  0.4371130000000  0.4344850000000 1.0
C      1  0.5705160000000  0.4403620000000  0.4279510000000 1.0
C      1  0.5083590000000  0.4208920000000  0.4554720000000 1.0
C      1  0.5029580000000  0.4755390000000  0.5771870000000 1.0
C      1  0.4930390000000  0.5690500000000  0.5976130000000 1.0
C      1  0.4440200000000  0.4490620000000  0.4431450000000 1.0
C      1  0.4691420000000  0.5562870000000  0.5946590000000 1.0
C      1  0.4924270000000  0.3764880000000  0.4697380000000 1.0
C      1  0.6092520000000  0.4717020000000  0.4960800000000 1.0
C      1  0.5368520000000  0.4468690000000  0.4863450000000 1.0
C      1  0.5784560000000  0.5062080000000  0.5000690000000 1.0
END
