TITL C-599891-72-186 -7.68419072893393e-05 125000 -146.972564272223 0 0 25 (C1) n - 1
REM
REM in /home/nfs/bkarasulu/CARBON/AIRSS/Generating-Clusters/TERSOFF/Only-C1/FIRE-HFTN
REM
REM
REM
REM
REM
REM ./C.cell (11c1c37f851c82e70ff6c80c92926a4b)
REM AIRSS Version 0.9.1 bugfix July 2018 build 013d7b7c2542+ Fri, 06 Jul 2018 19:26:36 +0100
REM compiler GCC version 9.2.1 20190827 (Red Hat 9.2.1-1)
REM options -cpp -mtune=generic -march=x86-64 -g -O0 -fpre-include=/usr/include/finclude/math-vector-fortran.h
REM seed 1123264007 -1205153043 -461473114 1975745786 -1425689504 -500672851 1959221193 -2112078280 -462895938 -1702116417 1637640382 -763993896 1787346270 1931076937 758639508 1570152214 1667776653 2113619707 1211039415 -1046282455 860297734 -997639567 10506414 -1845259387 -301600853 -1093867765 799855490 1755042747 913794933 -1540244321 -1785488139 658761692 845239073
REM
CELL 1.54180   50.00000   50.00000   50.00000   90.00000   90.00000   90.00000
LATT -1
SFAC C  
C      1  0.4802140000000  0.4985540000000  0.5492440000000 1.0
C      1  0.4977630000000  0.5171970000000  0.4150270000000 1.0
C      1  0.4842450000000  0.4889640000000  0.4531540000000 1.0
C      1  0.5317840000000  0.4942700000000  0.4967990000000 1.0
C      1  0.4642920000000  0.4960090000000  0.5260190000000 1.0
C      1  0.4974500000000  0.5433290000000  0.5467200000000 1.0
C      1  0.5076210000000  0.4538930000000  0.5117710000000 1.0
C      1  0.4861650000000  0.4843480000000  0.4810650000000 1.0
C      1  0.5239180000000  0.5416320000000  0.5026840000000 1.0
C      1  0.5122790000000  0.5493540000000  0.5254090000000 1.0
C      1  0.5473080000000  0.4908480000000  0.5454590000000 1.0
C      1  0.5001950000000  0.4785070000000  0.5540760000000 1.0
C      1  0.4661870000000  0.4917630000000  0.4995810000000 1.0
C      1  0.4825920000000  0.5243310000000  0.5611900000000 1.0
C      1  0.5006480000000  0.5093200000000  0.4415840000000 1.0
C      1  0.4669600000000  0.4736990000000  0.4374660000000 1.0
C      1  0.5494580000000  0.4918320000000  0.5186500000000 1.0
C      1  0.5198280000000  0.5212000000000  0.4583280000000 1.0
C      1  0.4997920000000  0.4552980000000  0.5376480000000 1.0
C      1  0.4710560000000  0.5301300000000  0.5852230000000 1.0
C      1  0.4507830000000  0.4595900000000  0.4226880000000 1.0
C      1  0.5262620000000  0.4865280000000  0.5618210000000 1.0
C      1  0.4946760000000  0.5241600000000  0.3901030000000 1.0
C      1  0.5279640000000  0.5201460000000  0.4850940000000 1.0
C      1  0.5105600000000  0.4750980000000  0.4931990000000 1.0
END
