TITL C-599895-9959-256 1.21747003255323 125000 -620.018138549878 0 0 102 (C1) n - 1
REM
REM in /home/nfs/bkarasulu/CARBON/AIRSS/Generating-Clusters/TERSOFF/Only-C1/FIRE-HFTN
REM
REM
REM
REM
REM
REM ./C.cell (11c1c37f851c82e70ff6c80c92926a4b)
REM AIRSS Version 0.9.1 bugfix July 2018 build 013d7b7c2542+ Fri, 06 Jul 2018 19:26:36 +0100
REM compiler GCC version 9.2.1 20190827 (Red Hat 9.2.1-1)
REM options -cpp -mtune=generic -march=x86-64 -g -O0 -fpre-include=/usr/include/finclude/math-vector-fortran.h
REM seed -1894642664 1054150008 799890758 -1074341662 262929730 -1907671354 2065109199 34488673 -245213123 -759879615 281391410 871170757 -589741848 -2113601844 -638653188 -82885235 -1295249634 -1808918881 993323870 -1217949755 -1873089950 -1149313838 1912274029 -1326492067 -1834458099 -1667398471 1046183973 1326944437 -1995191237 489669921 -1253840547 295600470 1386379719
REM
CELL 1.54180   50.00000   50.00000   50.00000   90.00000   90.00000   90.00000
LATT -1
SFAC C  
C      1  0.4119000000000  0.5912140000000  0.4044170000000 1.0
C      1  0.5439400000000  0.5640940000000  0.4790340000000 1.0
C      1  0.4640080000000  0.4227510000000  0.5177910000000 1.0
C      1  0.5854500000000  0.4135400000000  0.4908890000000 1.0
C      1  0.4166290000000  0.5111650000000  0.4833090000000 1.0
C      1  0.4257790000000  0.4967740000000  0.4093770000000 1.0
C      1  0.4989310000000  0.4027920000000  0.4543750000000 1.0
C      1  0.6007130000000  0.4511970000000  0.5555960000000 1.0
C      1  0.4327500000000  0.5324740000000  0.4718350000000 1.0
C      1  0.5706910000000  0.4437340000000  0.4571680000000 1.0
C      1  0.5160040000000  0.5040820000000  0.4455530000000 1.0
C      1  0.4094510000000  0.6082720000000  0.4268850000000 1.0
C      1  0.4673680000000  0.4717400000000  0.5570990000000 1.0
C      1  0.4597990000000  0.4508190000000  0.5715190000000 1.0
C      1  0.5704250000000  0.5561060000000  0.4827080000000 1.0
C      1  0.5929480000000  0.4310330000000  0.4693930000000 1.0
C      1  0.4453240000000  0.5250940000000  0.5261870000000 1.0
C      1  0.4013510000000  0.5188420000000  0.5062550000000 1.0
C      1  0.4482680000000  0.4407030000000  0.5053230000000 1.0
C      1  0.4654570000000  0.4418980000000  0.4413930000000 1.0
C      1  0.5242270000000  0.5454840000000  0.4694460000000 1.0
C      1  0.4899730000000  0.5605950000000  0.5527270000000 1.0
C      1  0.5923070000000  0.4997700000000  0.5486310000000 1.0
C      1  0.5888700000000  0.5388960000000  0.4914810000000 1.0
C      1  0.4463220000000  0.4888450000000  0.4288070000000 1.0
C      1  0.4315530000000  0.5948960000000  0.3846160000000 1.0
C      1  0.4861890000000  0.4127940000000  0.5297200000000 1.0
C      1  0.4185920000000  0.5272630000000  0.5268350000000 1.0
C      1  0.5769570000000  0.4809280000000  0.5884480000000 1.0
C      1  0.5128940000000  0.4210350000000  0.5343870000000 1.0
C      1  0.3591620000000  0.5749390000000  0.4944320000000 1.0
C      1  0.3990360000000  0.5661580000000  0.4049020000000 1.0
C      1  0.5391800000000  0.4591300000000  0.6105490000000 1.0
C      1  0.4526060000000  0.4313180000000  0.5872540000000 1.0
C      1  0.4480290000000  0.5792930000000  0.3703130000000 1.0
C      1  0.5995390000000  0.4462270000000  0.5278090000000 1.0
C      1  0.4809140000000  0.4210480000000  0.4472430000000 1.0
C      1  0.5415590000000  0.4937800000000  0.6459260000000 1.0
C      1  0.5567600000000  0.5708580000000  0.5420630000000 1.0
C      1  0.5614440000000  0.4709770000000  0.4952550000000 1.0
C      1  0.4865090000000  0.5118970000000  0.5021230000000 1.0
C      1  0.5290630000000  0.5834340000000  0.4952670000000 1.0
C      1  0.5489580000000  0.4813490000000  0.5180810000000 1.0
C      1  0.6017380000000  0.4963220000000  0.5218300000000 1.0
C      1  0.4645730000000  0.5062380000000  0.4414220000000 1.0
C      1  0.4527380000000  0.5530100000000  0.3678750000000 1.0
C      1  0.5635490000000  0.4121720000000  0.5340760000000 1.0
C      1  0.4303510000000  0.5607250000000  0.4794740000000 1.0
C      1  0.5446650000000  0.3854620000000  0.4736720000000 1.0
C      1  0.5172010000000  0.4476170000000  0.5254180000000 1.0
C      1  0.5069670000000  0.5107500000000  0.5817680000000 1.0
C      1  0.4503890000000  0.5746940000000  0.4947280000000 1.0
C      1  0.5758540000000  0.5103480000000  0.5913770000000 1.0
C      1  0.5144710000000  0.5073890000000  0.4951560000000 1.0
C      1  0.6171910000000  0.4452180000000  0.4706990000000 1.0
C      1  0.4235410000000  0.4508630000000  0.4154500000000 1.0
C      1  0.5373990000000  0.5508660000000  0.5427380000000 1.0
C      1  0.5105430000000  0.5595340000000  0.5332530000000 1.0
C      1  0.5465470000000  0.5258140000000  0.5554910000000 1.0
C      1  0.4740860000000  0.5831140000000  0.5052630000000 1.0
C      1  0.5373550000000  0.4076520000000  0.5391910000000 1.0
C      1  0.5998020000000  0.5180630000000  0.5040720000000 1.0
C      1  0.4980590000000  0.5520980000000  0.4809620000000 1.0
C      1  0.4691780000000  0.5098360000000  0.5250030000000 1.0
C      1  0.5512930000000  0.4679670000000  0.5868360000000 1.0
C      1  0.4116520000000  0.4724520000000  0.4030210000000 1.0
C      1  0.4105500000000  0.5960160000000  0.4520380000000 1.0
C      1  0.5363310000000  0.4768340000000  0.5639510000000 1.0
C      1  0.4037300000000  0.5399400000000  0.4031940000000 1.0
C      1  0.6090680000000  0.4695020000000  0.5128800000000 1.0
C      1  0.4586400000000  0.5243860000000  0.4630030000000 1.0
C      1  0.4058840000000  0.6351940000000  0.4241720000000 1.0
C      1  0.4431990000000  0.5301670000000  0.3781250000000 1.0
C      1  0.5020820000000  0.5716200000000  0.5048710000000 1.0
C      1  0.4250910000000  0.4838990000000  0.4833070000000 1.0
C      1  0.5693830000000  0.5220650000000  0.6158120000000 1.0
C      1  0.5240280000000  0.4520480000000  0.4746700000000 1.0
C      1  0.3743960000000  0.5163150000000  0.5083750000000 1.0
C      1  0.5556460000000  0.5151920000000  0.6378330000000 1.0
C      1  0.4465170000000  0.4592860000000  0.4309820000000 1.0
C      1  0.5236190000000  0.5169160000000  0.4691780000000 1.0
C      1  0.4740170000000  0.4978580000000  0.5503120000000 1.0
C      1  0.5356610000000  0.4654990000000  0.5377670000000 1.0
C      1  0.5103600000000  0.4515730000000  0.4979890000000 1.0
C      1  0.5684940000000  0.3921480000000  0.4836810000000 1.0
C      1  0.4760220000000  0.5435610000000  0.5680660000000 1.0
C      1  0.5943770000000  0.4761780000000  0.5663090000000 1.0
C      1  0.5350600000000  0.5049010000000  0.5133940000000 1.0
C      1  0.6231440000000  0.4639630000000  0.4891420000000 1.0
C      1  0.4358770000000  0.4613630000000  0.4933470000000 1.0
C      1  0.5742870000000  0.5194200000000  0.5627430000000 1.0
C      1  0.3830000000000  0.5729610000000  0.4840710000000 1.0
C      1  0.5204960000000  0.3900990000000  0.4634750000000 1.0
C      1  0.5349480000000  0.4702810000000  0.6346500000000 1.0
C      1  0.5291930000000  0.5049680000000  0.5659000000000 1.0
C      1  0.4788000000000  0.5312220000000  0.4817810000000 1.0
C      1  0.5845030000000  0.4234040000000  0.5180730000000 1.0
C      1  0.4077450000000  0.5761490000000  0.4715320000000 1.0
C      1  0.5515570000000  0.4574330000000  0.4724330000000 1.0
C      1  0.4916830000000  0.5026390000000  0.4344820000000 1.0
C      1  0.4237020000000  0.5213590000000  0.3964830000000 1.0
C      1  0.4819390000000  0.5162020000000  0.5707820000000 1.0
END
