TITL C-599893-4344-704 -0.0935354490432629 125000 -1021.86065554295 0 0 167 (C1) n - 1
REM
REM in /home/nfs/bkarasulu/CARBON/AIRSS/Generating-Clusters/TERSOFF/Only-C1/FIRE-HFTN
REM
REM
REM
REM
REM
REM ./C.cell (11c1c37f851c82e70ff6c80c92926a4b)
REM AIRSS Version 0.9.1 bugfix July 2018 build 013d7b7c2542+ Fri, 06 Jul 2018 19:26:36 +0100
REM compiler GCC version 9.2.1 20190827 (Red Hat 9.2.1-1)
REM options -cpp -mtune=generic -march=x86-64 -g -O0 -fpre-include=/usr/include/finclude/math-vector-fortran.h
REM seed -1220958864 1044865845 -2090747755 1964036354 -2017208699 2046508035 1551301289 -96749404 -258389195 63998169 1627045000 -1949074129 -1648289229 -694123428 -25679166 -1506745122 -2109245961 1465446530 755643049 -902253863 242159404 -729735396 1020619639 281353731 -755719300 1004029224 2063328780 -344425540 -284754803 1678307383 -1037978014 1186846974 -1800042573
REM
CELL 1.54180   50.00000   50.00000   50.00000   90.00000   90.00000   90.00000
LATT -1
SFAC C  
C      1  0.5500920000000  0.5718300000000  0.4020250000000 1.0
C      1  0.5616440000000  0.5301890000000  0.3786130000000 1.0
C      1  0.5142770000000  0.4900600000000  0.4207750000000 1.0
C      1  0.4887250000000  0.3948070000000  0.5526970000000 1.0
C      1  0.5851350000000  0.5653260000000  0.4693450000000 1.0
C      1  0.4165640000000  0.5881870000000  0.5103420000000 1.0
C      1  0.4982200000000  0.5461000000000  0.4492970000000 1.0
C      1  0.4180160000000  0.4984710000000  0.4588910000000 1.0
C      1  0.5704420000000  0.4780740000000  0.3878400000000 1.0
C      1  0.5762340000000  0.4856360000000  0.4593700000000 1.0
C      1  0.4888290000000  0.4459950000000  0.4520090000000 1.0
C      1  0.5555750000000  0.6022080000000  0.5026860000000 1.0
C      1  0.5933250000000  0.5002920000000  0.5527910000000 1.0
C      1  0.5317490000000  0.5586810000000  0.4814370000000 1.0
C      1  0.4053560000000  0.5712300000000  0.4596940000000 1.0
C      1  0.5374600000000  0.4491310000000  0.4534950000000 1.0
C      1  0.4355660000000  0.5325280000000  0.4922660000000 1.0
C      1  0.4891090000000  0.5294380000000  0.3523710000000 1.0
C      1  0.5518860000000  0.4622600000000  0.5004070000000 1.0
C      1  0.5409510000000  0.4022660000000  0.4539200000000 1.0
C      1  0.4332730000000  0.4648520000000  0.4060190000000 1.0
C      1  0.5445450000000  0.4785620000000  0.5438510000000 1.0
C      1  0.3789490000000  0.5104490000000  0.5164680000000 1.0
C      1  0.5332980000000  0.4204010000000  0.4991520000000 1.0
C      1  0.5221550000000  0.4940180000000  0.3522000000000 1.0
C      1  0.4318150000000  0.5063130000000  0.4830310000000 1.0
C      1  0.5156630000000  0.5206830000000  0.3582410000000 1.0
C      1  0.6146920000000  0.4934940000000  0.4918830000000 1.0
C      1  0.4053590000000  0.4714280000000  0.4948560000000 1.0
C      1  0.5714890000000  0.5519740000000  0.3961590000000 1.0
C      1  0.4357220000000  0.4779280000000  0.5537460000000 1.0
C      1  0.5549480000000  0.5947150000000  0.5303360000000 1.0
C      1  0.6135170000000  0.5202230000000  0.4854710000000 1.0
C      1  0.5472630000000  0.4408390000000  0.5722460000000 1.0
C      1  0.5899890000000  0.5150250000000  0.5993200000000 1.0
C      1  0.5069170000000  0.5862490000000  0.5459450000000 1.0
C      1  0.3920220000000  0.4196130000000  0.5548300000000 1.0
C      1  0.5801680000000  0.4626060000000  0.3676730000000 1.0
C      1  0.5022070000000  0.4390360000000  0.5915380000000 1.0
C      1  0.5232000000000  0.5401870000000  0.4625110000000 1.0
C      1  0.4637420000000  0.6090730000000  0.4733950000000 1.0
C      1  0.3984080000000  0.5478990000000  0.5460580000000 1.0
C      1  0.5787130000000  0.3902670000000  0.5420730000000 1.0
C      1  0.5848510000000  0.4666730000000  0.5892890000000 1.0
C      1  0.4484180000000  0.4965610000000  0.3677690000000 1.0
C      1  0.4362720000000  0.4948660000000  0.5311620000000 1.0
C      1  0.5287360000000  0.5626480000000  0.3850250000000 1.0
C      1  0.4291610000000  0.4620850000000  0.6916190000000 1.0
C      1  0.4829280000000  0.4188090000000  0.5959580000000 1.0
C      1  0.6026300000000  0.4466230000000  0.5785900000000 1.0
C      1  0.4130270000000  0.4695150000000  0.4650730000000 1.0
C      1  0.3820330000000  0.4828200000000  0.5079010000000 1.0
C      1  0.4787720000000  0.5854680000000  0.4773730000000 1.0
C      1  0.3798190000000  0.5060230000000  0.5661190000000 1.0
C      1  0.4508400000000  0.4765970000000  0.6454950000000 1.0
C      1  0.5800640000000  0.4585460000000  0.5100830000000 1.0
C      1  0.4865240000000  0.4857410000000  0.4189640000000 1.0
C      1  0.4900250000000  0.4735070000000  0.4965360000000 1.0
C      1  0.4553730000000  0.4841230000000  0.5733980000000 1.0
C      1  0.5203470000000  0.4316490000000  0.5696000000000 1.0
C      1  0.5283800000000  0.4488510000000  0.3759580000000 1.0
C      1  0.5862090000000  0.5048680000000  0.5270200000000 1.0
C      1  0.5663520000000  0.4129700000000  0.4544080000000 1.0
C      1  0.4792980000000  0.5256800000000  0.4438010000000 1.0
C      1  0.3991210000000  0.4904330000000  0.5800380000000 1.0
C      1  0.5416320000000  0.4517110000000  0.4240040000000 1.0
C      1  0.5741430000000  0.5322420000000  0.6124040000000 1.0
C      1  0.5532640000000  0.3916440000000  0.5338620000000 1.0
C      1  0.5835310000000  0.4340980000000  0.4583500000000 1.0
C      1  0.4823500000000  0.5752370000000  0.5040360000000 1.0
C      1  0.5345020000000  0.4747100000000  0.5989210000000 1.0
C      1  0.5674810000000  0.5126500000000  0.5059080000000 1.0
C      1  0.5343240000000  0.5373070000000  0.3714580000000 1.0
C      1  0.5561110000000  0.5789880000000  0.4292220000000 1.0
C      1  0.4728960000000  0.4134440000000  0.5101460000000 1.0
C      1  0.5476800000000  0.5358910000000  0.6159390000000 1.0
C      1  0.4855650000000  0.5468040000000  0.5720210000000 1.0
C      1  0.4355130000000  0.4797960000000  0.3839900000000 1.0
C      1  0.4875680000000  0.5199400000000  0.5738960000000 1.0
C      1  0.5612730000000  0.5051050000000  0.4766170000000 1.0
C      1  0.5380970000000  0.5158530000000  0.4611830000000 1.0
C      1  0.4330080000000  0.4504790000000  0.4547650000000 1.0
C      1  0.5737310000000  0.5876120000000  0.4849350000000 1.0
C      1  0.5758060000000  0.4893860000000  0.4318200000000 1.0
C      1  0.4635380000000  0.6080200000000  0.5309220000000 1.0
C      1  0.4448440000000  0.4913650000000  0.5991080000000 1.0
C      1  0.5826010000000  0.5130770000000  0.4173750000000 1.0
C      1  0.5897460000000  0.4609700000000  0.4667220000000 1.0
C      1  0.5053770000000  0.5283390000000  0.5290650000000 1.0
C      1  0.5097700000000  0.4169560000000  0.5444380000000 1.0
C      1  0.5343810000000  0.5009480000000  0.5862330000000 1.0
C      1  0.4440400000000  0.4300100000000  0.4719610000000 1.0
C      1  0.4905370000000  0.4844200000000  0.6176020000000 1.0
C      1  0.5578130000000  0.4547360000000  0.5502620000000 1.0
C      1  0.5077360000000  0.4641160000000  0.6050030000000 1.0
C      1  0.5829290000000  0.5415380000000  0.4218150000000 1.0
C      1  0.4793430000000  0.3975400000000  0.5793210000000 1.0
C      1  0.5267140000000  0.5195740000000  0.6069190000000 1.0
C      1  0.4184850000000  0.4549480000000  0.7143070000000 1.0
C      1  0.5997370000000  0.4341560000000  0.5530090000000 1.0
C      1  0.5635570000000  0.4687370000000  0.4147320000000 1.0
C      1  0.4929370000000  0.4809380000000  0.5437860000000 1.0
C      1  0.5501080000000  0.5316780000000  0.5187350000000 1.0
C      1  0.4618480000000  0.4841620000000  0.6210090000000 1.0
C      1  0.4671000000000  0.5130240000000  0.3583560000000 1.0
C      1  0.5438300000000  0.5546490000000  0.5047040000000 1.0
C      1  0.5761790000000  0.5617740000000  0.4422210000000 1.0
C      1  0.3852080000000  0.3954090000000  0.5479510000000 1.0
C      1  0.5324740000000  0.6188600000000  0.4971500000000 1.0
C      1  0.5255360000000  0.4681900000000  0.3577080000000 1.0
C      1  0.4452120000000  0.6201570000000  0.4897120000000 1.0
C      1  0.5222360000000  0.4435720000000  0.4030580000000 1.0
C      1  0.4108340000000  0.4693060000000  0.5646150000000 1.0
C      1  0.4878730000000  0.5714930000000  0.4550060000000 1.0
C      1  0.4284210000000  0.4871010000000  0.5050050000000 1.0
C      1  0.4851890000000  0.6265250000000  0.5220210000000 1.0
C      1  0.4785890000000  0.5812590000000  0.5347320000000 1.0
C      1  0.4084780000000  0.5206630000000  0.4441210000000 1.0
C      1  0.4079430000000  0.5869580000000  0.4817660000000 1.0
C      1  0.4576750000000  0.5322240000000  0.5103060000000 1.0
C      1  0.4103780000000  0.5438080000000  0.5002190000000 1.0
C      1  0.4191040000000  0.5460390000000  0.5662930000000 1.0
C      1  0.4850170000000  0.5541180000000  0.3399480000000 1.0
C      1  0.4732870000000  0.5108750000000  0.4204600000000 1.0
C      1  0.4458580000000  0.5221460000000  0.5345290000000 1.0
C      1  0.4679140000000  0.4175260000000  0.4825250000000 1.0
C      1  0.5138590000000  0.4045220000000  0.4584070000000 1.0
C      1  0.5907850000000  0.4939200000000  0.5806880000000 1.0
C      1  0.5570460000000  0.4578160000000  0.5941160000000 1.0
C      1  0.5314310000000  0.5236270000000  0.5385900000000 1.0
C      1  0.5990690000000  0.4062250000000  0.5495250000000 1.0
C      1  0.5087710000000  0.6274720000000  0.5079380000000 1.0
C      1  0.6026550000000  0.5446950000000  0.4797930000000 1.0
C      1  0.4078230000000  0.5627850000000  0.5220510000000 1.0
C      1  0.4939610000000  0.4407600000000  0.4072860000000 1.0
C      1  0.4188730000000  0.5048140000000  0.5963720000000 1.0
C      1  0.4910200000000  0.4316700000000  0.5243970000000 1.0
C      1  0.4467940000000  0.4559350000000  0.4292130000000 1.0
C      1  0.5320680000000  0.4079950000000  0.5251580000000 1.0
C      1  0.4439570000000  0.5438440000000  0.5530820000000 1.0
C      1  0.4672200000000  0.5604490000000  0.5547180000000 1.0
C      1  0.4736090000000  0.5101850000000  0.4661030000000 1.0
C      1  0.4799670000000  0.6017810000000  0.3183760000000 1.0
C      1  0.5735970000000  0.5065970000000  0.3893710000000 1.0
C      1  0.4386400000000  0.6070010000000  0.5146390000000 1.0
C      1  0.4772540000000  0.4872520000000  0.4783310000000 1.0
C      1  0.5054130000000  0.4761280000000  0.5190300000000 1.0
C      1  0.4773330000000  0.4573170000000  0.4268620000000 1.0
C      1  0.5379140000000  0.5028140000000  0.5576730000000 1.0
C      1  0.5814940000000  0.4484560000000  0.5363100000000 1.0
C      1  0.4053620000000  0.5476100000000  0.4463120000000 1.0
C      1  0.4400140000000  0.4693410000000  0.6685510000000 1.0
C      1  0.4823230000000  0.5780760000000  0.3289640000000 1.0
C      1  0.5334200000000  0.4752630000000  0.5181100000000 1.0
C      1  0.4907280000000  0.4206460000000  0.4647580000000 1.0
C      1  0.5334820000000  0.5895310000000  0.5458970000000 1.0
C      1  0.5041580000000  0.5097780000000  0.6214960000000 1.0
C      1  0.5304310000000  0.5004240000000  0.4390240000000 1.0
C      1  0.4176720000000  0.5330010000000  0.5915220000000 1.0
C      1  0.3864790000000  0.5290050000000  0.4962820000000 1.0
C      1  0.3821560000000  0.5225840000000  0.5430330000000 1.0
C      1  0.4854540000000  0.5312450000000  0.5115320000000 1.0
C      1  0.3999510000000  0.4441180000000  0.5610290000000 1.0
C      1  0.4716080000000  0.3913170000000  0.5289610000000 1.0
C      1  0.4802680000000  0.4941730000000  0.5648640000000 1.0
C      1  0.5399280000000  0.4434060000000  0.4824920000000 1.0
C      1  0.6007730000000  0.4680240000000  0.4924830000000 1.0
END
