TITL C-599893-4344-984 0.98259626021115 125000 -88.3488808568151 0 0 17 (C1) n - 1
REM
REM in /home/nfs/bkarasulu/CARBON/AIRSS/Generating-Clusters/TERSOFF/Only-C1/FIRE-HFTN
REM
REM
REM
REM
REM
REM ./C.cell (11c1c37f851c82e70ff6c80c92926a4b)
REM AIRSS Version 0.9.1 bugfix July 2018 build 013d7b7c2542+ Fri, 06 Jul 2018 19:26:36 +0100
REM compiler GCC version 9.2.1 20190827 (Red Hat 9.2.1-1)
REM options -cpp -mtune=generic -march=x86-64 -g -O0 -fpre-include=/usr/include/finclude/math-vector-fortran.h
REM seed 1338560527 192019556 -1216953790 -1139410226 2043965587 207769416 1140979836 -574576410 -719966693 1955838761 405964849 707992986 -1765064882 1861032070 1075689516 786729525 -1598349213 -1359211480 850752054 1876642656 575347042 1435830822 -1436578912 -235040712 -761264030 1870922807 -926666309 -2071891860 -52830021 698785774 -1117405624 -588991409 2015281465
REM
CELL 1.54180   50.00000   50.00000   50.00000   90.00000   90.00000   90.00000
LATT -1
SFAC C  
C      1  0.5317430000000  0.4692220000000  0.5105380000000 1.0
C      1  0.5326390000000  0.5099300000000  0.4453310000000 1.0
C      1  0.4998780000000  0.5390250000000  0.4774620000000 1.0
C      1  0.4794320000000  0.5092690000000  0.5105110000000 1.0
C      1  0.4969630000000  0.4531960000000  0.5402660000000 1.0
C      1  0.5169650000000  0.5255040000000  0.4599480000000 1.0
C      1  0.4889690000000  0.4396800000000  0.5610650000000 1.0
C      1  0.4555970000000  0.5151080000000  0.5238190000000 1.0
C      1  0.4852240000000  0.5604940000000  0.4689430000000 1.0
C      1  0.4854720000000  0.4825240000000  0.5030620000000 1.0
C      1  0.5048660000000  0.4681600000000  0.5180560000000 1.0
C      1  0.5135640000000  0.5409350000000  0.5239060000000 1.0
C      1  0.5565400000000  0.4718620000000  0.5029720000000 1.0
C      1  0.4729920000000  0.4708660000000  0.4816800000000 1.0
C      1  0.5479420000000  0.4937820000000  0.4317420000000 1.0
C      1  0.4333750000000  0.5204250000000  0.5363480000000 1.0
C      1  0.4978390000000  0.5300180000000  0.5043490000000 1.0
END
