TITL C-599894-471-1258 1048.57347423554 125000 -719.106343992507 0 0 118 (C1) n - 1
REM
REM in /home/nfs/bkarasulu/CARBON/AIRSS/Generating-Clusters/TERSOFF/Only-C1/FIRE-HFTN
REM
REM
REM
REM
REM
REM ./C.cell (11c1c37f851c82e70ff6c80c92926a4b)
REM AIRSS Version 0.9.1 bugfix July 2018 build 013d7b7c2542+ Fri, 06 Jul 2018 19:26:36 +0100
REM compiler GCC version 9.2.1 20190827 (Red Hat 9.2.1-1)
REM options -cpp -mtune=generic -march=x86-64 -g -O0 -fpre-include=/usr/include/finclude/math-vector-fortran.h
REM seed 895132699 -1129983806 -1118557248 -290284259 -1487648110 54574880 -1149762691 -150867845 -923911848 66646089 1536651516 -1717601596 -192685832 -94384313 -373834174 515214112 1536858059 -1376635853 1369461421 370245234 -1647281446 -56850358 1432214482 -521363145 -1136940391 1647769663 -123040385 -596251955 1841408619 -1423160860 -1083367479 678527942 -1935412342
REM
CELL 1.54180   50.00000   50.00000   50.00000   90.00000   90.00000   90.00000
LATT -1
SFAC C  
C      1  0.5542560000000  0.5044650000000  0.4412120000000 1.0
C      1  0.5043460000000  0.4995750000000  0.5219790000000 1.0
C      1  0.4417960000000  0.4959060000000  0.5773720000000 1.0
C      1  0.5161430000000  0.3664740000000  0.4932960000000 1.0
C      1  0.5029470000000  0.4724790000000  0.4197670000000 1.0
C      1  0.5257590000000  0.4317050000000  0.5726880000000 1.0
C      1  0.4305310000000  0.4561960000000  0.5358600000000 1.0
C      1  0.5761810000000  0.5036470000000  0.4625170000000 1.0
C      1  0.4912850000000  0.4870950000000  0.4993070000000 1.0
C      1  0.4582210000000  0.5119470000000  0.5144830000000 1.0
C      1  0.4789150000000  0.5837180000000  0.4780410000000 1.0
C      1  0.4864300000000  0.5874250000000  0.5545420000000 1.0
C      1  0.4101350000000  0.5129880000000  0.5026820000000 1.0
C      1  0.5147990000000  0.5218400000000  0.5365780000000 1.0
C      1  0.5354580000000  0.5274450000000  0.4470560000000 1.0
C      1  0.4763310000000  0.4307000000000  0.5836120000000 1.0
C      1  0.5552540000000  0.5750950000000  0.5257800000000 1.0
C      1  0.4151860000000  0.4405620000000  0.4303530000000 1.0
C      1  0.4330770000000  0.5526950000000  0.4435690000000 1.0
C      1  0.5670770000000  0.5040830000000  0.5516380000000 1.0
C      1  0.4978350000000  0.5187410000000  0.3786080000000 1.0
C      1  0.5018610000000  0.5310850000000  0.4612820000000 1.0
C      1  0.4546060000000  0.4483310000000  0.5778460000000 1.0
C      1  0.4502860000000  0.5024650000000  0.4156110000000 1.0
C      1  0.4551030000000  0.5218460000000  0.5398680000000 1.0
C      1  0.5549500000000  0.5455930000000  0.4593040000000 1.0
C      1  0.5005490000000  0.4160560000000  0.4901650000000 1.0
C      1  0.3992670000000  0.4212890000000  0.4377130000000 1.0
C      1  0.4654060000000  0.6057410000000  0.4887820000000 1.0
C      1  0.4945090000000  0.4733700000000  0.5858740000000 1.0
C      1  0.5116370000000  0.4965060000000  0.5892390000000 1.0
C      1  0.4644120000000  0.4623280000000  0.4646170000000 1.0
C      1  0.5433060000000  0.4077610000000  0.5692730000000 1.0
C      1  0.4763470000000  0.5418590000000  0.4241850000000 1.0
C      1  0.4586400000000  0.4581060000000  0.4094540000000 1.0
C      1  0.5432540000000  0.4851130000000  0.5126980000000 1.0
C      1  0.5610450000000  0.3682080000000  0.5186240000000 1.0
C      1  0.5086990000000  0.5434910000000  0.4849380000000 1.0
C      1  0.5803060000000  0.3519110000000  0.5289840000000 1.0
C      1  0.5372330000000  0.5333370000000  0.5218750000000 1.0
C      1  0.4955520000000  0.4284410000000  0.5156510000000 1.0
C      1  0.4597400000000  0.4893450000000  0.4647850000000 1.0
C      1  0.4722060000000  0.5412010000000  0.5504000000000 1.0
C      1  0.5548700000000  0.4886530000000  0.6109190000000 1.0
C      1  0.5828910000000  0.5396250000000  0.5006230000000 1.0
C      1  0.4992450000000  0.5209080000000  0.5829190000000 1.0
C      1  0.5084960000000  0.5406960000000  0.3911960000000 1.0
C      1  0.4698330000000  0.5169030000000  0.4697510000000 1.0
C      1  0.4976450000000  0.5314820000000  0.5571620000000 1.0
C      1  0.5595470000000  0.4379430000000  0.4831510000000 1.0
C      1  0.4946330000000  0.4943020000000  0.4374080000000 1.0
C      1  0.4638980000000  0.4763730000000  0.5805940000000 1.0
C      1  0.5400090000000  0.5006780000000  0.5913330000000 1.0
C      1  0.6342240000000  0.5376400000000  0.5170470000000 1.0
C      1  0.5399780000000  0.5919920000000  0.4755520000000 1.0
C      1  0.4643100000000  0.4843640000000  0.5095980000000 1.0
C      1  0.5620070000000  0.4105540000000  0.5451950000000 1.0
C      1  0.5386740000000  0.5710540000000  0.5515810000000 1.0
C      1  0.5466280000000  0.5476490000000  0.5681560000000 1.0
C      1  0.4103610000000  0.5162680000000  0.5332320000000 1.0
C      1  0.5759230000000  0.5314440000000  0.4740520000000 1.0
C      1  0.5274150000000  0.5873320000000  0.4514100000000 1.0
C      1  0.4679840000000  0.6289450000000  0.5336300000000 1.0
C      1  0.4330740000000  0.5086450000000  0.5524390000000 1.0
C      1  0.4032050000000  0.4946780000000  0.4798850000000 1.0
C      1  0.5767260000000  0.4592980000000  0.5248710000000 1.0
C      1  0.5612330000000  0.4120060000000  0.4956470000000 1.0
C      1  0.5386580000000  0.5005920000000  0.4891180000000 1.0
C      1  0.4695570000000  0.4375320000000  0.5188520000000 1.0
C      1  0.4547250000000  0.5277070000000  0.4916090000000 1.0
C      1  0.5791230000000  0.4572860000000  0.4943990000000 1.0
C      1  0.5382610000000  0.3581170000000  0.5056590000000 1.0
C      1  0.4804520000000  0.4975870000000  0.3781830000000 1.0
C      1  0.4971370000000  0.5682340000000  0.4941910000000 1.0
C      1  0.4000170000000  0.5418900000000  0.5418960000000 1.0
C      1  0.4270000000000  0.5326490000000  0.4872450000000 1.0
C      1  0.5011070000000  0.5549550000000  0.4149350000000 1.0
C      1  0.5628880000000  0.3965340000000  0.5200830000000 1.0
C      1  0.5024030000000  0.4438190000000  0.5845930000000 1.0
C      1  0.5121910000000  0.5824200000000  0.5137050000000 1.0
C      1  0.4787530000000  0.5785520000000  0.4501360000000 1.0
C      1  0.4595330000000  0.5602760000000  0.4384120000000 1.0
C      1  0.5525510000000  0.5186210000000  0.5717430000000 1.0
C      1  0.4837100000000  0.4511980000000  0.4233480000000 1.0
C      1  0.5115530000000  0.5803530000000  0.5428460000000 1.0
C      1  0.4375320000000  0.5738900000000  0.5555480000000 1.0
C      1  0.5624710000000  0.5479170000000  0.5189280000000 1.0
C      1  0.4324340000000  0.4453660000000  0.5607100000000 1.0
C      1  0.4609400000000  0.4843550000000  0.3944970000000 1.0
C      1  0.5297100000000  0.5270160000000  0.4952660000000 1.0
C      1  0.4281440000000  0.4900680000000  0.4309120000000 1.0
C      1  0.5849130000000  0.4802390000000  0.4771780000000 1.0
C      1  0.5393180000000  0.5881620000000  0.5041800000000 1.0
C      1  0.4651850000000  0.5681420000000  0.5549280000000 1.0
C      1  0.4788130000000  0.6145960000000  0.5536110000000 1.0
C      1  0.6095750000000  0.5393050000000  0.5087580000000 1.0
C      1  0.5503200000000  0.4866370000000  0.4199740000000 1.0
C      1  0.4138480000000  0.5038000000000  0.4525980000000 1.0
C      1  0.4529600000000  0.4601750000000  0.5191380000000 1.0
C      1  0.4130660000000  0.5639860000000  0.5504290000000 1.0
C      1  0.5163400000000  0.4443010000000  0.5268620000000 1.0
C      1  0.5319190000000  0.4522820000000  0.4791150000000 1.0
C      1  0.5069320000000  0.4356130000000  0.4695970000000 1.0
C      1  0.5653730000000  0.4856470000000  0.5305500000000 1.0
C      1  0.4205970000000  0.5325060000000  0.4586530000000 1.0
C      1  0.5623770000000  0.4397840000000  0.5413160000000 1.0
C      1  0.5292640000000  0.4728890000000  0.4105400000000 1.0
C      1  0.4840990000000  0.4448080000000  0.4523900000000 1.0
C      1  0.4744130000000  0.5138300000000  0.4266850000000 1.0
C      1  0.5029550000000  0.4880760000000  0.4652510000000 1.0
C      1  0.4326150000000  0.4613050000000  0.4242600000000 1.0
C      1  0.5025100000000  0.3884950000000  0.4870620000000 1.0
C      1  0.4621510000000  0.6239780000000  0.5079730000000 1.0
C      1  0.5339250000000  0.4457530000000  0.5490530000000 1.0
C      1  0.5297010000000  0.4808170000000  0.4689350000000 1.0
C      1  0.5052810000000  0.5766960000000  0.4360050000000 1.0
C      1  0.4283010000000  0.5031420000000  0.6003870000000 1.0
C      1  0.5287140000000  0.4605020000000  0.5083000000000 1.0
END
