TITL C-599895-9959-1005 -32716.3498798912 125000 -1161.91318239007 0 0 188 (C1) n - 1
REM
REM in /home/nfs/bkarasulu/CARBON/AIRSS/Generating-Clusters/TERSOFF/Only-C1/FIRE-HFTN
REM
REM
REM
REM
REM
REM ./C.cell (11c1c37f851c82e70ff6c80c92926a4b)
REM AIRSS Version 0.9.1 bugfix July 2018 build 013d7b7c2542+ Fri, 06 Jul 2018 19:26:36 +0100
REM compiler GCC version 9.2.1 20190827 (Red Hat 9.2.1-1)
REM options -cpp -mtune=generic -march=x86-64 -g -O0 -fpre-include=/usr/include/finclude/math-vector-fortran.h
REM seed 680799729 -2037211224 684309991 1589220817 -695360441 1858993550 1227406363 -1574044099 492243053 508571666 1436869147 1492250695 -968579159 -1208972332 -907304445 537824562 861125167 712855831 480982175 1692170017 -1757915502 782848916 1577523964 1407871116 -1625447130 -613265717 -150847670 -427217407 1996749604 -1962664287 -572596776 1256636176 1527684978
REM
CELL 1.54180   50.00000   50.00000   50.00000   90.00000   90.00000   90.00000
LATT -1
SFAC C  
C      1  0.4909170000000  0.4301660000000  0.3984490000000 1.0
C      1  0.5395120000000  0.4022990000000  0.5113390000000 1.0
C      1  0.5354020000000  0.6058350000000  0.4835450000000 1.0
C      1  0.5369420000000  0.4534090000000  0.4923220000000 1.0
C      1  0.5332450000000  0.4239940000000  0.4903550000000 1.0
C      1  0.6149610000000  0.4599110000000  0.5195980000000 1.0
C      1  0.4587600000000  0.5954280000000  0.5305350000000 1.0
C      1  0.6305310000000  0.5467060000000  0.5685660000000 1.0
C      1  0.4504530000000  0.4089880000000  0.4618940000000 1.0
C      1  0.3630380000000  0.5190330000000  0.4829490000000 1.0
C      1  0.4465740000000  0.5194320000000  0.5480370000000 1.0
C      1  0.5641020000000  0.5718570000000  0.4910700000000 1.0
C      1  0.6142560000000  0.4729700000000  0.5696300000000 1.0
C      1  0.5333750000000  0.5413010000000  0.4929110000000 1.0
C      1  0.4546210000000  0.4953990000000  0.5979880000000 1.0
C      1  0.4568140000000  0.4563480000000  0.4192620000000 1.0
C      1  0.4747700000000  0.5251010000000  0.5515250000000 1.0
C      1  0.5811120000000  0.5680800000000  0.4665520000000 1.0
C      1  0.5993870000000  0.5021770000000  0.4502390000000 1.0
C      1  0.5715620000000  0.4637960000000  0.4104480000000 1.0
C      1  0.5053620000000  0.4548840000000  0.5558010000000 1.0
C      1  0.4235420000000  0.4656170000000  0.5673810000000 1.0
C      1  0.4615660000000  0.6100650000000  0.4609470000000 1.0
C      1  0.5066540000000  0.5081780000000  0.4638970000000 1.0
C      1  0.4172500000000  0.4945270000000  0.5133750000000 1.0
C      1  0.4871710000000  0.5585150000000  0.4413480000000 1.0
C      1  0.5018010000000  0.5819950000000  0.5765110000000 1.0
C      1  0.5718330000000  0.5161060000000  0.5752760000000 1.0
C      1  0.4691480000000  0.3777300000000  0.5011620000000 1.0
C      1  0.4293770000000  0.5737960000000  0.4457030000000 1.0
C      1  0.5759530000000  0.4561430000000  0.5474240000000 1.0
C      1  0.5068860000000  0.5466570000000  0.5023390000000 1.0
C      1  0.5130040000000  0.6037210000000  0.4193710000000 1.0
C      1  0.6043550000000  0.4553240000000  0.4702210000000 1.0
C      1  0.6156750000000  0.4820010000000  0.4644750000000 1.0
C      1  0.4910130000000  0.5022020000000  0.5523200000000 1.0
C      1  0.5554080000000  0.4736260000000  0.4888520000000 1.0
C      1  0.5823860000000  0.6094920000000  0.5096980000000 1.0
C      1  0.4825140000000  0.4742220000000  0.5521380000000 1.0
C      1  0.5378640000000  0.5214860000000  0.5365710000000 1.0
C      1  0.4491140000000  0.5950600000000  0.4390460000000 1.0
C      1  0.6334660000000  0.4792040000000  0.5098220000000 1.0
C      1  0.5243800000000  0.4627620000000  0.6060990000000 1.0
C      1  0.5184140000000  0.6080410000000  0.3942470000000 1.0
C      1  0.4913170000000  0.4463610000000  0.5056290000000 1.0
C      1  0.5509510000000  0.5076160000000  0.3911790000000 1.0
C      1  0.5805640000000  0.5259590000000  0.4943680000000 1.0
C      1  0.4984080000000  0.4743650000000  0.4287090000000 1.0
C      1  0.5170870000000  0.3833830000000  0.5028200000000 1.0
C      1  0.5024310000000  0.4605770000000  0.4534600000000 1.0
C      1  0.4535400000000  0.4453910000000  0.5987750000000 1.0
C      1  0.5353580000000  0.5711420000000  0.5383030000000 1.0
C      1  0.4908530000000  0.6129530000000  0.4646840000000 1.0
C      1  0.5323780000000  0.5528280000000  0.4661180000000 1.0
C      1  0.5015780000000  0.4232510000000  0.4944730000000 1.0
C      1  0.4753620000000  0.5405580000000  0.3991810000000 1.0
C      1  0.4907800000000  0.5481220000000  0.5489390000000 1.0
C      1  0.4235480000000  0.6096160000000  0.5023260000000 1.0
C      1  0.4548070000000  0.5793520000000  0.5757470000000 1.0
C      1  0.5223790000000  0.5297750000000  0.4506920000000 1.0
C      1  0.4385280000000  0.5490160000000  0.4330370000000 1.0
C      1  0.4998490000000  0.4097340000000  0.4526750000000 1.0
C      1  0.4494820000000  0.5248840000000  0.5939140000000 1.0
C      1  0.5918340000000  0.4429800000000  0.4481030000000 1.0
C      1  0.4232910000000  0.5405540000000  0.4917520000000 1.0
C      1  0.4743970000000  0.5408800000000  0.6017280000000 1.0
C      1  0.4820580000000  0.5647870000000  0.4667900000000 1.0
C      1  0.5597900000000  0.6151150000000  0.4954260000000 1.0
C      1  0.5685230000000  0.4443640000000  0.4315950000000 1.0
C      1  0.4924150000000  0.6069080000000  0.5630380000000 1.0
C      1  0.4273590000000  0.4254370000000  0.4683300000000 1.0
C      1  0.5575990000000  0.4790110000000  0.5427940000000 1.0
C      1  0.4932160000000  0.4823730000000  0.4710830000000 1.0
C      1  0.5241350000000  0.4698870000000  0.3919890000000 1.0
C      1  0.4584240000000  0.5038440000000  0.4356760000000 1.0
C      1  0.6037730000000  0.4613910000000  0.5459530000000 1.0
C      1  0.5048100000000  0.6269240000000  0.5156190000000 1.0
C      1  0.5754020000000  0.5581460000000  0.4406030000000 1.0
C      1  0.5159520000000  0.4347140000000  0.4484310000000 1.0
C      1  0.5194870000000  0.5241080000000  0.6220420000000 1.0
C      1  0.4519880000000  0.5004210000000  0.3808990000000 1.0
C      1  0.4435370000000  0.6154620000000  0.4826250000000 1.0
C      1  0.5425940000000  0.4299340000000  0.5698620000000 1.0
C      1  0.5426130000000  0.4462480000000  0.5939310000000 1.0
C      1  0.5043050000000  0.6224030000000  0.5423880000000 1.0
C      1  0.4713330000000  0.4802700000000  0.4254290000000 1.0
C      1  0.4679310000000  0.5216210000000  0.4958970000000 1.0
C      1  0.5518320000000  0.5726370000000  0.5164280000000 1.0
C      1  0.5020160000000  0.5083240000000  0.3733380000000 1.0
C      1  0.3820300000000  0.4417510000000  0.4631590000000 1.0
C      1  0.5448690000000  0.5173800000000  0.6274560000000 1.0
C      1  0.6021060000000  0.4442910000000  0.4984190000000 1.0
C      1  0.5722530000000  0.5358190000000  0.4234180000000 1.0
C      1  0.4115280000000  0.4473020000000  0.4244270000000 1.0
C      1  0.5472770000000  0.5308500000000  0.4087540000000 1.0
C      1  0.4400070000000  0.4954790000000  0.5320090000000 1.0
C      1  0.5538370000000  0.5206490000000  0.5094730000000 1.0
C      1  0.4891670000000  0.4017280000000  0.5914180000000 1.0
C      1  0.3797990000000  0.5108960000000  0.4625500000000 1.0
C      1  0.5150280000000  0.4280970000000  0.5607990000000 1.0
C      1  0.4926420000000  0.4201950000000  0.6122190000000 1.0
C      1  0.4935760000000  0.5208540000000  0.6118050000000 1.0
C      1  0.5101530000000  0.3874460000000  0.4716180000000 1.0
C      1  0.3641120000000  0.4753450000000  0.5016100000000 1.0
C      1  0.3684410000000  0.5038300000000  0.5071850000000 1.0
C      1  0.4758330000000  0.5169540000000  0.3824980000000 1.0
C      1  0.4780770000000  0.5676540000000  0.5905490000000 1.0
C      1  0.4965090000000  0.4687750000000  0.6103970000000 1.0
C      1  0.5097340000000  0.5983470000000  0.4464690000000 1.0
C      1  0.6017840000000  0.5451640000000  0.5007540000000 1.0
C      1  0.4351640000000  0.5348190000000  0.5701320000000 1.0
C      1  0.3945340000000  0.4871760000000  0.4692580000000 1.0
C      1  0.5089580000000  0.6187880000000  0.4886510000000 1.0
C      1  0.5288370000000  0.4698370000000  0.5456300000000 1.0
C      1  0.4329380000000  0.4825340000000  0.3896180000000 1.0
C      1  0.3767960000000  0.4652650000000  0.4775240000000 1.0
C      1  0.4616660000000  0.3968760000000  0.5851000000000 1.0
C      1  0.4228250000000  0.4314610000000  0.4964660000000 1.0
C      1  0.4275050000000  0.4184590000000  0.5630480000000 1.0
C      1  0.5130230000000  0.5652120000000  0.5553380000000 1.0
C      1  0.4042700000000  0.5779480000000  0.4553640000000 1.0
C      1  0.4864050000000  0.3879920000000  0.5452230000000 1.0
C      1  0.4893880000000  0.5672100000000  0.4938060000000 1.0
C      1  0.4183820000000  0.4871150000000  0.4850600000000 1.0
C      1  0.4419030000000  0.4704840000000  0.5892490000000 1.0
C      1  0.4463010000000  0.5297570000000  0.4785880000000 1.0
C      1  0.4030350000000  0.5386460000000  0.5119070000000 1.0
C      1  0.5851170000000  0.4206750000000  0.5032770000000 1.0
C      1  0.5772750000000  0.4079800000000  0.4784160000000 1.0
C      1  0.5015290000000  0.4038300000000  0.5648620000000 1.0
C      1  0.5136480000000  0.4638690000000  0.5037500000000 1.0
C      1  0.4423810000000  0.4802530000000  0.4732820000000 1.0
C      1  0.4311790000000  0.5942780000000  0.5252480000000 1.0
C      1  0.5844390000000  0.5047320000000  0.5976890000000 1.0
C      1  0.6342550000000  0.4895940000000  0.4846810000000 1.0
C      1  0.4554440000000  0.3878550000000  0.4804290000000 1.0
C      1  0.5788960000000  0.5095640000000  0.4695680000000 1.0
C      1  0.4967890000000  0.5456390000000  0.4174980000000 1.0
C      1  0.5695580000000  0.5085060000000  0.6213140000000 1.0
C      1  0.4309540000000  0.4611790000000  0.4090620000000 1.0
C      1  0.5097960000000  0.5089010000000  0.5297490000000 1.0
C      1  0.4068500000000  0.4354310000000  0.4501600000000 1.0
C      1  0.4605650000000  0.4736990000000  0.5322210000000 1.0
C      1  0.5737920000000  0.4920440000000  0.4044450000000 1.0
C      1  0.4649000000000  0.5998200000000  0.5577390000000 1.0
C      1  0.4919890000000  0.3804710000000  0.5182450000000 1.0
C      1  0.5296870000000  0.5837930000000  0.4629780000000 1.0
C      1  0.5552590000000  0.5071690000000  0.5553610000000 1.0
C      1  0.4327190000000  0.5635840000000  0.5655100000000 1.0
C      1  0.4167270000000  0.3800350000000  0.5326900000000 1.0
C      1  0.6053760000000  0.5622760000000  0.5237340000000 1.0
C      1  0.3985870000000  0.5592460000000  0.5300510000000 1.0
C      1  0.4531640000000  0.5568900000000  0.4079320000000 1.0
C      1  0.4682590000000  0.4616190000000  0.5075960000000 1.0
C      1  0.5174760000000  0.4822490000000  0.5226800000000 1.0
C      1  0.4796690000000  0.4454960000000  0.6110870000000 1.0
C      1  0.4931860000000  0.5232280000000  0.5092690000000 1.0
C      1  0.4827720000000  0.4939170000000  0.6084000000000 1.0
C      1  0.5434280000000  0.4851320000000  0.4410710000000 1.0
C      1  0.4707870000000  0.4312110000000  0.4190540000000 1.0
C      1  0.4336630000000  0.3940010000000  0.5486590000000 1.0
C      1  0.5248360000000  0.4777140000000  0.4200110000000 1.0
C      1  0.3981780000000  0.6195170000000  0.4998270000000 1.0
C      1  0.4181410000000  0.5749210000000  0.5424920000000 1.0
C      1  0.5982010000000  0.5901500000000  0.5206430000000 1.0
C      1  0.4569720000000  0.5862500000000  0.4121380000000 1.0
C      1  0.4201550000000  0.4426250000000  0.5500490000000 1.0
C      1  0.5629370000000  0.4304700000000  0.5489920000000 1.0
C      1  0.5452750000000  0.4312410000000  0.4441120000000 1.0
C      1  0.4596700000000  0.3853850000000  0.5575780000000 1.0
C      1  0.5577410000000  0.4895810000000  0.4655840000000 1.0
C      1  0.5599720000000  0.4884540000000  0.5124850000000 1.0
C      1  0.5100290000000  0.4458210000000  0.3869810000000 1.0
C      1  0.5523030000000  0.4162270000000  0.4678530000000 1.0
C      1  0.6167250000000  0.5528760000000  0.5473390000000 1.0
C      1  0.5272250000000  0.4954300000000  0.3790030000000 1.0
C      1  0.6056680000000  0.4872360000000  0.5910130000000 1.0
C      1  0.5883480000000  0.5101330000000  0.4240120000000 1.0
C      1  0.4467670000000  0.5264750000000  0.4491730000000 1.0
C      1  0.4721370000000  0.4144330000000  0.4431430000000 1.0
C      1  0.5642050000000  0.4142440000000  0.5244570000000 1.0
C      1  0.3944240000000  0.5118490000000  0.5177360000000 1.0
C      1  0.6067440000000  0.5597300000000  0.4765010000000 1.0
C      1  0.4440840000000  0.4203620000000  0.5872100000000 1.0
C      1  0.4177500000000  0.4403270000000  0.5216050000000 1.0
C      1  0.4677580000000  0.4766450000000  0.4832750000000 1.0
C      1  0.5223690000000  0.5343400000000  0.4220790000000 1.0
C      1  0.4762990000000  0.5838020000000  0.5120320000000 1.0
END
