TITL C-599893-4344-3 0.124621540161412 125000 -393.662258150466 0 0 66 (C1) n - 1
REM
REM in /home/nfs/bkarasulu/CARBON/AIRSS/Generating-Clusters/TERSOFF/Only-C1/FIRE-HFTN
REM
REM
REM
REM
REM
REM ./C.cell (11c1c37f851c82e70ff6c80c92926a4b)
REM AIRSS Version 0.9.1 bugfix July 2018 build 013d7b7c2542+ Fri, 06 Jul 2018 19:26:36 +0100
REM compiler GCC version 9.2.1 20190827 (Red Hat 9.2.1-1)
REM options -cpp -mtune=generic -march=x86-64 -g -O0 -fpre-include=/usr/include/finclude/math-vector-fortran.h
REM seed 477516758 473024406 -331281222 384508137 1680476746 -1885548901 -223274814 218482100 -1769550443 -492816992 -1769919912 -2108217496 470108171 325078495 -1543181123 -1684034736 -1165930665 125249184 -666412101 46566582 475616456 1838639578 1348256563 -1466083628 -1856398321 -21896299 -1194673584 -809503321 -956304730 1600433833 248715409 876558366 982182929
REM
CELL 1.54180   50.00000   50.00000   50.00000   90.00000   90.00000   90.00000
LATT -1
SFAC C  
C      1  0.5550850000000  0.4926270000000  0.5117680000000 1.0
C      1  0.5365190000000  0.5556090000000  0.4248410000000 1.0
C      1  0.4726360000000  0.4641680000000  0.5826600000000 1.0
C      1  0.4564820000000  0.6293560000000  0.4062810000000 1.0
C      1  0.4923150000000  0.4375330000000  0.5487210000000 1.0
C      1  0.4528020000000  0.4894160000000  0.4722130000000 1.0
C      1  0.5582700000000  0.4717770000000  0.4671440000000 1.0
C      1  0.5196500000000  0.4995520000000  0.4796600000000 1.0
C      1  0.5477300000000  0.5168030000000  0.5251900000000 1.0
C      1  0.5115850000000  0.4995170000000  0.5728720000000 1.0
C      1  0.4821610000000  0.4698180000000  0.4351000000000 1.0
C      1  0.4654220000000  0.5657560000000  0.4810290000000 1.0
C      1  0.4818540000000  0.4861280000000  0.5085090000000 1.0
C      1  0.4554580000000  0.4201890000000  0.5236780000000 1.0
C      1  0.5058200000000  0.4715050000000  0.4223210000000 1.0
C      1  0.4721770000000  0.5432190000000  0.5589950000000 1.0
C      1  0.4683820000000  0.4682740000000  0.4597570000000 1.0
C      1  0.5503660000000  0.4645300000000  0.4397300000000 1.0
C      1  0.5058800000000  0.5109830000000  0.4585710000000 1.0
C      1  0.4556510000000  0.5245690000000  0.5443710000000 1.0
C      1  0.5400900000000  0.5052450000000  0.4125610000000 1.0
C      1  0.5079410000000  0.5118270000000  0.5477830000000 1.0
C      1  0.4174450000000  0.5230820000000  0.5134000000000 1.0
C      1  0.5557400000000  0.4243320000000  0.4655350000000 1.0
C      1  0.5177090000000  0.5210250000000  0.5221460000000 1.0
C      1  0.5041190000000  0.5238590000000  0.4353370000000 1.0
C      1  0.5467970000000  0.4915640000000  0.4834790000000 1.0
C      1  0.4783180000000  0.4485660000000  0.4783420000000 1.0
C      1  0.5575530000000  0.4441470000000  0.5100010000000 1.0
C      1  0.4568020000000  0.5490190000000  0.4998880000000 1.0
C      1  0.5110010000000  0.4080000000000  0.4757450000000 1.0
C      1  0.5599690000000  0.5356890000000  0.5429430000000 1.0
C      1  0.5427690000000  0.5526860000000  0.5582070000000 1.0
C      1  0.4761720000000  0.4380010000000  0.5258650000000 1.0
C      1  0.5871410000000  0.5374250000000  0.5452310000000 1.0
C      1  0.4963730000000  0.4546150000000  0.5705310000000 1.0
C      1  0.5519650000000  0.4354580000000  0.4393680000000 1.0
C      1  0.4583680000000  0.4997650000000  0.4987100000000 1.0
C      1  0.5108850000000  0.5747030000000  0.4664940000000 1.0
C      1  0.4803460000000  0.4575180000000  0.5056970000000 1.0
C      1  0.5271930000000  0.5294550000000  0.4199260000000 1.0
C      1  0.4949880000000  0.5444740000000  0.5768760000000 1.0
C      1  0.5378260000000  0.4105270000000  0.4835970000000 1.0
C      1  0.3646480000000  0.5189270000000  0.5121410000000 1.0
C      1  0.4897960000000  0.4238680000000  0.4717180000000 1.0
C      1  0.3386700000000  0.5168090000000  0.5115570000000 1.0
C      1  0.5185310000000  0.5657750000000  0.4920190000000 1.0
C      1  0.5187230000000  0.5585000000000  0.5692440000000 1.0
C      1  0.4474610000000  0.5242510000000  0.5141310000000 1.0
C      1  0.5141600000000  0.5483280000000  0.5117200000000 1.0
C      1  0.5650360000000  0.4477400000000  0.4819720000000 1.0
C      1  0.5534100000000  0.4672720000000  0.5262510000000 1.0
C      1  0.5406480000000  0.4028710000000  0.5330600000000 1.0
C      1  0.5333720000000  0.4791900000000  0.4224760000000 1.0
C      1  0.4471950000000  0.5021380000000  0.5597330000000 1.0
C      1  0.4535200000000  0.4816470000000  0.5756690000000 1.0
C      1  0.3910590000000  0.5210770000000  0.5127360000000 1.0
C      1  0.5282720000000  0.5725640000000  0.4442900000000 1.0
C      1  0.4828060000000  0.5794300000000  0.4635250000000 1.0
C      1  0.4730490000000  0.5969570000000  0.4442110000000 1.0
C      1  0.5056440000000  0.5006700000000  0.5040550000000 1.0
C      1  0.5013060000000  0.5194780000000  0.5906810000000 1.0
C      1  0.5189140000000  0.4722430000000  0.5696340000000 1.0
C      1  0.4646370000000  0.6133000000000  0.4251310000000 1.0
C      1  0.5444650000000  0.4182000000000  0.5109580000000 1.0
C      1  0.5409260000000  0.4664550000000  0.5520130000000 1.0
END
