TITL C-599893-4344-778 0.101367582399245 125000 -231.229253673657 0 0 39 (C1) n - 1
REM
REM in /home/nfs/bkarasulu/CARBON/AIRSS/Generating-Clusters/TERSOFF/Only-C1/FIRE-HFTN
REM
REM
REM
REM
REM
REM ./C.cell (11c1c37f851c82e70ff6c80c92926a4b)
REM AIRSS Version 0.9.1 bugfix July 2018 build 013d7b7c2542+ Fri, 06 Jul 2018 19:26:36 +0100
REM compiler GCC version 9.2.1 20190827 (Red Hat 9.2.1-1)
REM options -cpp -mtune=generic -march=x86-64 -g -O0 -fpre-include=/usr/include/finclude/math-vector-fortran.h
REM seed -2106251529 -338603731 -1319857786 10331164 501190061 -1137916856 -1666398486 1261476934 -485404208 -1738794097 -1663629287 -1102691748 -2040848268 1163060748 -1913550949 -1155268580 -668460073 639338273 -1145499732 -1625673662 -882774562 1208044155 -116695085 179086587 220384015 -90419992 -2052158096 -514312712 -1554397391 1149006822 -831728421 1988373894 -654800991
REM
CELL 1.54180   50.00000   50.00000   50.00000   90.00000   90.00000   90.00000
LATT -1
SFAC C  
C      1  0.4779110000000  0.5069540000000  0.4580110000000 1.0
C      1  0.5168220000000  0.4417100000000  0.4466820000000 1.0
C      1  0.4272240000000  0.5606060000000  0.5890500000000 1.0
C      1  0.4393980000000  0.5392490000000  0.5779270000000 1.0
C      1  0.4655490000000  0.4834140000000  0.4563850000000 1.0
C      1  0.4875820000000  0.4758370000000  0.5295810000000 1.0
C      1  0.4154690000000  0.5338540000000  0.5368020000000 1.0
C      1  0.3931700000000  0.5726960000000  0.5567960000000 1.0
C      1  0.4885670000000  0.5259710000000  0.5208670000000 1.0
C      1  0.5402100000000  0.4007350000000  0.4582000000000 1.0
C      1  0.5346260000000  0.4270110000000  0.4631810000000 1.0
C      1  0.4990450000000  0.5461000000000  0.4776200000000 1.0
C      1  0.5269790000000  0.4910540000000  0.4344450000000 1.0
C      1  0.5291780000000  0.4530650000000  0.5040510000000 1.0
C      1  0.5460760000000  0.4408360000000  0.4853520000000 1.0
C      1  0.4771450000000  0.5032040000000  0.5317950000000 1.0
C      1  0.5742660000000  0.4443080000000  0.4873470000000 1.0
C      1  0.5906670000000  0.4230640000000  0.4925660000000 1.0
C      1  0.5719890000000  0.5404610000000  0.5001150000000 1.0
C      1  0.3974240000000  0.5538880000000  0.5378320000000 1.0
C      1  0.4924760000000  0.5703480000000  0.4668080000000 1.0
C      1  0.5502340000000  0.5232210000000  0.4610380000000 1.0
C      1  0.5040830000000  0.5433930000000  0.5055580000000 1.0
C      1  0.4067000000000  0.5757450000000  0.5800490000000 1.0
C      1  0.4481450000000  0.4751740000000  0.5542410000000 1.0
C      1  0.5261570000000  0.4644540000000  0.4330610000000 1.0
C      1  0.4361550000000  0.5246550000000  0.5538510000000 1.0
C      1  0.5272670000000  0.5549150000000  0.5163450000000 1.0
C      1  0.5843770000000  0.4966020000000  0.4821350000000 1.0
C      1  0.4689670000000  0.4570740000000  0.4535480000000 1.0
C      1  0.5258970000000  0.5137860000000  0.4508890000000 1.0
C      1  0.5008420000000  0.5228470000000  0.4612760000000 1.0
C      1  0.5847150000000  0.4701360000000  0.4843310000000 1.0
C      1  0.4522530000000  0.5029070000000  0.5473300000000 1.0
C      1  0.4685080000000  0.4595550000000  0.5440160000000 1.0
C      1  0.5539020000000  0.5538840000000  0.5145710000000 1.0
C      1  0.5708370000000  0.5209400000000  0.4800010000000 1.0
C      1  0.5102660000000  0.4667050000000  0.5166870000000 1.0
C      1  0.4889270000000  0.4396410000000  0.4496600000000 1.0
END
