TITL C-599896-8500-162 -0.00698841738491618 125000 -1043.15094993955 0 0 170 (C1) n - 1
REM
REM in /home/nfs/bkarasulu/CARBON/AIRSS/Generating-Clusters/TERSOFF/Only-C1/FIRE-HFTN
REM
REM
REM
REM
REM
REM ./C.cell (11c1c37f851c82e70ff6c80c92926a4b)
REM AIRSS Version 0.9.1 bugfix July 2018 build 013d7b7c2542+ Fri, 06 Jul 2018 19:26:36 +0100
REM compiler GCC version 9.2.1 20190827 (Red Hat 9.2.1-1)
REM options -cpp -mtune=generic -march=x86-64 -g -O0 -fpre-include=/usr/include/finclude/math-vector-fortran.h
REM seed -572389136 1960695963 -442298350 -1681982146 -2026159891 -746609090 1585248989 89482045 983177347 -1880088674 701981300 -194905894 243569785 -1275480982 1803601733 1718532618 -461935006 -88068534 -1201498971 647434733 -1935543653 -330483763 1025902299 -1756164904 -1013859094 1310598705 1331410576 1193638010 903683301 1921038592 -1927287393 -77412346 -1742226279
REM
CELL 1.54180   50.00000   50.00000   50.00000   90.00000   90.00000   90.00000
LATT -1
SFAC C  
C      1  0.5870110000000  0.5885140000000  0.4649620000000 1.0
C      1  0.5285130000000  0.5787680000000  0.5786290000000 1.0
C      1  0.4614380000000  0.5337820000000  0.3955220000000 1.0
C      1  0.4835070000000  0.4268640000000  0.5131090000000 1.0
C      1  0.5384110000000  0.4812870000000  0.4557020000000 1.0
C      1  0.4238790000000  0.5648200000000  0.5675220000000 1.0
C      1  0.4154950000000  0.5759630000000  0.5440240000000 1.0
C      1  0.4616350000000  0.4757850000000  0.5793110000000 1.0
C      1  0.5129980000000  0.3863630000000  0.5352510000000 1.0
C      1  0.4586320000000  0.4696970000000  0.6052820000000 1.0
C      1  0.5450510000000  0.5358790000000  0.4714840000000 1.0
C      1  0.4793120000000  0.5131180000000  0.3858550000000 1.0
C      1  0.4196330000000  0.5072860000000  0.5155250000000 1.0
C      1  0.5656470000000  0.5232150000000  0.6064810000000 1.0
C      1  0.5761950000000  0.5263460000000  0.5801800000000 1.0
C      1  0.5547100000000  0.5838110000000  0.4298390000000 1.0
C      1  0.4456910000000  0.5394170000000  0.4404030000000 1.0
C      1  0.5413350000000  0.5931960000000  0.4780580000000 1.0
C      1  0.4264900000000  0.3899000000000  0.4901620000000 1.0
C      1  0.4768310000000  0.4170000000000  0.5892290000000 1.0
C      1  0.5020490000000  0.3765000000000  0.5107090000000 1.0
C      1  0.4676530000000  0.4242800000000  0.4203850000000 1.0
C      1  0.5613780000000  0.5455510000000  0.5644170000000 1.0
C      1  0.4834610000000  0.5811990000000  0.4058980000000 1.0
C      1  0.5630730000000  0.6412110000000  0.5552320000000 1.0
C      1  0.5605520000000  0.4887390000000  0.4679250000000 1.0
C      1  0.4430510000000  0.5284350000000  0.6015000000000 1.0
C      1  0.4486060000000  0.5376640000000  0.4861870000000 1.0
C      1  0.4465110000000  0.3823520000000  0.5089100000000 1.0
C      1  0.4702580000000  0.5609110000000  0.5217400000000 1.0
C      1  0.5567180000000  0.5471410000000  0.3971280000000 1.0
C      1  0.5757250000000  0.4746410000000  0.4094990000000 1.0
C      1  0.3533240000000  0.5325690000000  0.5430560000000 1.0
C      1  0.6163460000000  0.5015590000000  0.4387110000000 1.0
C      1  0.4542960000000  0.5860030000000  0.5189050000000 1.0
C      1  0.6127190000000  0.4974590000000  0.5148140000000 1.0
C      1  0.4409540000000  0.5644900000000  0.4768020000000 1.0
C      1  0.4421540000000  0.5259870000000  0.4161110000000 1.0
C      1  0.4683100000000  0.5293880000000  0.6156290000000 1.0
C      1  0.5970920000000  0.5121800000000  0.5658060000000 1.0
C      1  0.5191170000000  0.5297150000000  0.4811010000000 1.0
C      1  0.4343800000000  0.4617830000000  0.5451590000000 1.0
C      1  0.4129300000000  0.4132870000000  0.4886910000000 1.0
C      1  0.5957320000000  0.5089710000000  0.4941420000000 1.0
C      1  0.5599730000000  0.5926880000000  0.4562320000000 1.0
C      1  0.6150050000000  0.4691160000000  0.5037270000000 1.0
C      1  0.4257620000000  0.5818760000000  0.5180390000000 1.0
C      1  0.4974120000000  0.4905990000000  0.6200380000000 1.0
C      1  0.5130550000000  0.5945570000000  0.4754720000000 1.0
C      1  0.5197020000000  0.5320760000000  0.6269330000000 1.0
C      1  0.5181020000000  0.5303020000000  0.5743070000000 1.0
C      1  0.3410460000000  0.5482890000000  0.5262720000000 1.0
C      1  0.3676140000000  0.5170070000000  0.5590640000000 1.0
C      1  0.4336300000000  0.4983150000000  0.4209310000000 1.0
C      1  0.5235800000000  0.4101990000000  0.5431100000000 1.0
C      1  0.5351630000000  0.5523430000000  0.5730530000000 1.0
C      1  0.4569920000000  0.5371060000000  0.5126780000000 1.0
C      1  0.5483660000000  0.5309630000000  0.6280390000000 1.0
C      1  0.5603020000000  0.5379640000000  0.6518250000000 1.0
C      1  0.5109220000000  0.4637080000000  0.3707730000000 1.0
C      1  0.4391290000000  0.3893290000000  0.5359260000000 1.0
C      1  0.5769280000000  0.4659330000000  0.5313210000000 1.0
C      1  0.5335480000000  0.4788310000000  0.5175330000000 1.0
C      1  0.5707180000000  0.4966020000000  0.4924060000000 1.0
C      1  0.4032830000000  0.5105190000000  0.4646320000000 1.0
C      1  0.4128830000000  0.4398570000000  0.4381890000000 1.0
C      1  0.4531250000000  0.4163600000000  0.6045480000000 1.0
C      1  0.5150630000000  0.5235550000000  0.5100310000000 1.0
C      1  0.5952670000000  0.4507980000000  0.5151240000000 1.0
C      1  0.5375980000000  0.4318380000000  0.4650040000000 1.0
C      1  0.4166550000000  0.4394850000000  0.4993860000000 1.0
C      1  0.4142190000000  0.4429860000000  0.5863740000000 1.0
C      1  0.5306750000000  0.5842190000000  0.4134390000000 1.0
C      1  0.4623730000000  0.4734580000000  0.5502650000000 1.0
C      1  0.5969250000000  0.6417520000000  0.5157100000000 1.0
C      1  0.5084040000000  0.4576070000000  0.5553030000000 1.0
C      1  0.5504540000000  0.5829940000000  0.5032090000000 1.0
C      1  0.4176870000000  0.5731070000000  0.4911960000000 1.0
C      1  0.5705260000000  0.5437480000000  0.4685970000000 1.0
C      1  0.5120750000000  0.4826230000000  0.5965460000000 1.0
C      1  0.5382580000000  0.4397360000000  0.4904950000000 1.0
C      1  0.5039410000000  0.3962010000000  0.4666610000000 1.0
C      1  0.4241970000000  0.4136440000000  0.5386020000000 1.0
C      1  0.4490890000000  0.4712140000000  0.4877550000000 1.0
C      1  0.4529030000000  0.5212590000000  0.4629670000000 1.0
C      1  0.4740940000000  0.3836980000000  0.5012300000000 1.0
C      1  0.4280430000000  0.4253470000000  0.6010800000000 1.0
C      1  0.4067640000000  0.5029700000000  0.4923050000000 1.0
C      1  0.6018970000000  0.6094270000000  0.4757130000000 1.0
C      1  0.5454040000000  0.6268490000000  0.5689040000000 1.0
C      1  0.4738230000000  0.4595510000000  0.4839050000000 1.0
C      1  0.4795390000000  0.5137410000000  0.4593370000000 1.0
C      1  0.3950780000000  0.5599820000000  0.4792980000000 1.0
C      1  0.5092420000000  0.4571710000000  0.5839040000000 1.0
C      1  0.5304370000000  0.4504670000000  0.5148770000000 1.0
C      1  0.4741400000000  0.4433890000000  0.4397590000000 1.0
C      1  0.3931420000000  0.5374490000000  0.4635590000000 1.0
C      1  0.6046840000000  0.6285000000000  0.4940220000000 1.0
C      1  0.5208880000000  0.3817220000000  0.4884920000000 1.0
C      1  0.5704510000000  0.4034730000000  0.5006140000000 1.0
C      1  0.4696430000000  0.5609440000000  0.3947620000000 1.0
C      1  0.4485270000000  0.4042620000000  0.4263110000000 1.0
C      1  0.5225730000000  0.4383260000000  0.5391140000000 1.0
C      1  0.5327500000000  0.6049400000000  0.5769880000000 1.0
C      1  0.6190020000000  0.5522590000000  0.4695180000000 1.0
C      1  0.6185150000000  0.4674040000000  0.4748320000000 1.0
C      1  0.5467170000000  0.5613680000000  0.5211690000000 1.0
C      1  0.4817900000000  0.4110720000000  0.4860370000000 1.0
C      1  0.4738510000000  0.4077660000000  0.5625580000000 1.0
C      1  0.4247830000000  0.5057670000000  0.6011790000000 1.0
C      1  0.5930600000000  0.5402480000000  0.5293830000000 1.0
C      1  0.4980420000000  0.5927630000000  0.5000480000000 1.0
C      1  0.4243040000000  0.4597290000000  0.4811530000000 1.0
C      1  0.5569530000000  0.5189280000000  0.3941470000000 1.0
C      1  0.5197080000000  0.5500980000000  0.5214270000000 1.0
C      1  0.5114300000000  0.4800500000000  0.4610490000000 1.0
C      1  0.5343790000000  0.5649010000000  0.3919210000000 1.0
C      1  0.4783020000000  0.4237030000000  0.5393830000000 1.0
C      1  0.5345660000000  0.4764270000000  0.3795870000000 1.0
C      1  0.5561110000000  0.4633940000000  0.3926190000000 1.0
C      1  0.4441400000000  0.5244080000000  0.5554000000000 1.0
C      1  0.5064670000000  0.5080830000000  0.4224430000000 1.0
C      1  0.4921610000000  0.4921610000000  0.4425310000000 1.0
C      1  0.4548100000000  0.4803640000000  0.4116440000000 1.0
C      1  0.4094810000000  0.4911330000000  0.5814360000000 1.0
C      1  0.4388000000000  0.5422460000000  0.5764480000000 1.0
C      1  0.4575100000000  0.3853380000000  0.5568870000000 1.0
C      1  0.6011980000000  0.5140440000000  0.4197860000000 1.0
C      1  0.4964520000000  0.5362700000000  0.4651210000000 1.0
C      1  0.5869330000000  0.4243710000000  0.5070610000000 1.0
C      1  0.4855600000000  0.3791770000000  0.4491650000000 1.0
C      1  0.5916930000000  0.4627110000000  0.4303990000000 1.0
C      1  0.4846340000000  0.5618740000000  0.4565320000000 1.0
C      1  0.5710660000000  0.5625810000000  0.4173360000000 1.0
C      1  0.5783390000000  0.5036070000000  0.4064460000000 1.0
C      1  0.6106490000000  0.4752020000000  0.4484380000000 1.0
C      1  0.4980100000000  0.5678950000000  0.5167480000000 1.0
C      1  0.4172240000000  0.4658020000000  0.5696290000000 1.0
C      1  0.5071340000000  0.5131270000000  0.3948600000000 1.0
C      1  0.4742800000000  0.4355410000000  0.4678240000000 1.0
C      1  0.5189180000000  0.5042940000000  0.5799900000000 1.0
C      1  0.4229200000000  0.4157180000000  0.4308680000000 1.0
C      1  0.4984540000000  0.4721150000000  0.4843510000000 1.0
C      1  0.4731610000000  0.4710470000000  0.4318490000000 1.0
C      1  0.5746530000000  0.4617690000000  0.5582170000000 1.0
C      1  0.5007610000000  0.5844650000000  0.4516200000000 1.0
C      1  0.4556400000000  0.5644470000000  0.4518500000000 1.0
C      1  0.3857120000000  0.5028520000000  0.5722530000000 1.0
C      1  0.4911830000000  0.4782920000000  0.5406350000000 1.0
C      1  0.5215460000000  0.4146160000000  0.4520630000000 1.0
C      1  0.4749890000000  0.4748050000000  0.6260070000000 1.0
C      1  0.5931750000000  0.5608470000000  0.4679700000000 1.0
C      1  0.4682050000000  0.4861230000000  0.3864470000000 1.0
C      1  0.5608190000000  0.4848810000000  0.5164820000000 1.0
C      1  0.5816830000000  0.6463180000000  0.5369830000000 1.0
C      1  0.4612920000000  0.3813070000000  0.4370030000000 1.0
C      1  0.5487290000000  0.3883350000000  0.4934820000000 1.0
C      1  0.4150880000000  0.4915050000000  0.4442030000000 1.0
C      1  0.4945240000000  0.5191970000000  0.6231830000000 1.0
C      1  0.5105140000000  0.4965500000000  0.5230010000000 1.0
C      1  0.5679270000000  0.5508890000000  0.5372700000000 1.0
C      1  0.4987140000000  0.4336810000000  0.5955580000000 1.0
C      1  0.5047680000000  0.5883440000000  0.4235190000000 1.0
C      1  0.5328580000000  0.5050870000000  0.3845430000000 1.0
C      1  0.4245390000000  0.4402010000000  0.5275180000000 1.0
C      1  0.4723920000000  0.6047680000000  0.5065570000000 1.0
C      1  0.4841870000000  0.4669160000000  0.3730940000000 1.0
C      1  0.4410650000000  0.5203190000000  0.5285050000000 1.0
C      1  0.4152820000000  0.4635010000000  0.4538490000000 1.0
C      1  0.6057770000000  0.5150010000000  0.5381140000000 1.0
END
