TITL C-599894-471-287 -0.0745892434748469 125000 -554.399833972238 0 0 90 (C1) n - 1
REM
REM in /home/nfs/bkarasulu/CARBON/AIRSS/Generating-Clusters/TERSOFF/Only-C1/FIRE-HFTN
REM
REM
REM
REM
REM
REM ./C.cell (11c1c37f851c82e70ff6c80c92926a4b)
REM AIRSS Version 0.9.1 bugfix July 2018 build 013d7b7c2542+ Fri, 06 Jul 2018 19:26:36 +0100
REM compiler GCC version 9.2.1 20190827 (Red Hat 9.2.1-1)
REM options -cpp -mtune=generic -march=x86-64 -g -O0 -fpre-include=/usr/include/finclude/math-vector-fortran.h
REM seed 684987045 -1445346270 -1215930320 -33614940 546389601 1685233384 191961914 -48906634 -288250834 656291531 1545711537 -2129796067 -333070404 449442112 -1277166811 -1902844300 1557651648 209877852 596596288 1599280165 1606418473 -1332615691 669522638 -582711135 -70472958 -1084458312 517870612 1315471891 -23664488 809011442 529689258 -928720440 -231482735
REM
CELL 1.54180   50.00000   50.00000   50.00000   90.00000   90.00000   90.00000
LATT -1
SFAC C  
C      1  0.5389710000000  0.4126880000000  0.4876920000000 1.0
C      1  0.5021820000000  0.4736360000000  0.4209920000000 1.0
C      1  0.5704930000000  0.5870710000000  0.4982060000000 1.0
C      1  0.5153870000000  0.5484520000000  0.5085020000000 1.0
C      1  0.4135680000000  0.5562860000000  0.4846510000000 1.0
C      1  0.4944780000000  0.4216240000000  0.5663260000000 1.0
C      1  0.5459050000000  0.3986010000000  0.4653950000000 1.0
C      1  0.5014750000000  0.5069360000000  0.5705630000000 1.0
C      1  0.4206550000000  0.5174030000000  0.4498100000000 1.0
C      1  0.5292020000000  0.5722670000000  0.5170580000000 1.0
C      1  0.4424340000000  0.4524470000000  0.4405820000000 1.0
C      1  0.5834120000000  0.4929770000000  0.4879130000000 1.0
C      1  0.5681480000000  0.4077210000000  0.5263130000000 1.0
C      1  0.4212830000000  0.4686390000000  0.4374650000000 1.0
C      1  0.4342400000000  0.4906040000000  0.5120790000000 1.0
C      1  0.5830280000000  0.5205850000000  0.4803100000000 1.0
C      1  0.4663440000000  0.4521120000000  0.5286430000000 1.0
C      1  0.4595060000000  0.5052320000000  0.4738370000000 1.0
C      1  0.4890610000000  0.4930960000000  0.5276750000000 1.0
C      1  0.4586190000000  0.5897150000000  0.4125930000000 1.0
C      1  0.5257560000000  0.5605680000000  0.4454010000000 1.0
C      1  0.4875440000000  0.4752060000000  0.6095750000000 1.0
C      1  0.4492360000000  0.5167270000000  0.4504960000000 1.0
C      1  0.5174500000000  0.4953610000000  0.4282450000000 1.0
C      1  0.4247920000000  0.4307630000000  0.4904530000000 1.0
C      1  0.5383110000000  0.4928270000000  0.4482280000000 1.0
C      1  0.4969800000000  0.4377240000000  0.4919060000000 1.0
C      1  0.4769700000000  0.4367400000000  0.6372620000000 1.0
C      1  0.5423530000000  0.5891020000000  0.4983530000000 1.0
C      1  0.4977220000000  0.4915150000000  0.5011860000000 1.0
C      1  0.4649850000000  0.5282600000000  0.4307070000000 1.0
C      1  0.4487330000000  0.4723090000000  0.5283820000000 1.0
C      1  0.4088940000000  0.4521640000000  0.4940040000000 1.0
C      1  0.5488400000000  0.5463600000000  0.5523060000000 1.0
C      1  0.4839660000000  0.5857300000000  0.4545750000000 1.0
C      1  0.4361870000000  0.6197720000000  0.4998230000000 1.0
C      1  0.5264360000000  0.4386420000000  0.4863390000000 1.0
C      1  0.4649630000000  0.5320040000000  0.5125330000000 1.0
C      1  0.5892240000000  0.5678800000000  0.4995500000000 1.0
C      1  0.5938440000000  0.5417680000000  0.4953890000000 1.0
C      1  0.5354200000000  0.4865800000000  0.4753850000000 1.0
C      1  0.5623220000000  0.4630020000000  0.5702490000000 1.0
C      1  0.5432130000000  0.4030000000000  0.5142100000000 1.0
C      1  0.4656980000000  0.5909300000000  0.4753450000000 1.0
C      1  0.4307720000000  0.5652000000000  0.5305290000000 1.0
C      1  0.4501160000000  0.4232580000000  0.4853290000000 1.0
C      1  0.4099660000000  0.4929320000000  0.4406970000000 1.0
C      1  0.5510950000000  0.5520620000000  0.4554360000000 1.0
C      1  0.5601160000000  0.5095910000000  0.4385410000000 1.0
C      1  0.5678290000000  0.5272100000000  0.3912940000000 1.0
C      1  0.5297030000000  0.5234190000000  0.5140990000000 1.0
C      1  0.4829640000000  0.5488150000000  0.4248700000000 1.0
C      1  0.4114370000000  0.4782590000000  0.5006530000000 1.0
C      1  0.5727770000000  0.4666470000000  0.4931360000000 1.0
C      1  0.5405660000000  0.5703520000000  0.5429510000000 1.0
C      1  0.4934740000000  0.4968570000000  0.5953220000000 1.0
C      1  0.5230760000000  0.5209630000000  0.4151090000000 1.0
C      1  0.4891560000000  0.4309070000000  0.5906110000000 1.0
C      1  0.4886900000000  0.4369270000000  0.5201200000000 1.0
C      1  0.4486280000000  0.5123690000000  0.4992860000000 1.0
C      1  0.5204370000000  0.4014140000000  0.5304970000000 1.0
C      1  0.4444140000000  0.5500820000000  0.5487130000000 1.0
C      1  0.4819060000000  0.4892760000000  0.4779690000000 1.0
C      1  0.5858540000000  0.4490910000000  0.5104800000000 1.0
C      1  0.4689560000000  0.4449290000000  0.4477290000000 1.0
C      1  0.4436140000000  0.5943420000000  0.4926440000000 1.0
C      1  0.4627860000000  0.4163410000000  0.6835840000000 1.0
C      1  0.5452590000000  0.4613390000000  0.4844370000000 1.0
C      1  0.5236430000000  0.5016970000000  0.4963830000000 1.0
C      1  0.5803660000000  0.4323410000000  0.5323500000000 1.0
C      1  0.5122920000000  0.5829850000000  0.4578100000000 1.0
C      1  0.5387740000000  0.5218580000000  0.5419180000000 1.0
C      1  0.5524220000000  0.5202420000000  0.4123950000000 1.0
C      1  0.5451150000000  0.4832290000000  0.5711550000000 1.0
C      1  0.5287850000000  0.5038310000000  0.5616540000000 1.0
C      1  0.4742150000000  0.5754960000000  0.4297810000000 1.0
C      1  0.5111210000000  0.5443740000000  0.4260940000000 1.0
C      1  0.4740510000000  0.4338710000000  0.4737180000000 1.0
C      1  0.4698210000000  0.4264580000000  0.6606100000000 1.0
C      1  0.4092470000000  0.5380690000000  0.4653130000000 1.0
C      1  0.4844960000000  0.4475410000000  0.6126760000000 1.0
C      1  0.4827030000000  0.5104080000000  0.5495980000000 1.0
C      1  0.4890060000000  0.4524920000000  0.4300390000000 1.0
C      1  0.4641350000000  0.5308420000000  0.5418100000000 1.0
C      1  0.5271640000000  0.5977420000000  0.4764820000000 1.0
C      1  0.4284120000000  0.5721740000000  0.5028950000000 1.0
C      1  0.5676730000000  0.5289940000000  0.4576040000000 1.0
C      1  0.5763320000000  0.4444150000000  0.5572990000000 1.0
C      1  0.5006890000000  0.4193230000000  0.5391430000000 1.0
C      1  0.4877170000000  0.5460090000000  0.5027290000000 1.0
END
