TITL C-599894-471-646 2017.13175092512 125000 -899.871070787715 0 0 148 (C1) n - 1
REM
REM in /home/nfs/bkarasulu/CARBON/AIRSS/Generating-Clusters/TERSOFF/Only-C1/FIRE-HFTN
REM
REM
REM
REM
REM
REM ./C.cell (11c1c37f851c82e70ff6c80c92926a4b)
REM AIRSS Version 0.9.1 bugfix July 2018 build 013d7b7c2542+ Fri, 06 Jul 2018 19:26:36 +0100
REM compiler GCC version 9.2.1 20190827 (Red Hat 9.2.1-1)
REM options -cpp -mtune=generic -march=x86-64 -g -O0 -fpre-include=/usr/include/finclude/math-vector-fortran.h
REM seed -469196427 -634693512 1034718191 -343567356 -1377521485 1134314443 -1819036880 450414860 49280431 -1813736098 1814266177 236653766 -309048344 -494950698 -156518235 -580612084 -693002703 -599971734 444440334 670932457 -1980388497 1545648749 1841029651 1047485463 869333378 491747458 -1468871821 -96229363 1453847879 1698243642 -1584726032 1097580644 2024846450
REM
CELL 1.54180   50.00000   50.00000   50.00000   90.00000   90.00000   90.00000
LATT -1
SFAC C  
C      1  0.5391920000000  0.4574370000000  0.3811140000000 1.0
C      1  0.4513000000000  0.3871480000000  0.5213640000000 1.0
C      1  0.4739220000000  0.3972180000000  0.4661940000000 1.0
C      1  0.4326550000000  0.5544300000000  0.5911560000000 1.0
C      1  0.4111110000000  0.4818690000000  0.5592970000000 1.0
C      1  0.4598690000000  0.5669510000000  0.4119010000000 1.0
C      1  0.5833180000000  0.4076030000000  0.4606950000000 1.0
C      1  0.4527850000000  0.5856090000000  0.5630440000000 1.0
C      1  0.5485720000000  0.5201290000000  0.5949160000000 1.0
C      1  0.4971570000000  0.5999520000000  0.5547030000000 1.0
C      1  0.3547010000000  0.5378860000000  0.5453480000000 1.0
C      1  0.4556110000000  0.4658800000000  0.4860230000000 1.0
C      1  0.5595760000000  0.5845440000000  0.5389730000000 1.0
C      1  0.5148170000000  0.4604220000000  0.5118180000000 1.0
C      1  0.5074270000000  0.5331160000000  0.4739400000000 1.0
C      1  0.5444540000000  0.5470220000000  0.5109980000000 1.0
C      1  0.4993080000000  0.5580280000000  0.4334480000000 1.0
C      1  0.5132020000000  0.5273450000000  0.5563520000000 1.0
C      1  0.4885370000000  0.5511640000000  0.5253740000000 1.0
C      1  0.4732200000000  0.4179530000000  0.4460670000000 1.0
C      1  0.5462470000000  0.4095430000000  0.3958960000000 1.0
C      1  0.4235720000000  0.5343020000000  0.6088710000000 1.0
C      1  0.4701260000000  0.4791010000000  0.5553270000000 1.0
C      1  0.5828940000000  0.4650020000000  0.4406060000000 1.0
C      1  0.4286480000000  0.4619610000000  0.5702920000000 1.0
C      1  0.5222220000000  0.4046860000000  0.4889160000000 1.0
C      1  0.4577980000000  0.5181090000000  0.5397470000000 1.0
C      1  0.4601770000000  0.5194690000000  0.5690720000000 1.0
C      1  0.4533840000000  0.5841560000000  0.5034980000000 1.0
C      1  0.4657730000000  0.4846730000000  0.4637870000000 1.0
C      1  0.4882860000000  0.4512890000000  0.5191290000000 1.0
C      1  0.4301560000000  0.4499720000000  0.4362370000000 1.0
C      1  0.4512940000000  0.3820180000000  0.4732550000000 1.0
C      1  0.4029510000000  0.5283620000000  0.4903090000000 1.0
C      1  0.5700480000000  0.4002700000000  0.4382260000000 1.0
C      1  0.5155330000000  0.4810780000000  0.4910640000000 1.0
C      1  0.4792260000000  0.4964990000000  0.4317500000000 1.0
C      1  0.4834680000000  0.5771720000000  0.4232640000000 1.0
C      1  0.5439770000000  0.4312570000000  0.3805640000000 1.0
C      1  0.5228350000000  0.4095360000000  0.4388520000000 1.0
C      1  0.6087260000000  0.5094960000000  0.4249550000000 1.0
C      1  0.4326260000000  0.5711390000000  0.5468720000000 1.0
C      1  0.4358310000000  0.4462330000000  0.4848000000000 1.0
C      1  0.5249730000000  0.5512600000000  0.3879160000000 1.0
C      1  0.4286670000000  0.4760750000000  0.4252010000000 1.0
C      1  0.5191030000000  0.5824480000000  0.4644320000000 1.0
C      1  0.4689190000000  0.4049480000000  0.5304800000000 1.0
C      1  0.5662060000000  0.5227650000000  0.4512020000000 1.0
C      1  0.3046950000000  0.5418930000000  0.5610340000000 1.0
C      1  0.4185300000000  0.5048530000000  0.4865340000000 1.0
C      1  0.4702480000000  0.6020640000000  0.5476250000000 1.0
C      1  0.5854890000000  0.4228150000000  0.4844210000000 1.0
C      1  0.6014480000000  0.5220210000000  0.5156090000000 1.0
C      1  0.3889960000000  0.5382640000000  0.5109190000000 1.0
C      1  0.4788490000000  0.4920960000000  0.6111940000000 1.0
C      1  0.5398850000000  0.4720570000000  0.5941810000000 1.0
C      1  0.5383850000000  0.5014090000000  0.4915230000000 1.0
C      1  0.5128800000000  0.5020290000000  0.5678800000000 1.0
C      1  0.5802380000000  0.4268150000000  0.5817490000000 1.0
C      1  0.4557910000000  0.5315160000000  0.4708720000000 1.0
C      1  0.5335060000000  0.4158310000000  0.4656970000000 1.0
C      1  0.5842570000000  0.5308000000000  0.5378990000000 1.0
C      1  0.5822530000000  0.5178700000000  0.4253310000000 1.0
C      1  0.5049950000000  0.5075610000000  0.4312580000000 1.0
C      1  0.5559920000000  0.5733110000000  0.5136350000000 1.0
C      1  0.4281360000000  0.5036760000000  0.4375150000000 1.0
C      1  0.5574890000000  0.5276900000000  0.5277680000000 1.0
C      1  0.5687250000000  0.5691610000000  0.4679170000000 1.0
C      1  0.4186900000000  0.5537340000000  0.5649300000000 1.0
C      1  0.4432820000000  0.5629870000000  0.5213140000000 1.0
C      1  0.4624270000000  0.4912180000000  0.5307950000000 1.0
C      1  0.4619930000000  0.5417230000000  0.5249510000000 1.0
C      1  0.5069040000000  0.5525920000000  0.5463290000000 1.0
C      1  0.4053180000000  0.5069080000000  0.5723900000000 1.0
C      1  0.4991550000000  0.4753120000000  0.4682030000000 1.0
C      1  0.4835470000000  0.5643980000000  0.5995810000000 1.0
C      1  0.4417490000000  0.5554420000000  0.4320860000000 1.0
C      1  0.5729590000000  0.5076310000000  0.5831670000000 1.0
C      1  0.4989820000000  0.4286940000000  0.4387030000000 1.0
C      1  0.4925170000000  0.5850870000000  0.4718670000000 1.0
C      1  0.5326010000000  0.4161160000000  0.5128220000000 1.0
C      1  0.3815330000000  0.5360230000000  0.5379310000000 1.0
C      1  0.5684950000000  0.5285880000000  0.4026840000000 1.0
C      1  0.5124900000000  0.5334320000000  0.4446670000000 1.0
C      1  0.5085260000000  0.4536810000000  0.4528490000000 1.0
C      1  0.4964510000000  0.3945000000000  0.4836820000000 1.0
C      1  0.4639430000000  0.5785750000000  0.4766350000000 1.0
C      1  0.5378820000000  0.4441440000000  0.5173820000000 1.0
C      1  0.6008470000000  0.4933620000000  0.5176390000000 1.0
C      1  0.5690490000000  0.5841370000000  0.4914210000000 1.0
C      1  0.4968420000000  0.5453240000000  0.3858460000000 1.0
C      1  0.5150360000000  0.5783200000000  0.5559400000000 1.0
C      1  0.4675910000000  0.4706080000000  0.5113280000000 1.0
C      1  0.6208950000000  0.4752530000000  0.5249280000000 1.0
C      1  0.5586940000000  0.4971690000000  0.4681020000000 1.0
C      1  0.5414100000000  0.5412350000000  0.4391460000000 1.0
C      1  0.4560380000000  0.4567800000000  0.5666000000000 1.0
C      1  0.4543990000000  0.5227790000000  0.4006370000000 1.0
C      1  0.5988070000000  0.5346160000000  0.4901450000000 1.0
C      1  0.5432200000000  0.5686490000000  0.4542450000000 1.0
C      1  0.4488200000000  0.4303920000000  0.4385610000000 1.0
C      1  0.5667080000000  0.4547990000000  0.5157430000000 1.0
C      1  0.5233280000000  0.4945580000000  0.4142550000000 1.0
C      1  0.5528990000000  0.5013770000000  0.5177920000000 1.0
C      1  0.5436810000000  0.5422870000000  0.4080760000000 1.0
C      1  0.4808990000000  0.4292250000000  0.5371790000000 1.0
C      1  0.5341690000000  0.5439220000000  0.6028100000000 1.0
C      1  0.4673610000000  0.5091490000000  0.5933870000000 1.0
C      1  0.4463810000000  0.4771730000000  0.4025920000000 1.0
C      1  0.6144800000000  0.4504790000000  0.5337340000000 1.0
C      1  0.6342210000000  0.5041150000000  0.4255050000000 1.0
C      1  0.4575810000000  0.5704670000000  0.5883950000000 1.0
C      1  0.5300800000000  0.4991420000000  0.5898920000000 1.0
C      1  0.4690510000000  0.5459720000000  0.3929960000000 1.0
C      1  0.4655050000000  0.4972700000000  0.4064650000000 1.0
C      1  0.5663720000000  0.4730950000000  0.5806940000000 1.0
C      1  0.3294770000000  0.5398190000000  0.5532120000000 1.0
C      1  0.5352300000000  0.5678670000000  0.3683900000000 1.0
C      1  0.4812910000000  0.5287320000000  0.4818380000000 1.0
C      1  0.5017220000000  0.4519460000000  0.5746460000000 1.0
C      1  0.4422750000000  0.3771650000000  0.4981620000000 1.0
C      1  0.5908560000000  0.4151910000000  0.5124090000000 1.0
C      1  0.4341610000000  0.5281170000000  0.4219310000000 1.0
C      1  0.5753690000000  0.4506970000000  0.4857210000000 1.0
C      1  0.5336220000000  0.4442020000000  0.4638270000000 1.0
C      1  0.4781630000000  0.4371670000000  0.5648590000000 1.0
C      1  0.4965150000000  0.4718700000000  0.6167170000000 1.0
C      1  0.5151280000000  0.4576710000000  0.5992880000000 1.0
C      1  0.4977510000000  0.4790710000000  0.5621020000000 1.0
C      1  0.5457780000000  0.4028280000000  0.4229820000000 1.0
C      1  0.5421350000000  0.5843600000000  0.5592170000000 1.0
C      1  0.5814730000000  0.5430550000000  0.4690070000000 1.0
C      1  0.4110530000000  0.5116990000000  0.5999770000000 1.0
C      1  0.5092880000000  0.5558610000000  0.6042650000000 1.0
C      1  0.4409150000000  0.5057070000000  0.4653760000000 1.0
C      1  0.5325910000000  0.4793760000000  0.3945500000000 1.0
C      1  0.4014950000000  0.5319100000000  0.5577530000000 1.0
C      1  0.5737560000000  0.4831580000000  0.5199910000000 1.0
C      1  0.5727520000000  0.4713970000000  0.4655010000000 1.0
C      1  0.4503550000000  0.5575410000000  0.4600820000000 1.0
C      1  0.5880520000000  0.5222900000000  0.5645830000000 1.0
C      1  0.5763390000000  0.4494140000000  0.5680050000000 1.0
C      1  0.4063450000000  0.4797680000000  0.5314820000000 1.0
C      1  0.5289800000000  0.5308230000000  0.4915960000000 1.0
C      1  0.5871410000000  0.4387780000000  0.5325020000000 1.0
C      1  0.4152760000000  0.4307370000000  0.4891510000000 1.0
C      1  0.4630850000000  0.6056990000000  0.5199700000000 1.0
C      1  0.4126400000000  0.4853830000000  0.5060790000000 1.0
END
