TITL C-599894-471-767 122.998295290719 125000 -636.639367259084 0 0 104 (C1) n - 1
REM
REM in /home/nfs/bkarasulu/CARBON/AIRSS/Generating-Clusters/TERSOFF/Only-C1/FIRE-HFTN
REM
REM
REM
REM
REM
REM ./C.cell (11c1c37f851c82e70ff6c80c92926a4b)
REM AIRSS Version 0.9.1 bugfix July 2018 build 013d7b7c2542+ Fri, 06 Jul 2018 19:26:36 +0100
REM compiler GCC version 9.2.1 20190827 (Red Hat 9.2.1-1)
REM options -cpp -mtune=generic -march=x86-64 -g -O0 -fpre-include=/usr/include/finclude/math-vector-fortran.h
REM seed -1123691448 1719118184 38897864 179147225 -202286334 811585363 -2081264461 -66828091 -905418236 -67496884 1196857255 1668687455 1278722074 -1812601600 -574770093 249927915 -1034645419 180628663 -633874595 -316029869 -472847052 934043044 282222258 -1157637516 -1449517898 491224443 981590448 1182111950 1746466575 -497334634 -474884692 -1621201283 1880994923
REM
CELL 1.54180   50.00000   50.00000   50.00000   90.00000   90.00000   90.00000
LATT -1
SFAC C  
C      1  0.4940840000000  0.5444920000000  0.5817740000000 1.0
C      1  0.5838410000000  0.4747570000000  0.5626450000000 1.0
C      1  0.4626660000000  0.4185290000000  0.4530290000000 1.0
C      1  0.4495990000000  0.5392700000000  0.5593260000000 1.0
C      1  0.4615080000000  0.4693560000000  0.4221390000000 1.0
C      1  0.5004960000000  0.5929490000000  0.4639220000000 1.0
C      1  0.3942450000000  0.5419340000000  0.4813610000000 1.0
C      1  0.5240100000000  0.4598480000000  0.4432100000000 1.0
C      1  0.5492600000000  0.5764660000000  0.4947420000000 1.0
C      1  0.4980850000000  0.4187830000000  0.5217690000000 1.0
C      1  0.5892990000000  0.3995300000000  0.4896200000000 1.0
C      1  0.4113280000000  0.5017460000000  0.5418970000000 1.0
C      1  0.6073060000000  0.4003210000000  0.4700260000000 1.0
C      1  0.4065300000000  0.5623460000000  0.4663850000000 1.0
C      1  0.6193000000000  0.4409900000000  0.4429900000000 1.0
C      1  0.5371400000000  0.5402190000000  0.5602240000000 1.0
C      1  0.5493600000000  0.4536920000000  0.5134010000000 1.0
C      1  0.4653220000000  0.5160870000000  0.4806780000000 1.0
C      1  0.4199090000000  0.4768690000000  0.5524020000000 1.0
C      1  0.5420540000000  0.4664340000000  0.5375740000000 1.0
C      1  0.5481450000000  0.5743980000000  0.4654070000000 1.0
C      1  0.4176750000000  0.5592370000000  0.4407340000000 1.0
C      1  0.4352640000000  0.4120360000000  0.4613190000000 1.0
C      1  0.4983330000000  0.5027400000000  0.5374810000000 1.0
C      1  0.4852630000000  0.5417270000000  0.4162600000000 1.0
C      1  0.5779480000000  0.5197470000000  0.5410850000000 1.0
C      1  0.4822020000000  0.4102500000000  0.4746730000000 1.0
C      1  0.5466470000000  0.4262140000000  0.5075800000000 1.0
C      1  0.4629150000000  0.4562850000000  0.4737680000000 1.0
C      1  0.5516970000000  0.5171270000000  0.5515660000000 1.0
C      1  0.4428520000000  0.5760000000000  0.4967940000000 1.0
C      1  0.5171510000000  0.5834410000000  0.5331310000000 1.0
C      1  0.5322500000000  0.5202600000000  0.4845050000000 1.0
C      1  0.5265510000000  0.5918880000000  0.5051890000000 1.0
C      1  0.5209540000000  0.4149270000000  0.5038810000000 1.0
C      1  0.5114170000000  0.4514490000000  0.4652530000000 1.0
C      1  0.5158730000000  0.4403950000000  0.5664470000000 1.0
C      1  0.5387090000000  0.5481260000000  0.4241110000000 1.0
C      1  0.4913420000000  0.5301770000000  0.5363810000000 1.0
C      1  0.4639260000000  0.5842690000000  0.5398800000000 1.0
C      1  0.5985130000000  0.4846470000000  0.5159130000000 1.0
C      1  0.5135850000000  0.5455780000000  0.4144380000000 1.0
C      1  0.4671760000000  0.4415240000000  0.5520750000000 1.0
C      1  0.4326920000000  0.5468430000000  0.5377890000000 1.0
C      1  0.5546970000000  0.5554650000000  0.4450100000000 1.0
C      1  0.4892990000000  0.5951170000000  0.5340400000000 1.0
C      1  0.5232040000000  0.5083250000000  0.5956360000000 1.0
C      1  0.4761810000000  0.4873870000000  0.4028770000000 1.0
C      1  0.5798940000000  0.5430240000000  0.5245720000000 1.0
C      1  0.5587280000000  0.5617600000000  0.5192800000000 1.0
C      1  0.5557270000000  0.4759580000000  0.4960130000000 1.0
C      1  0.6097300000000  0.4650900000000  0.4492550000000 1.0
C      1  0.6187570000000  0.4156730000000  0.4514570000000 1.0
C      1  0.5691650000000  0.4101700000000  0.5033070000000 1.0
C      1  0.5201740000000  0.5338670000000  0.5828960000000 1.0
C      1  0.4552950000000  0.4881580000000  0.4430320000000 1.0
C      1  0.5641050000000  0.4601410000000  0.5755380000000 1.0
C      1  0.4892540000000  0.4588410000000  0.4805300000000 1.0
C      1  0.5143490000000  0.4822050000000  0.4295250000000 1.0
C      1  0.4741080000000  0.5407210000000  0.4910610000000 1.0
C      1  0.5122370000000  0.4902720000000  0.5142700000000 1.0
C      1  0.5026880000000  0.5024770000000  0.4469230000000 1.0
C      1  0.4520800000000  0.4989970000000  0.4992480000000 1.0
C      1  0.4734790000000  0.5170530000000  0.4046450000000 1.0
C      1  0.4131870000000  0.5272900000000  0.5291410000000 1.0
C      1  0.4665170000000  0.4814270000000  0.5156590000000 1.0
C      1  0.5223070000000  0.5182800000000  0.4588190000000 1.0
C      1  0.4700440000000  0.5606250000000  0.4329560000000 1.0
C      1  0.5266000000000  0.5900710000000  0.4532970000000 1.0
C      1  0.5412370000000  0.4911890000000  0.5485430000000 1.0
C      1  0.4299280000000  0.4151560000000  0.4892760000000 1.0
C      1  0.4399840000000  0.4770220000000  0.5731240000000 1.0
C      1  0.5038520000000  0.4804670000000  0.4035210000000 1.0
C      1  0.4357700000000  0.4837130000000  0.5991020000000 1.0
C      1  0.5044830000000  0.6041840000000  0.4901090000000 1.0
C      1  0.5958930000000  0.4790540000000  0.4672020000000 1.0
C      1  0.5353320000000  0.4959770000000  0.4981230000000 1.0
C      1  0.3979530000000  0.5315680000000  0.5058190000000 1.0
C      1  0.4945790000000  0.4316430000000  0.5477110000000 1.0
C      1  0.4649540000000  0.4687840000000  0.5619270000000 1.0
C      1  0.4874420000000  0.6129540000000  0.5109660000000 1.0
C      1  0.4209930000000  0.4519140000000  0.5382370000000 1.0
C      1  0.5248250000000  0.4813050000000  0.5946230000000 1.0
C      1  0.4417930000000  0.5604490000000  0.4289950000000 1.0
C      1  0.4776070000000  0.5396460000000  0.5596240000000 1.0
C      1  0.4431550000000  0.5708510000000  0.5250750000000 1.0
C      1  0.4476440000000  0.4194320000000  0.5110380000000 1.0
C      1  0.5109040000000  0.4061080000000  0.4777500000000 1.0
C      1  0.4642730000000  0.4406720000000  0.4314760000000 1.0
C      1  0.5914480000000  0.4939890000000  0.5417100000000 1.0
C      1  0.4784850000000  0.5749000000000  0.4577370000000 1.0
C      1  0.4945140000000  0.5411230000000  0.5105740000000 1.0
C      1  0.4193250000000  0.5817790000000  0.4826610000000 1.0
C      1  0.5835130000000  0.4808500000000  0.4920820000000 1.0
C      1  0.4747640000000  0.5042070000000  0.4563600000000 1.0
C      1  0.4751610000000  0.4866910000000  0.5430080000000 1.0
C      1  0.5350510000000  0.4579600000000  0.5810900000000 1.0
C      1  0.4745450000000  0.4139150000000  0.5039620000000 1.0
C      1  0.5373370000000  0.5632090000000  0.5415000000000 1.0
C      1  0.4919230000000  0.4735300000000  0.5035440000000 1.0
C      1  0.4438010000000  0.4344620000000  0.5350070000000 1.0
C      1  0.4164110000000  0.4032970000000  0.4436050000000 1.0
C      1  0.4645940000000  0.5653510000000  0.4814060000000 1.0
C      1  0.5202960000000  0.5403490000000  0.4997510000000 1.0
END
