TITL C-599896-8500-248 6.64608161739616e-06 125000 -568.257858383956 0 0 93 (C1) n - 1
REM
REM in /home/nfs/bkarasulu/CARBON/AIRSS/Generating-Clusters/TERSOFF/Only-C1/FIRE-HFTN
REM
REM
REM
REM
REM
REM ./C.cell (11c1c37f851c82e70ff6c80c92926a4b)
REM AIRSS Version 0.9.1 bugfix July 2018 build 013d7b7c2542+ Fri, 06 Jul 2018 19:26:36 +0100
REM compiler GCC version 9.2.1 20190827 (Red Hat 9.2.1-1)
REM options -cpp -mtune=generic -march=x86-64 -g -O0 -fpre-include=/usr/include/finclude/math-vector-fortran.h
REM seed -58670162 -1186659902 50537782 -553873059 783765445 -1385601685 -1643009309 557764679 -87154062 1190000245 -1913476235 -504937526 1493954718 1398828324 -681673116 1399707247 -524738863 -1420593528 -2121203364 -779720481 -2047266912 68199024 1903614959 -1787940553 385632418 -763051734 -1441589950 -888130726 2071332680 -2094008502 -960146709 -1803235435 1098194222
REM
CELL 1.54180   50.00000   50.00000   50.00000   90.00000   90.00000   90.00000
LATT -1
SFAC C  
C      1  0.5643480000000  0.5516250000000  0.5058830000000 1.0
C      1  0.4721590000000  0.4910060000000  0.4629990000000 1.0
C      1  0.5119690000000  0.5170660000000  0.4059460000000 1.0
C      1  0.5586340000000  0.5601360000000  0.5332740000000 1.0
C      1  0.4878950000000  0.5254070000000  0.4909820000000 1.0
C      1  0.4618420000000  0.5029060000000  0.4155210000000 1.0
C      1  0.5256160000000  0.4897220000000  0.5370790000000 1.0
C      1  0.4609200000000  0.4263750000000  0.5535190000000 1.0
C      1  0.4835910000000  0.4834350000000  0.5937120000000 1.0
C      1  0.4880010000000  0.4209290000000  0.5107640000000 1.0
C      1  0.4701400000000  0.4813890000000  0.5109040000000 1.0
C      1  0.4268240000000  0.5109370000000  0.5689320000000 1.0
C      1  0.5121370000000  0.5226090000000  0.5060760000000 1.0
C      1  0.5884320000000  0.4715500000000  0.5044070000000 1.0
C      1  0.4593470000000  0.5291010000000  0.4303820000000 1.0
C      1  0.5680670000000  0.4615960000000  0.4899720000000 1.0
C      1  0.4150220000000  0.5314700000000  0.5557980000000 1.0
C      1  0.5151340000000  0.4266780000000  0.5019960000000 1.0
C      1  0.4910080000000  0.5140170000000  0.4636450000000 1.0
C      1  0.5179010000000  0.4546240000000  0.4967600000000 1.0
C      1  0.5520450000000  0.5303390000000  0.4361180000000 1.0
C      1  0.5409180000000  0.4679300000000  0.4858430000000 1.0
C      1  0.5734160000000  0.5097370000000  0.5297820000000 1.0
C      1  0.5939280000000  0.4906870000000  0.5244900000000 1.0
C      1  0.4683710000000  0.4246140000000  0.4877900000000 1.0
C      1  0.4529480000000  0.5551350000000  0.5411500000000 1.0
C      1  0.5629780000000  0.5043960000000  0.4296080000000 1.0
C      1  0.5550220000000  0.4221250000000  0.5289290000000 1.0
C      1  0.5500890000000  0.4454450000000  0.5436220000000 1.0
C      1  0.4824810000000  0.4712280000000  0.4445500000000 1.0
C      1  0.5642280000000  0.5899030000000  0.4765800000000 1.0
C      1  0.4337080000000  0.4662790000000  0.5533320000000 1.0
C      1  0.4416330000000  0.4375100000000  0.4905990000000 1.0
C      1  0.4323230000000  0.5323210000000  0.4400140000000 1.0
C      1  0.5320640000000  0.4454260000000  0.5666370000000 1.0
C      1  0.5114550000000  0.5731620000000  0.4557680000000 1.0
C      1  0.4880090000000  0.5034640000000  0.4027660000000 1.0
C      1  0.6176280000000  0.4909610000000  0.5380060000000 1.0
C      1  0.4438050000000  0.4927050000000  0.5557600000000 1.0
C      1  0.5404190000000  0.4702920000000  0.5807200000000 1.0
C      1  0.4978910000000  0.5064650000000  0.5936690000000 1.0
C      1  0.4510460000000  0.4487450000000  0.5675100000000 1.0
C      1  0.5064500000000  0.5515510000000  0.4386580000000 1.0
C      1  0.4214000000000  0.4665490000000  0.5269090000000 1.0
C      1  0.4678850000000  0.5936830000000  0.5010200000000 1.0
C      1  0.5533590000000  0.4943420000000  0.5745650000000 1.0
C      1  0.4782730000000  0.5445100000000  0.5474450000000 1.0
C      1  0.4596340000000  0.5276450000000  0.4982610000000 1.0
C      1  0.4959590000000  0.4695110000000  0.5074090000000 1.0
C      1  0.5380340000000  0.4125430000000  0.5101480000000 1.0
C      1  0.5688460000000  0.5472230000000  0.4538170000000 1.0
C      1  0.5021480000000  0.5602420000000  0.5501230000000 1.0
C      1  0.4197180000000  0.5065770000000  0.4367800000000 1.0
C      1  0.5089150000000  0.5112970000000  0.5316750000000 1.0
C      1  0.5488470000000  0.5430020000000  0.5551960000000 1.0
C      1  0.4452010000000  0.5887750000000  0.4878470000000 1.0
C      1  0.5505530000000  0.4537360000000  0.4306640000000 1.0
C      1  0.5082990000000  0.4267320000000  0.4503060000000 1.0
C      1  0.4385660000000  0.4614770000000  0.4741500000000 1.0
C      1  0.4242420000000  0.4419370000000  0.5126430000000 1.0
C      1  0.4208220000000  0.4943720000000  0.5143520000000 1.0
C      1  0.4837320000000  0.5167470000000  0.5426690000000 1.0
C      1  0.5632920000000  0.4775160000000  0.4271520000000 1.0
C      1  0.5612160000000  0.5232600000000  0.5071750000000 1.0
C      1  0.4294340000000  0.5409900000000  0.5334340000000 1.0
C      1  0.5373620000000  0.5152260000000  0.4948210000000 1.0
C      1  0.5093820000000  0.5836140000000  0.4803470000000 1.0
C      1  0.4403040000000  0.4600990000000  0.4446200000000 1.0
C      1  0.4834160000000  0.5355670000000  0.4442960000000 1.0
C      1  0.5079760000000  0.4315710000000  0.5585870000000 1.0
C      1  0.4340780000000  0.5217410000000  0.5118050000000 1.0
C      1  0.4563130000000  0.4819440000000  0.4847490000000 1.0
C      1  0.5050890000000  0.5799190000000  0.5299310000000 1.0
C      1  0.4298790000000  0.5748640000000  0.4710450000000 1.0
C      1  0.4666150000000  0.4476900000000  0.4424210000000 1.0
C      1  0.4859560000000  0.4238110000000  0.5405660000000 1.0
C      1  0.4650550000000  0.4964410000000  0.5366740000000 1.0
C      1  0.5951080000000  0.5495410000000  0.4445000000000 1.0
C      1  0.5223870000000  0.5468180000000  0.5662590000000 1.0
C      1  0.5445850000000  0.4710860000000  0.5328940000000 1.0
C      1  0.5609300000000  0.5158550000000  0.5558150000000 1.0
C      1  0.4384550000000  0.4853710000000  0.4279220000000 1.0
C      1  0.5257600000000  0.5357590000000  0.4241330000000 1.0
C      1  0.4245350000000  0.5547980000000  0.4543270000000 1.0
C      1  0.5241870000000  0.4489790000000  0.4398320000000 1.0
C      1  0.4799770000000  0.4274260000000  0.4593250000000 1.0
C      1  0.4680820000000  0.4622860000000  0.5866590000000 1.0
C      1  0.5099880000000  0.4736140000000  0.4419380000000 1.0
C      1  0.4952050000000  0.5874980000000  0.5044170000000 1.0
C      1  0.5358700000000  0.4944050000000  0.4765400000000 1.0
C      1  0.5167470000000  0.4977490000000  0.4565120000000 1.0
C      1  0.5120420000000  0.5283360000000  0.5859770000000 1.0
C      1  0.5645020000000  0.5623360000000  0.4788980000000 1.0
END
