TITL C-599891-72-865 3.02337981024305e-05 125000 -1051.90964646061 0 0 172 (C1) n - 1
REM
REM in /home/nfs/bkarasulu/CARBON/AIRSS/Generating-Clusters/TERSOFF/Only-C1/FIRE-HFTN
REM
REM
REM
REM
REM
REM ./C.cell (11c1c37f851c82e70ff6c80c92926a4b)
REM AIRSS Version 0.9.1 bugfix July 2018 build 013d7b7c2542+ Fri, 06 Jul 2018 19:26:36 +0100
REM compiler GCC version 9.2.1 20190827 (Red Hat 9.2.1-1)
REM options -cpp -mtune=generic -march=x86-64 -g -O0 -fpre-include=/usr/include/finclude/math-vector-fortran.h
REM seed 1674833906 -1061824333 -1959472796 -725039939 397873940 -1264712355 82867623 1420386629 1581318243 -320030703 -2119185088 1145651497 -163617377 909219129 -1709754319 525834423 1697510567 1754181725 -1289061810 -895962022 1275317327 1171104614 -1910619996 -34494688 -479722724 -1678246930 -1701740496 -1091394573 -1368251974 939645013 -1163110932 695814085 -1843414828
REM
CELL 1.54180   50.00000   50.00000   50.00000   90.00000   90.00000   90.00000
LATT -1
SFAC C  
C      1  0.3897400000000  0.4302600000000  0.4351740000000 1.0
C      1  0.5146300000000  0.3815680000000  0.5493220000000 1.0
C      1  0.3692320000000  0.5690090000000  0.5441860000000 1.0
C      1  0.4049740000000  0.5172620000000  0.4423500000000 1.0
C      1  0.4103640000000  0.5088060000000  0.5170510000000 1.0
C      1  0.5360390000000  0.4211900000000  0.4451160000000 1.0
C      1  0.5310600000000  0.4089840000000  0.4939170000000 1.0
C      1  0.6028190000000  0.5216060000000  0.4224890000000 1.0
C      1  0.5677890000000  0.4461520000000  0.4949840000000 1.0
C      1  0.4724530000000  0.5861870000000  0.5694830000000 1.0
C      1  0.5308680000000  0.5582110000000  0.4748240000000 1.0
C      1  0.6065620000000  0.4745340000000  0.5790600000000 1.0
C      1  0.4439800000000  0.4176370000000  0.5580600000000 1.0
C      1  0.4526160000000  0.4994980000000  0.5031550000000 1.0
C      1  0.5489590000000  0.5862670000000  0.5125370000000 1.0
C      1  0.3894990000000  0.5093720000000  0.5352850000000 1.0
C      1  0.5100620000000  0.5772610000000  0.4132200000000 1.0
C      1  0.6054040000000  0.4673380000000  0.4782420000000 1.0
C      1  0.4798610000000  0.5018090000000  0.5006730000000 1.0
C      1  0.5407960000000  0.6053100000000  0.4411910000000 1.0
C      1  0.4439950000000  0.4064430000000  0.5023850000000 1.0
C      1  0.5435710000000  0.6066860000000  0.4689360000000 1.0
C      1  0.5412030000000  0.5450540000000  0.5537340000000 1.0
C      1  0.5342180000000  0.5162510000000  0.3992180000000 1.0
C      1  0.4922360000000  0.4014970000000  0.4468010000000 1.0
C      1  0.5243670000000  0.4472010000000  0.6066100000000 1.0
C      1  0.5399000000000  0.5833780000000  0.4853240000000 1.0
C      1  0.5134440000000  0.5166410000000  0.5923020000000 1.0
C      1  0.5137410000000  0.4664040000000  0.4530040000000 1.0
C      1  0.5056640000000  0.4234700000000  0.5328590000000 1.0
C      1  0.5248610000000  0.4415580000000  0.4007020000000 1.0
C      1  0.4128780000000  0.5592820000000  0.4832150000000 1.0
C      1  0.5079640000000  0.5081160000000  0.3926600000000 1.0
C      1  0.5210660000000  0.5023950000000  0.5235280000000 1.0
C      1  0.5849480000000  0.4365340000000  0.4467980000000 1.0
C      1  0.4233840000000  0.4644280000000  0.5471550000000 1.0
C      1  0.5082780000000  0.5723880000000  0.6278280000000 1.0
C      1  0.4691900000000  0.5395920000000  0.5909770000000 1.0
C      1  0.6180740000000  0.5052240000000  0.5413030000000 1.0
C      1  0.4343120000000  0.5610090000000  0.5316310000000 1.0
C      1  0.4711090000000  0.4465070000000  0.4806520000000 1.0
C      1  0.5205690000000  0.4471200000000  0.5394270000000 1.0
C      1  0.6156760000000  0.5010490000000  0.4378800000000 1.0
C      1  0.5402510000000  0.5193030000000  0.4540750000000 1.0
C      1  0.4121160000000  0.4444490000000  0.4427210000000 1.0
C      1  0.4566900000000  0.5538830000000  0.4597510000000 1.0
C      1  0.4886940000000  0.5615360000000  0.4222110000000 1.0
C      1  0.4494080000000  0.4684720000000  0.5430110000000 1.0
C      1  0.4997580000000  0.4567930000000  0.4031890000000 1.0
C      1  0.5511120000000  0.4485270000000  0.4119090000000 1.0
C      1  0.4515300000000  0.4919300000000  0.6256460000000 1.0
C      1  0.5287840000000  0.5880550000000  0.5329420000000 1.0
C      1  0.5173070000000  0.4037210000000  0.4318610000000 1.0
C      1  0.4087300000000  0.4997150000000  0.4888120000000 1.0
C      1  0.4921790000000  0.5303400000000  0.3837950000000 1.0
C      1  0.5333810000000  0.5722670000000  0.5568840000000 1.0
C      1  0.5321930000000  0.4008910000000  0.5922310000000 1.0
C      1  0.5920790000000  0.5471590000000  0.4319150000000 1.0
C      1  0.4800730000000  0.3828690000000  0.5193330000000 1.0
C      1  0.4761350000000  0.4554210000000  0.5049370000000 1.0
C      1  0.4798370000000  0.4402590000000  0.4165730000000 1.0
C      1  0.4922150000000  0.6098590000000  0.4998440000000 1.0
C      1  0.5942920000000  0.5804270000000  0.4948240000000 1.0
C      1  0.4493230000000  0.4887790000000  0.4582840000000 1.0
C      1  0.4514990000000  0.6045650000000  0.4312060000000 1.0
C      1  0.4486420000000  0.5378890000000  0.4047100000000 1.0
C      1  0.5078530000000  0.3759610000000  0.5204270000000 1.0
C      1  0.5124860000000  0.5350910000000  0.4853210000000 1.0
C      1  0.5146620000000  0.5141580000000  0.4642460000000 1.0
C      1  0.4185260000000  0.5677140000000  0.5539120000000 1.0
C      1  0.4240810000000  0.5695000000000  0.5066410000000 1.0
C      1  0.4355430000000  0.4916260000000  0.4820080000000 1.0
C      1  0.3595760000000  0.5607510000000  0.5206130000000 1.0
C      1  0.5257310000000  0.5798290000000  0.5828360000000 1.0
C      1  0.4740110000000  0.4926240000000  0.4494630000000 1.0
C      1  0.5152930000000  0.3858020000000  0.4933000000000 1.0
C      1  0.4510520000000  0.4474690000000  0.5973630000000 1.0
C      1  0.5285550000000  0.5234800000000  0.5686210000000 1.0
C      1  0.5191460000000  0.4126180000000  0.4041340000000 1.0
C      1  0.5567550000000  0.5361720000000  0.5310440000000 1.0
C      1  0.6156550000000  0.5313490000000  0.5508270000000 1.0
C      1  0.4579730000000  0.4346400000000  0.4590390000000 1.0
C      1  0.4158550000000  0.4702110000000  0.4305460000000 1.0
C      1  0.4770640000000  0.5428140000000  0.4041710000000 1.0
C      1  0.3709030000000  0.5063180000000  0.5533040000000 1.0
C      1  0.5636900000000  0.4733350000000  0.4155510000000 1.0
C      1  0.6219030000000  0.4981590000000  0.5138210000000 1.0
C      1  0.6047430000000  0.4816760000000  0.5520910000000 1.0
C      1  0.4005280000000  0.4528370000000  0.5397100000000 1.0
C      1  0.5767780000000  0.5165570000000  0.4837110000000 1.0
C      1  0.4998100000000  0.5035950000000  0.6379140000000 1.0
C      1  0.4347880000000  0.5631380000000  0.4037950000000 1.0
C      1  0.4520060000000  0.5383660000000  0.5303480000000 1.0
C      1  0.4666520000000  0.3884300000000  0.4930870000000 1.0
C      1  0.4597100000000  0.4248750000000  0.5809780000000 1.0
C      1  0.6043350000000  0.4765820000000  0.5052540000000 1.0
C      1  0.5452190000000  0.5475000000000  0.4505940000000 1.0
C      1  0.4381320000000  0.5885300000000  0.4134190000000 1.0
C      1  0.4189630000000  0.4983610000000  0.4251740000000 1.0
C      1  0.4993850000000  0.5948080000000  0.5255180000000 1.0
C      1  0.4984300000000  0.4650750000000  0.5470240000000 1.0
C      1  0.5487940000000  0.4813940000000  0.5599300000000 1.0
C      1  0.4847200000000  0.5153500000000  0.5870000000000 1.0
C      1  0.5051680000000  0.5725440000000  0.6007640000000 1.0
C      1  0.4714210000000  0.5977090000000  0.4509300000000 1.0
C      1  0.5894620000000  0.5754850000000  0.5415330000000 1.0
C      1  0.5582270000000  0.5300230000000  0.4057900000000 1.0
C      1  0.5285640000000  0.5950810000000  0.4199720000000 1.0
C      1  0.3921980000000  0.5713030000000  0.5578170000000 1.0
C      1  0.4890080000000  0.4196150000000  0.5814960000000 1.0
C      1  0.5389030000000  0.4228450000000  0.6071320000000 1.0
C      1  0.4444970000000  0.5356990000000  0.6043840000000 1.0
C      1  0.5309310000000  0.5013280000000  0.5506860000000 1.0
C      1  0.4416140000000  0.5090700000000  0.4084750000000 1.0
C      1  0.5017660000000  0.4451570000000  0.5894630000000 1.0
C      1  0.4762060000000  0.4874370000000  0.5853890000000 1.0
C      1  0.5096160000000  0.3981080000000  0.5741330000000 1.0
C      1  0.5260590000000  0.4360510000000  0.4877270000000 1.0
C      1  0.5187280000000  0.5001450000000  0.6166220000000 1.0
C      1  0.4229960000000  0.4184740000000  0.4864890000000 1.0
C      1  0.4287340000000  0.5558610000000  0.4600610000000 1.0
C      1  0.3666580000000  0.5500160000000  0.4971330000000 1.0
C      1  0.5419010000000  0.4562540000000  0.4993170000000 1.0
C      1  0.3985660000000  0.4237350000000  0.4992600000000 1.0
C      1  0.4802900000000  0.4099730000000  0.5310410000000 1.0
C      1  0.4746890000000  0.4644720000000  0.5312870000000 1.0
C      1  0.4999260000000  0.5215760000000  0.5106450000000 1.0
C      1  0.5612190000000  0.4823930000000  0.5849470000000 1.0
C      1  0.5830270000000  0.5145530000000  0.4017350000000 1.0
C      1  0.6147910000000  0.4755200000000  0.4509710000000 1.0
C      1  0.5227670000000  0.4410810000000  0.4606110000000 1.0
C      1  0.4918900000000  0.5386320000000  0.3578160000000 1.0
C      1  0.4904430000000  0.3890970000000  0.4741160000000 1.0
C      1  0.4384900000000  0.5146230000000  0.5227220000000 1.0
C      1  0.4762680000000  0.5692620000000  0.4468860000000 1.0
C      1  0.5318290000000  0.4816600000000  0.5063380000000 1.0
C      1  0.5853090000000  0.4768980000000  0.5953650000000 1.0
C      1  0.4829550000000  0.6017900000000  0.5498630000000 1.0
C      1  0.3949070000000  0.5162640000000  0.4702240000000 1.0
C      1  0.5649800000000  0.5224960000000  0.5091910000000 1.0
C      1  0.6047400000000  0.5592590000000  0.4821070000000 1.0
C      1  0.4630320000000  0.4907790000000  0.4004030000000 1.0
C      1  0.4514760000000  0.4154180000000  0.5307060000000 1.0
C      1  0.3900340000000  0.4373210000000  0.5206600000000 1.0
C      1  0.5865170000000  0.4454270000000  0.4746440000000 1.0
C      1  0.5773630000000  0.5837980000000  0.5173190000000 1.0
C      1  0.5990210000000  0.5332910000000  0.4784440000000 1.0
C      1  0.4299440000000  0.4318990000000  0.4617570000000 1.0
C      1  0.4885070000000  0.5675800000000  0.5195310000000 1.0
C      1  0.4740040000000  0.4232530000000  0.4388880000000 1.0
C      1  0.5497410000000  0.6308100000000  0.4804640000000 1.0
C      1  0.4139610000000  0.5441070000000  0.4390010000000 1.0
C      1  0.4917410000000  0.4843250000000  0.3978240000000 1.0
C      1  0.4814360000000  0.6094160000000  0.4748510000000 1.0
C      1  0.5782000000000  0.4874690000000  0.3961400000000 1.0
C      1  0.4940630000000  0.4681470000000  0.5744830000000 1.0
C      1  0.4361740000000  0.5151740000000  0.6199860000000 1.0
C      1  0.3891050000000  0.5425480000000  0.4822160000000 1.0
C      1  0.5542380000000  0.4604890000000  0.5422750000000 1.0
C      1  0.6071860000000  0.4517280000000  0.4348610000000 1.0
C      1  0.5294380000000  0.4734930000000  0.6160030000000 1.0
C      1  0.5630410000000  0.5495610000000  0.4281770000000 1.0
C      1  0.4566060000000  0.4751470000000  0.6029240000000 1.0
C      1  0.5624950000000  0.5039440000000  0.4615250000000 1.0
C      1  0.5660780000000  0.4834210000000  0.4424930000000 1.0
C      1  0.5603580000000  0.4302470000000  0.4331820000000 1.0
C      1  0.4741620000000  0.4961950000000  0.6425130000000 1.0
C      1  0.5876190000000  0.4685390000000  0.5309440000000 1.0
C      1  0.5011270000000  0.4914130000000  0.4551060000000 1.0
C      1  0.6047710000000  0.5558090000000  0.5515860000000 1.0
C      1  0.4803600000000  0.5659930000000  0.5878290000000 1.0
C      1  0.4805650000000  0.5414840000000  0.5241750000000 1.0
END
