TITL C-599893-4344-218 5.68617910333682e-05 125000 -306.65173435665 0 0 51 (C1) n - 1
REM
REM in /home/nfs/bkarasulu/CARBON/AIRSS/Generating-Clusters/TERSOFF/Only-C1/FIRE-HFTN
REM
REM
REM
REM
REM
REM ./C.cell (11c1c37f851c82e70ff6c80c92926a4b)
REM AIRSS Version 0.9.1 bugfix July 2018 build 013d7b7c2542+ Fri, 06 Jul 2018 19:26:36 +0100
REM compiler GCC version 9.2.1 20190827 (Red Hat 9.2.1-1)
REM options -cpp -mtune=generic -march=x86-64 -g -O0 -fpre-include=/usr/include/finclude/math-vector-fortran.h
REM seed -711934831 -2129559221 536036332 -1676040772 1873470182 1739733583 -547196922 -172563168 -1056604637 1892687082 835004794 1366225580 1331454085 1615265936 -1336076733 711284807 1250415573 -1150887051 -1243676897 885174170 -1510677418 -1325674232 1669443962 302866433 765292780 -1440903331 -894088001 -1944841504 174575427 -1848632631 -640082836 -1587811380 -721754429
REM
CELL 1.54180   50.00000   50.00000   50.00000   90.00000   90.00000   90.00000
LATT -1
SFAC C  
C      1  0.5237600000000  0.5610990000000  0.4449350000000 1.0
C      1  0.5348460000000  0.5128420000000  0.4322680000000 1.0
C      1  0.5138190000000  0.4488820000000  0.5849360000000 1.0
C      1  0.4166170000000  0.4941670000000  0.4557580000000 1.0
C      1  0.4547260000000  0.4556230000000  0.5613250000000 1.0
C      1  0.5512200000000  0.4614620000000  0.5567140000000 1.0
C      1  0.4739220000000  0.5178250000000  0.5512170000000 1.0
C      1  0.4959660000000  0.4699720000000  0.5035300000000 1.0
C      1  0.5557160000000  0.5029460000000  0.4743810000000 1.0
C      1  0.4469920000000  0.4587120000000  0.4605540000000 1.0
C      1  0.5751300000000  0.4600210000000  0.4817230000000 1.0
C      1  0.5081910000000  0.4830370000000  0.5506030000000 1.0
C      1  0.4252060000000  0.4956360000000  0.4832190000000 1.0
C      1  0.5291110000000  0.5097080000000  0.4844060000000 1.0
C      1  0.4950130000000  0.4427530000000  0.5039010000000 1.0
C      1  0.4286180000000  0.4728660000000  0.4428470000000 1.0
C      1  0.4428160000000  0.5406210000000  0.4912400000000 1.0
C      1  0.5178080000000  0.4685120000000  0.4372480000000 1.0
C      1  0.5114240000000  0.4974790000000  0.4406570000000 1.0
C      1  0.5079960000000  0.5665560000000  0.5162310000000 1.0
C      1  0.5334960000000  0.5406300000000  0.4306550000000 1.0
C      1  0.4710560000000  0.4481150000000  0.4504680000000 1.0
C      1  0.5444370000000  0.5261490000000  0.5520280000000 1.0
C      1  0.4877360000000  0.4862930000000  0.4819460000000 1.0
C      1  0.4310970000000  0.5134070000000  0.5281290000000 1.0
C      1  0.5241250000000  0.4639820000000  0.5646600000000 1.0
C      1  0.4456160000000  0.4627630000000  0.5139830000000 1.0
C      1  0.5552300000000  0.4969010000000  0.4458680000000 1.0
C      1  0.4294100000000  0.5177190000000  0.5002630000000 1.0
C      1  0.5212420000000  0.5255660000000  0.5664670000000 1.0
C      1  0.5104800000000  0.4847040000000  0.5224860000000 1.0
C      1  0.5471030000000  0.4679280000000  0.4423320000000 1.0
C      1  0.4723170000000  0.5456810000000  0.5438030000000 1.0
C      1  0.5092880000000  0.5680740000000  0.4677960000000 1.0
C      1  0.4674870000000  0.5534910000000  0.4935440000000 1.0
C      1  0.4991240000000  0.5081290000000  0.5613270000000 1.0
C      1  0.5703870000000  0.4711330000000  0.5404000000000 1.0
C      1  0.4960390000000  0.4509230000000  0.4406310000000 1.0
C      1  0.4612240000000  0.5635330000000  0.5614450000000 1.0
C      1  0.5713200000000  0.4861640000000  0.4926520000000 1.0
C      1  0.4519910000000  0.5009750000000  0.5428260000000 1.0
C      1  0.4820380000000  0.5550050000000  0.5186440000000 1.0
C      1  0.5266640000000  0.5062480000000  0.5123310000000 1.0
C      1  0.4815560000000  0.5622860000000  0.4704110000000 1.0
C      1  0.5210410000000  0.5728860000000  0.4932250000000 1.0
C      1  0.5057190000000  0.5030010000000  0.4682750000000 1.0
C      1  0.5625330000000  0.4509680000000  0.4591640000000 1.0
C      1  0.5500040000000  0.5122620000000  0.5280070000000 1.0
C      1  0.4517080000000  0.4724360000000  0.5400540000000 1.0
C      1  0.5695590000000  0.4918640000000  0.5211100000000 1.0
C      1  0.4400770000000  0.4700650000000  0.4873760000000 1.0
END
