TITL C-599890-3321-124 0.00961104254430991 125000 -1136.52709465801 0 0 185 (C1) n - 1
REM
REM in /home/nfs/bkarasulu/CARBON/AIRSS/Generating-Clusters/TERSOFF/Only-C1/FIRE-HFTN
REM
REM
REM
REM
REM
REM ./C.cell (11c1c37f851c82e70ff6c80c92926a4b)
REM AIRSS Version 0.9.1 bugfix July 2018 build 013d7b7c2542+ Fri, 06 Jul 2018 19:26:36 +0100
REM compiler GCC version 9.2.1 20190827 (Red Hat 9.2.1-1)
REM options -cpp -mtune=generic -march=x86-64 -g -O0 -fpre-include=/usr/include/finclude/math-vector-fortran.h
REM seed 1508327727 -892488485 -679192021 1797966665 -229544630 -1688157450 90834199 -1647768646 1264743216 -850698395 -827684960 774272284 -1000897635 -1650802392 -119878284 444517045 2132905181 1072694518 -1335544596 1184768164 -216322649 -205239235 23258470 -1167612510 -1422599630 1271917512 629090069 -692168891 -483536262 2066552519 -692147818 200317144 1588552033
REM
CELL 1.54180   50.00000   50.00000   50.00000   90.00000   90.00000   90.00000
LATT -1
SFAC C  
C      1  0.5956650000000  0.4450590000000  0.5398360000000 1.0
C      1  0.5453540000000  0.5216820000000  0.4892210000000 1.0
C      1  0.5273500000000  0.6100230000000  0.4882870000000 1.0
C      1  0.3723830000000  0.4503970000000  0.5508390000000 1.0
C      1  0.5620420000000  0.4460120000000  0.5734780000000 1.0
C      1  0.4660680000000  0.5238250000000  0.4560920000000 1.0
C      1  0.4939400000000  0.5566790000000  0.5061480000000 1.0
C      1  0.5687340000000  0.5239370000000  0.4127460000000 1.0
C      1  0.4908960000000  0.5604540000000  0.6113860000000 1.0
C      1  0.5873360000000  0.4508020000000  0.4245160000000 1.0
C      1  0.4846750000000  0.4616170000000  0.5100010000000 1.0
C      1  0.5496690000000  0.4723960000000  0.4787440000000 1.0
C      1  0.4935260000000  0.5525340000000  0.5841130000000 1.0
C      1  0.4657380000000  0.5705320000000  0.6190930000000 1.0
C      1  0.4655390000000  0.5808440000000  0.4638610000000 1.0
C      1  0.4793740000000  0.3987380000000  0.4420730000000 1.0
C      1  0.4274540000000  0.5920610000000  0.4961170000000 1.0
C      1  0.5723690000000  0.5767270000000  0.4838310000000 1.0
C      1  0.5006840000000  0.5774330000000  0.4352220000000 1.0
C      1  0.4476520000000  0.5010070000000  0.4952270000000 1.0
C      1  0.5730490000000  0.5943780000000  0.5590960000000 1.0
C      1  0.5896120000000  0.5638730000000  0.4649290000000 1.0
C      1  0.5163960000000  0.6033710000000  0.4420070000000 1.0
C      1  0.4102780000000  0.5001950000000  0.5844820000000 1.0
C      1  0.5420480000000  0.4225130000000  0.3978920000000 1.0
C      1  0.4109350000000  0.6560740000000  0.5254760000000 1.0
C      1  0.5510230000000  0.5837080000000  0.5488980000000 1.0
C      1  0.5743970000000  0.4884270000000  0.4717380000000 1.0
C      1  0.3869900000000  0.4343440000000  0.5328300000000 1.0
C      1  0.4995990000000  0.4328790000000  0.5438970000000 1.0
C      1  0.5096190000000  0.4727460000000  0.5899670000000 1.0
C      1  0.4251140000000  0.6373070000000  0.5142610000000 1.0
C      1  0.4019510000000  0.5432330000000  0.4858510000000 1.0
C      1  0.4711640000000  0.5695460000000  0.4376640000000 1.0
C      1  0.4944390000000  0.3647460000000  0.4744550000000 1.0
C      1  0.4677770000000  0.3969140000000  0.5422450000000 1.0
C      1  0.4558890000000  0.4946530000000  0.5899720000000 1.0
C      1  0.3833340000000  0.4325680000000  0.4783210000000 1.0
C      1  0.4699160000000  0.6220040000000  0.5011770000000 1.0
C      1  0.5477910000000  0.5124990000000  0.6138720000000 1.0
C      1  0.5503080000000  0.3966330000000  0.6263150000000 1.0
C      1  0.5756700000000  0.4162320000000  0.4538510000000 1.0
C      1  0.5244910000000  0.4277530000000  0.5539290000000 1.0
C      1  0.5364240000000  0.4509670000000  0.4595720000000 1.0
C      1  0.4184690000000  0.5451890000000  0.5575790000000 1.0
C      1  0.4326750000000  0.4541700000000  0.5800970000000 1.0
C      1  0.4825940000000  0.3944200000000  0.5180250000000 1.0
C      1  0.4797300000000  0.3882410000000  0.4686150000000 1.0
C      1  0.3855120000000  0.5366890000000  0.4630990000000 1.0
C      1  0.5952170000000  0.6041180000000  0.5687490000000 1.0
C      1  0.5484050000000  0.4845870000000  0.6199270000000 1.0
C      1  0.5170250000000  0.4923360000000  0.5702920000000 1.0
C      1  0.4059040000000  0.5380590000000  0.5333840000000 1.0
C      1  0.5490930000000  0.4189250000000  0.6128780000000 1.0
C      1  0.3805790000000  0.4301730000000  0.5058940000000 1.0
C      1  0.5986910000000  0.4738150000000  0.4717980000000 1.0
C      1  0.6012520000000  0.4541270000000  0.4504760000000 1.0
C      1  0.4695290000000  0.4040660000000  0.4921690000000 1.0
C      1  0.4409250000000  0.6166820000000  0.5036330000000 1.0
C      1  0.5144450000000  0.5337640000000  0.3769310000000 1.0
C      1  0.5247660000000  0.4681280000000  0.3872070000000 1.0
C      1  0.4636820000000  0.4888280000000  0.4103880000000 1.0
C      1  0.4740140000000  0.4712430000000  0.5355490000000 1.0
C      1  0.4047410000000  0.4960210000000  0.5078150000000 1.0
C      1  0.3959650000000  0.5282570000000  0.4378910000000 1.0
C      1  0.4625550000000  0.6062900000000  0.5670780000000 1.0
C      1  0.4010040000000  0.4548910000000  0.4381080000000 1.0
C      1  0.5270460000000  0.5700260000000  0.5437490000000 1.0
C      1  0.5461420000000  0.4248610000000  0.4955400000000 1.0
C      1  0.4371530000000  0.4514660000000  0.5004210000000 1.0
C      1  0.3582420000000  0.5388920000000  0.4658020000000 1.0
C      1  0.5188310000000  0.5016750000000  0.5438580000000 1.0
C      1  0.5538450000000  0.4538670000000  0.5031100000000 1.0
C      1  0.4987920000000  0.4363610000000  0.5161240000000 1.0
C      1  0.5894310000000  0.4492300000000  0.5674620000000 1.0
C      1  0.4736340000000  0.5071860000000  0.3918140000000 1.0
C      1  0.4831230000000  0.5325560000000  0.5172230000000 1.0
C      1  0.5873630000000  0.4223830000000  0.5201490000000 1.0
C      1  0.5496050000000  0.5650810000000  0.6657770000000 1.0
C      1  0.5512790000000  0.5481010000000  0.4102510000000 1.0
C      1  0.4929760000000  0.4672520000000  0.4833890000000 1.0
C      1  0.5799520000000  0.4217060000000  0.4257810000000 1.0
C      1  0.5907210000000  0.5300360000000  0.4300170000000 1.0
C      1  0.5028420000000  0.5225170000000  0.5354920000000 1.0
C      1  0.5692650000000  0.5164270000000  0.4733640000000 1.0
C      1  0.4926810000000  0.5193050000000  0.4667350000000 1.0
C      1  0.4875110000000  0.5693230000000  0.4813880000000 1.0
C      1  0.3914170000000  0.4133830000000  0.4579120000000 1.0
C      1  0.4875810000000  0.6116670000000  0.5211710000000 1.0
C      1  0.5097140000000  0.3613030000000  0.4965220000000 1.0
C      1  0.6039830000000  0.4648820000000  0.5859770000000 1.0
C      1  0.4530630000000  0.4110290000000  0.5598280000000 1.0
C      1  0.5098220000000  0.4456440000000  0.4720890000000 1.0
C      1  0.4325770000000  0.4303910000000  0.5628030000000 1.0
C      1  0.5121310000000  0.5596000000000  0.6293340000000 1.0
C      1  0.4376120000000  0.4835210000000  0.4519050000000 1.0
C      1  0.5177880000000  0.4107370000000  0.4062410000000 1.0
C      1  0.4774430000000  0.4754580000000  0.4320640000000 1.0
C      1  0.4284840000000  0.4798440000000  0.5030130000000 1.0
C      1  0.5212610000000  0.5596700000000  0.5172780000000 1.0
C      1  0.4378110000000  0.4752300000000  0.4047960000000 1.0
C      1  0.4618430000000  0.6085500000000  0.4600310000000 1.0
C      1  0.5682150000000  0.5595420000000  0.5063860000000 1.0
C      1  0.5378800000000  0.3898680000000  0.5244890000000 1.0
C      1  0.3834870000000  0.4624780000000  0.5722290000000 1.0
C      1  0.6063510000000  0.4613260000000  0.4969840000000 1.0
C      1  0.5959470000000  0.4838830000000  0.6053000000000 1.0
C      1  0.4617950000000  0.5136520000000  0.5165580000000 1.0
C      1  0.4843120000000  0.4592770000000  0.5832310000000 1.0
C      1  0.5830260000000  0.5354140000000  0.4581690000000 1.0
C      1  0.6033590000000  0.4961400000000  0.5314900000000 1.0
C      1  0.6012670000000  0.4318450000000  0.4948330000000 1.0
C      1  0.4756420000000  0.5338630000000  0.5734620000000 1.0
C      1  0.4467420000000  0.5060150000000  0.4671540000000 1.0
C      1  0.5516820000000  0.4256430000000  0.4654620000000 1.0
C      1  0.5757760000000  0.4758600000000  0.6243090000000 1.0
C      1  0.5990180000000  0.4279050000000  0.4664820000000 1.0
C      1  0.5548980000000  0.5719850000000  0.4275420000000 1.0
C      1  0.4633890000000  0.5095860000000  0.5671870000000 1.0
C      1  0.5133480000000  0.5365940000000  0.4592150000000 1.0
C      1  0.4149680000000  0.5689500000000  0.4888830000000 1.0
C      1  0.5003300000000  0.3995970000000  0.4232810000000 1.0
C      1  0.5082710000000  0.5633010000000  0.4611800000000 1.0
C      1  0.4834300000000  0.4525700000000  0.5557670000000 1.0
C      1  0.4603270000000  0.5435370000000  0.4351930000000 1.0
C      1  0.4523710000000  0.4297560000000  0.4859580000000 1.0
C      1  0.4571810000000  0.4664570000000  0.5907000000000 1.0
C      1  0.5430880000000  0.5457550000000  0.5046020000000 1.0
C      1  0.4914780000000  0.5199700000000  0.3767190000000 1.0
C      1  0.4727860000000  0.4527050000000  0.3768800000000 1.0
C      1  0.5455880000000  0.4637810000000  0.5283420000000 1.0
C      1  0.5103420000000  0.3817170000000  0.5167060000000 1.0
C      1  0.4432070000000  0.5875160000000  0.5784610000000 1.0
C      1  0.5450990000000  0.4465440000000  0.5511580000000 1.0
C      1  0.6041240000000  0.4689630000000  0.5243660000000 1.0
C      1  0.4116130000000  0.5456950000000  0.4225440000000 1.0
C      1  0.4584430000000  0.4170130000000  0.4386840000000 1.0
C      1  0.4023800000000  0.5250620000000  0.5086030000000 1.0
C      1  0.5613800000000  0.4959660000000  0.4055860000000 1.0
C      1  0.5088440000000  0.5681950000000  0.4086000000000 1.0
C      1  0.5325320000000  0.4925720000000  0.4010010000000 1.0
C      1  0.5082120000000  0.6177070000000  0.4666300000000 1.0
C      1  0.5509290000000  0.5948180000000  0.4749270000000 1.0
C      1  0.5882010000000  0.5458310000000  0.5210540000000 1.0
C      1  0.4141970000000  0.5261040000000  0.5781730000000 1.0
C      1  0.5467290000000  0.4505470000000  0.3941810000000 1.0
C      1  0.5935450000000  0.5117650000000  0.5992730000000 1.0
C      1  0.5026870000000  0.4839270000000  0.4416540000000 1.0
C      1  0.4365370000000  0.5673750000000  0.5580060000000 1.0
C      1  0.4544810000000  0.4371830000000  0.4576760000000 1.0
C      1  0.5162350000000  0.6154200000000  0.5149540000000 1.0
C      1  0.4560850000000  0.5737280000000  0.5368140000000 1.0
C      1  0.5699040000000  0.5249220000000  0.6035340000000 1.0
C      1  0.6103550000000  0.5509630000000  0.4250450000000 1.0
C      1  0.5985640000000  0.5224430000000  0.5292960000000 1.0
C      1  0.5178420000000  0.4983740000000  0.4236940000000 1.0
C      1  0.5154820000000  0.4278810000000  0.4950420000000 1.0
C      1  0.6090640000000  0.5706610000000  0.4446380000000 1.0
C      1  0.4465700000000  0.4559970000000  0.3849630000000 1.0
C      1  0.4731340000000  0.5975490000000  0.5415120000000 1.0
C      1  0.4808790000000  0.6238400000000  0.4743160000000 1.0
C      1  0.4451250000000  0.5813100000000  0.6056790000000 1.0
C      1  0.4992230000000  0.4593620000000  0.3780760000000 1.0
C      1  0.5447100000000  0.5926260000000  0.4453870000000 1.0
C      1  0.5320860000000  0.4651430000000  0.6064400000000 1.0
C      1  0.5296950000000  0.4951890000000  0.4904990000000 1.0
C      1  0.5698380000000  0.4665080000000  0.4072020000000 1.0
C      1  0.4173090000000  0.4787300000000  0.4289920000000 1.0
C      1  0.4379080000000  0.5429790000000  0.4185830000000 1.0
C      1  0.5037900000000  0.4924190000000  0.4716640000000 1.0
C      1  0.4631420000000  0.4971760000000  0.5407940000000 1.0
C      1  0.4011420000000  0.4260840000000  0.4350720000000 1.0
C      1  0.5479600000000  0.4424710000000  0.5981350000000 1.0
C      1  0.5310510000000  0.4875690000000  0.5231160000000 1.0
C      1  0.4117390000000  0.4268550000000  0.5438800000000 1.0
C      1  0.3866020000000  0.4578870000000  0.4639610000000 1.0
C      1  0.4087950000000  0.4719300000000  0.5806990000000 1.0
C      1  0.4583120000000  0.4635030000000  0.4495250000000 1.0
C      1  0.5113920000000  0.5644650000000  0.5663140000000 1.0
C      1  0.3981650000000  0.5016500000000  0.4289460000000 1.0
C      1  0.5599720000000  0.4079070000000  0.5161690000000 1.0
C      1  0.5264230000000  0.5499410000000  0.3962890000000 1.0
C      1  0.5312820000000  0.6303820000000  0.5325520000000 1.0
C      1  0.5307250000000  0.5626340000000  0.6479680000000 1.0
C      1  0.5656690000000  0.4092450000000  0.4054640000000 1.0
END
