TITL C-599895-9959-870 1.83106580467474 125000 -310.315355719101 0 0 52 (C1) n - 1
REM
REM in /home/nfs/bkarasulu/CARBON/AIRSS/Generating-Clusters/TERSOFF/Only-C1/FIRE-HFTN
REM
REM
REM
REM
REM
REM ./C.cell (11c1c37f851c82e70ff6c80c92926a4b)
REM AIRSS Version 0.9.1 bugfix July 2018 build 013d7b7c2542+ Fri, 06 Jul 2018 19:26:36 +0100
REM compiler GCC version 9.2.1 20190827 (Red Hat 9.2.1-1)
REM options -cpp -mtune=generic -march=x86-64 -g -O0 -fpre-include=/usr/include/finclude/math-vector-fortran.h
REM seed 746703853 1040381277 1470161573 168221587 1218280375 1489131239 -1280414655 1218234799 84600895 -1078077923 190720858 -860485589 -626425757 267514080 1426391595 1687592553 483918385 -1597682451 1728393508 16933948 127843720 -211106162 -918174345 325620835 810606805 -127781545 1780953880 -828407114 -2008661269 -220009525 -11102659 -249795951 1485421768
REM
CELL 1.54180   50.00000   50.00000   50.00000   90.00000   90.00000   90.00000
LATT -1
SFAC C  
C      1  0.4586060000000  0.5686090000000  0.5016470000000 1.0
C      1  0.3859310000000  0.4796240000000  0.4131780000000 1.0
C      1  0.4860730000000  0.5581120000000  0.4496470000000 1.0
C      1  0.5565130000000  0.5649860000000  0.5536930000000 1.0
C      1  0.4416490000000  0.5480660000000  0.5002850000000 1.0
C      1  0.5375200000000  0.5297610000000  0.4732990000000 1.0
C      1  0.5632530000000  0.5171230000000  0.5495810000000 1.0
C      1  0.4111080000000  0.4976220000000  0.4575840000000 1.0
C      1  0.5204630000000  0.5936710000000  0.5290230000000 1.0
C      1  0.4801310000000  0.4407050000000  0.5429120000000 1.0
C      1  0.5570070000000  0.4423490000000  0.4878890000000 1.0
C      1  0.5703990000000  0.5417560000000  0.5607520000000 1.0
C      1  0.5188750000000  0.4649680000000  0.5269070000000 1.0
C      1  0.4486810000000  0.4868330000000  0.5179610000000 1.0
C      1  0.4847710000000  0.5763330000000  0.4949610000000 1.0
C      1  0.3681710000000  0.4748160000000  0.5033560000000 1.0
C      1  0.5004080000000  0.5923780000000  0.5116040000000 1.0
C      1  0.5703540000000  0.4883690000000  0.4808190000000 1.0
C      1  0.5974370000000  0.4854730000000  0.4746670000000 1.0
C      1  0.4976420000000  0.5600840000000  0.4751090000000 1.0
C      1  0.3910240000000  0.4657970000000  0.4912520000000 1.0
C      1  0.5439450000000  0.4757570000000  0.5204960000000 1.0
C      1  0.3734930000000  0.4703150000000  0.3922440000000 1.0
C      1  0.5914860000000  0.5431560000000  0.5790180000000 1.0
C      1  0.4141520000000  0.3942270000000  0.5047660000000 1.0
C      1  0.4269370000000  0.5215600000000  0.4604060000000 1.0
C      1  0.6488520000000  0.4788400000000  0.4637150000000 1.0
C      1  0.5144360000000  0.5395980000000  0.4853970000000 1.0
C      1  0.4641540000000  0.5490090000000  0.4373510000000 1.0
C      1  0.4912540000000  0.4638360000000  0.5320750000000 1.0
C      1  0.5570760000000  0.4684240000000  0.4962990000000 1.0
C      1  0.4412620000000  0.5357950000000  0.4412550000000 1.0
C      1  0.4899030000000  0.5108930000000  0.5229240000000 1.0
C      1  0.6231410000000  0.4821980000000  0.4691830000000 1.0
C      1  0.5400890000000  0.5831650000000  0.5435150000000 1.0
C      1  0.3945100000000  0.4384320000000  0.4867530000000 1.0
C      1  0.3984930000000  0.4889310000000  0.4345650000000 1.0
C      1  0.6745700000000  0.4754810000000  0.4582450000000 1.0
C      1  0.4757060000000  0.4868470000000  0.5257180000000 1.0
C      1  0.4296280000000  0.4979570000000  0.5008510000000 1.0
C      1  0.4108270000000  0.4841500000000  0.4833750000000 1.0
C      1  0.6311840000000  0.5457020000000  0.6133780000000 1.0
C      1  0.4009010000000  0.4131570000000  0.4916530000000 1.0
C      1  0.4336130000000  0.5241610000000  0.4886680000000 1.0
C      1  0.5563320000000  0.5110280000000  0.4722800000000 1.0
C      1  0.6114950000000  0.5444420000000  0.5963370000000 1.0
C      1  0.4692350000000  0.4166040000000  0.5448160000000 1.0
C      1  0.5055040000000  0.5270370000000  0.5088580000000 1.0
C      1  0.4332380000000  0.3879800000000  0.5221970000000 1.0
C      1  0.4532440000000  0.3967570000000  0.5373510000000 1.0
C      1  0.5554570000000  0.4949500000000  0.5373150000000 1.0
C      1  0.6998640000000  0.4721760000000  0.4528660000000 1.0
END
