TITL C-599892-9790-914 3.95895118572768 125000 -379.333972041519 0 0 63 (C1) n - 1
REM
REM in /home/nfs/bkarasulu/CARBON/AIRSS/Generating-Clusters/TERSOFF/Only-C1/FIRE-HFTN
REM
REM
REM
REM
REM
REM ./C.cell (11c1c37f851c82e70ff6c80c92926a4b)
REM AIRSS Version 0.9.1 bugfix July 2018 build 013d7b7c2542+ Fri, 06 Jul 2018 19:26:36 +0100
REM compiler GCC version 9.2.1 20190827 (Red Hat 9.2.1-1)
REM options -cpp -mtune=generic -march=x86-64 -g -O0 -fpre-include=/usr/include/finclude/math-vector-fortran.h
REM seed -1077247673 1154410168 -1488041336 1863784709 1078399947 -1054604083 -1953955103 -838553288 1626392126 1989837627 -1232394089 -169555192 -1494387706 -601420519 1818618580 -1912877673 -1705357872 -1284372208 -355145699 836640937 207513743 929643606 -1533272746 -1898512294 -413821074 730834213 -1187428085 673910186 222089305 19169470 2067970459 -1163138597 835793144
REM
CELL 1.54180   50.00000   50.00000   50.00000   90.00000   90.00000   90.00000
LATT -1
SFAC C  
C      1  0.4703360000000  0.5267870000000  0.5274330000000 1.0
C      1  0.5599330000000  0.4219010000000  0.5034450000000 1.0
C      1  0.5006630000000  0.4150170000000  0.5470080000000 1.0
C      1  0.5851830000000  0.5778500000000  0.4982080000000 1.0
C      1  0.4462310000000  0.5066700000000  0.4705200000000 1.0
C      1  0.5427070000000  0.4347790000000  0.4849210000000 1.0
C      1  0.3800020000000  0.5511730000000  0.4772720000000 1.0
C      1  0.3995960000000  0.5342160000000  0.4715850000000 1.0
C      1  0.4545320000000  0.4792750000000  0.5364490000000 1.0
C      1  0.5399390000000  0.5318430000000  0.5051210000000 1.0
C      1  0.5341040000000  0.4805410000000  0.4334930000000 1.0
C      1  0.3655000000000  0.5878530000000  0.5124330000000 1.0
C      1  0.5344090000000  0.4522910000000  0.4390780000000 1.0
C      1  0.5607900000000  0.4918280000000  0.4324150000000 1.0
C      1  0.4678410000000  0.4987810000000  0.5196300000000 1.0
C      1  0.5771160000000  0.4593450000000  0.4614400000000 1.0
C      1  0.4488100000000  0.4774220000000  0.4721880000000 1.0
C      1  0.4829270000000  0.5417350000000  0.4742890000000 1.0
C      1  0.6025770000000  0.5299510000000  0.5071640000000 1.0
C      1  0.4883610000000  0.4961990000000  0.4516580000000 1.0
C      1  0.3231760000000  0.6206390000000  0.5187160000000 1.0
C      1  0.4222420000000  0.5204610000000  0.4719530000000 1.0
C      1  0.5265100000000  0.4196380000000  0.5512760000000 1.0
C      1  0.5911420000000  0.5051690000000  0.5006250000000 1.0
C      1  0.4725430000000  0.4723420000000  0.4561630000000 1.0
C      1  0.5054080000000  0.4663130000000  0.5042170000000 1.0
C      1  0.4752900000000  0.4178960000000  0.5394420000000 1.0
C      1  0.5994230000000  0.5564070000000  0.5051920000000 1.0
C      1  0.5011250000000  0.5560210000000  0.4906520000000 1.0
C      1  0.5133110000000  0.5802420000000  0.4832210000000 1.0
C      1  0.5676170000000  0.4271300000000  0.5751010000000 1.0
C      1  0.5914630000000  0.4823890000000  0.5170110000000 1.0
C      1  0.3868580000000  0.5878000000000  0.5305460000000 1.0
C      1  0.4993550000000  0.5301390000000  0.5331310000000 1.0
C      1  0.5632760000000  0.5905660000000  0.4898840000000 1.0
C      1  0.5489320000000  0.5197560000000  0.4812780000000 1.0
C      1  0.3672110000000  0.5700370000000  0.4908950000000 1.0
C      1  0.4103470000000  0.5785800000000  0.5388080000000 1.0
C      1  0.5194360000000  0.4342150000000  0.4251850000000 1.0
C      1  0.5764730000000  0.4873280000000  0.4560420000000 1.0
C      1  0.4506250000000  0.5455780000000  0.5320760000000 1.0
C      1  0.5144380000000  0.5419550000000  0.5121540000000 1.0
C      1  0.3436390000000  0.6047880000000  0.5156780000000 1.0
C      1  0.5803420000000  0.3729210000000  0.4939650000000 1.0
C      1  0.4683410000000  0.4793660000000  0.5619720000000 1.0
C      1  0.5157870000000  0.4984350000000  0.4462280000000 1.0
C      1  0.4400360000000  0.4619070000000  0.4939200000000 1.0
C      1  0.4455860000000  0.4566920000000  0.5213660000000 1.0
C      1  0.5704750000000  0.3966120000000  0.4984900000000 1.0
C      1  0.5525950000000  0.4446680000000  0.4603120000000 1.0
C      1  0.4542970000000  0.4315000000000  0.5301290000000 1.0
C      1  0.5659580000000  0.4360880000000  0.5275060000000 1.0
C      1  0.4321740000000  0.5635070000000  0.5384200000000 1.0
C      1  0.5297860000000  0.5182710000000  0.4607500000000 1.0
C      1  0.5373380000000  0.5920050000000  0.4837840000000 1.0
C      1  0.5068230000000  0.5025380000000  0.5415930000000 1.0
C      1  0.5733980000000  0.5051710000000  0.4782910000000 1.0
C      1  0.5818820000000  0.4592240000000  0.5261420000000 1.0
C      1  0.4958090000000  0.4879350000000  0.5181700000000 1.0
C      1  0.4935740000000  0.4907610000000  0.5645740000000 1.0
C      1  0.5534360000000  0.4276930000000  0.5516990000000 1.0
C      1  0.4721810000000  0.5180820000000  0.4634410000000 1.0
C      1  0.5187770000000  0.4457750000000  0.4942510000000 1.0
END
