TITL C-599895-9959-189 2.4216063142512 125000 -571.91968552999 0 0 94 (C1) n - 1
REM
REM in /home/nfs/bkarasulu/CARBON/AIRSS/Generating-Clusters/TERSOFF/Only-C1/FIRE-HFTN
REM
REM
REM
REM
REM
REM ./C.cell (11c1c37f851c82e70ff6c80c92926a4b)
REM AIRSS Version 0.9.1 bugfix July 2018 build 013d7b7c2542+ Fri, 06 Jul 2018 19:26:36 +0100
REM compiler GCC version 9.2.1 20190827 (Red Hat 9.2.1-1)
REM options -cpp -mtune=generic -march=x86-64 -g -O0 -fpre-include=/usr/include/finclude/math-vector-fortran.h
REM seed -1068668825 -1395584917 1311239167 -1184771558 -1893464535 -79467033 -920112095 -1636599416 607268315 276137437 -1500050958 -1144054301 1711637726 1875122315 649288747 -149786147 -686941674 317489195 -1066474704 -711957412 1681166428 -417271403 1225631575 1665069443 2122836037 1161887922 1893061010 369621668 -384194501 -1948446779 1833174603 -148813171 1648543615
REM
CELL 1.54180   50.00000   50.00000   50.00000   90.00000   90.00000   90.00000
LATT -1
SFAC C  
C      1  0.4984630000000  0.5766090000000  0.5622310000000 1.0
C      1  0.5782810000000  0.5586170000000  0.4771840000000 1.0
C      1  0.5442610000000  0.5507830000000  0.5443800000000 1.0
C      1  0.4623950000000  0.4491320000000  0.4946460000000 1.0
C      1  0.4688200000000  0.5498200000000  0.4385560000000 1.0
C      1  0.5581310000000  0.4292070000000  0.5060860000000 1.0
C      1  0.4490310000000  0.5456090000000  0.4586830000000 1.0
C      1  0.4473580000000  0.5605380000000  0.5260110000000 1.0
C      1  0.5043940000000  0.5161410000000  0.4289090000000 1.0
C      1  0.5735320000000  0.4803460000000  0.5991710000000 1.0
C      1  0.5700400000000  0.5172050000000  0.5264080000000 1.0
C      1  0.4357020000000  0.5308450000000  0.5639710000000 1.0
C      1  0.5828150000000  0.4721910000000  0.5291770000000 1.0
C      1  0.5095880000000  0.4797720000000  0.5733950000000 1.0
C      1  0.5317130000000  0.4374260000000  0.4329510000000 1.0
C      1  0.5773790000000  0.4468700000000  0.5174610000000 1.0
C      1  0.5729190000000  0.4645720000000  0.4093720000000 1.0
C      1  0.4231740000000  0.5530340000000  0.4530700000000 1.0
C      1  0.5064900000000  0.5796850000000  0.5338730000000 1.0
C      1  0.5130510000000  0.4673210000000  0.5265360000000 1.0
C      1  0.5755990000000  0.5590420000000  0.5043420000000 1.0
C      1  0.5303620000000  0.4974430000000  0.5817920000000 1.0
C      1  0.5569030000000  0.4858190000000  0.5782840000000 1.0
C      1  0.4440890000000  0.4583380000000  0.5611160000000 1.0
C      1  0.4840840000000  0.4338810000000  0.5061030000000 1.0
C      1  0.5254270000000  0.5357970000000  0.4340520000000 1.0
C      1  0.5381480000000  0.4617830000000  0.4758950000000 1.0
C      1  0.4168230000000  0.4952090000000  0.4267760000000 1.0
C      1  0.4719560000000  0.6141970000000  0.4612780000000 1.0
C      1  0.5786770000000  0.5037800000000  0.4844980000000 1.0
C      1  0.5664440000000  0.5447810000000  0.5275360000000 1.0
C      1  0.5658040000000  0.3758330000000  0.5057250000000 1.0
C      1  0.5867220000000  0.4974990000000  0.5117120000000 1.0
C      1  0.4191810000000  0.4670000000000  0.5117690000000 1.0
C      1  0.4758280000000  0.4919570000000  0.5398270000000 1.0
C      1  0.5304080000000  0.4872660000000  0.5164970000000 1.0
C      1  0.5103030000000  0.4443000000000  0.5101760000000 1.0
C      1  0.5007230000000  0.4915590000000  0.4423700000000 1.0
C      1  0.4883380000000  0.5698690000000  0.4434700000000 1.0
C      1  0.4622740000000  0.5826730000000  0.5164090000000 1.0
C      1  0.4633090000000  0.4713010000000  0.4759700000000 1.0
C      1  0.4187100000000  0.5184770000000  0.5445970000000 1.0
C      1  0.4704910000000  0.5194040000000  0.5975910000000 1.0
C      1  0.4901750000000  0.5859090000000  0.5119400000000 1.0
C      1  0.4855800000000  0.5902840000000  0.4634210000000 1.0
C      1  0.5590270000000  0.4459300000000  0.3950000000000 1.0
C      1  0.5717480000000  0.5493850000000  0.4523510000000 1.0
C      1  0.4519820000000  0.4816300000000  0.5503120000000 1.0
C      1  0.4624370000000  0.4141360000000  0.5447190000000 1.0
C      1  0.4247990000000  0.4928010000000  0.5008460000000 1.0
C      1  0.5342000000000  0.4403190000000  0.4946780000000 1.0
C      1  0.4373830000000  0.5410380000000  0.5068240000000 1.0
C      1  0.5220770000000  0.5253360000000  0.5828290000000 1.0
C      1  0.4770820000000  0.4103240000000  0.5209770000000 1.0
C      1  0.3918530000000  0.5060950000000  0.3525500000000 1.0
C      1  0.4791490000000  0.5286860000000  0.4225570000000 1.0
C      1  0.5384740000000  0.4324440000000  0.4069510000000 1.0
C      1  0.5354730000000  0.5356530000000  0.4841730000000 1.0
C      1  0.4554430000000  0.5358920000000  0.4848530000000 1.0
C      1  0.4233000000000  0.5174220000000  0.5162750000000 1.0
C      1  0.4269530000000  0.4938460000000  0.4512140000000 1.0
C      1  0.4364180000000  0.4464550000000  0.5066750000000 1.0
C      1  0.5215900000000  0.5735270000000  0.5796030000000 1.0
C      1  0.4830140000000  0.5491750000000  0.5608960000000 1.0
C      1  0.5011410000000  0.5804640000000  0.4862480000000 1.0
C      1  0.5636430000000  0.4809130000000  0.5509030000000 1.0
C      1  0.4980100000000  0.4761430000000  0.5481120000000 1.0
C      1  0.4832660000000  0.5144490000000  0.5229880000000 1.0
C      1  0.4846790000000  0.4771360000000  0.4584580000000 1.0
C      1  0.4582100000000  0.6362990000000  0.4600090000000 1.0
C      1  0.4393400000000  0.4883670000000  0.4756990000000 1.0
C      1  0.5539970000000  0.5371440000000  0.4353950000000 1.0
C      1  0.4847250000000  0.3850390000000  0.5122160000000 1.0
C      1  0.4926150000000  0.5307380000000  0.5837650000000 1.0
C      1  0.3999340000000  0.5022800000000  0.3770410000000 1.0
C      1  0.5451440000000  0.4567610000000  0.4492810000000 1.0
C      1  0.4973710000000  0.5352690000000  0.5359370000000 1.0
C      1  0.4081960000000  0.4984680000000  0.4019360000000 1.0
C      1  0.4943410000000  0.3620530000000  0.5032350000000 1.0
C      1  0.5623120000000  0.4016570000000  0.5059630000000 1.0
C      1  0.5501920000000  0.5106580000000  0.4806810000000 1.0
C      1  0.4494800000000  0.4321470000000  0.5596580000000 1.0
C      1  0.5664760000000  0.4698110000000  0.4353950000000 1.0
C      1  0.5199810000000  0.5587540000000  0.4767700000000 1.0
C      1  0.5368540000000  0.5492360000000  0.5731590000000 1.0
C      1  0.4447340000000  0.5201910000000  0.5886740000000 1.0
C      1  0.5161910000000  0.3177190000000  0.4853240000000 1.0
C      1  0.5050620000000  0.3395690000000  0.4941760000000 1.0
C      1  0.5195670000000  0.5536680000000  0.5301160000000 1.0
C      1  0.4765600000000  0.5198790000000  0.4957000000000 1.0
C      1  0.4535850000000  0.5505830000000  0.5526150000000 1.0
C      1  0.5141650000000  0.5580720000000  0.4479820000000 1.0
C      1  0.5357340000000  0.4874260000000  0.4884300000000 1.0
C      1  0.5481930000000  0.4998840000000  0.5346370000000 1.0
END
