TITL C-599895-9959-455 0.245603126973723 125000 -553.404740269963 0 0 92 (C1) n - 1
REM
REM in /home/nfs/bkarasulu/CARBON/AIRSS/Generating-Clusters/TERSOFF/Only-C1/FIRE-HFTN
REM
REM
REM
REM
REM
REM ./C.cell (11c1c37f851c82e70ff6c80c92926a4b)
REM AIRSS Version 0.9.1 bugfix July 2018 build 013d7b7c2542+ Fri, 06 Jul 2018 19:26:36 +0100
REM compiler GCC version 9.2.1 20190827 (Red Hat 9.2.1-1)
REM options -cpp -mtune=generic -march=x86-64 -g -O0 -fpre-include=/usr/include/finclude/math-vector-fortran.h
REM seed -497777875 -1143678211 -1035846309 1383925991 -808900713 -1563419006 -1842008979 1625436393 1389919490 1859249655 -1612965723 1583882192 468172352 1160325494 1497729792 -2059620868 797331012 108715323 -490647103 1765874538 -1657185564 1684685466 -1084634131 -1905824317 -919842989 2030615405 -2098407759 -256178459 169635694 -1880864069 -1172787395 -860810668 -1909652210
REM
CELL 1.54180   50.00000   50.00000   50.00000   90.00000   90.00000   90.00000
LATT -1
SFAC C  
C      1  0.5144930000000  0.4272340000000  0.3982120000000 1.0
C      1  0.5260000000000  0.4059170000000  0.4823320000000 1.0
C      1  0.4714910000000  0.5430680000000  0.5768600000000 1.0
C      1  0.5026960000000  0.4061680000000  0.4662300000000 1.0
C      1  0.4341020000000  0.5527510000000  0.4751580000000 1.0
C      1  0.5213470000000  0.5168140000000  0.4707780000000 1.0
C      1  0.5151140000000  0.5853380000000  0.6447600000000 1.0
C      1  0.3284700000000  0.5250470000000  0.5048370000000 1.0
C      1  0.5142850000000  0.5135710000000  0.4429150000000 1.0
C      1  0.3503480000000  0.5106150000000  0.5127590000000 1.0
C      1  0.4246590000000  0.4937580000000  0.4257680000000 1.0
C      1  0.5293520000000  0.4923240000000  0.4303010000000 1.0
C      1  0.5020240000000  0.4246540000000  0.4447290000000 1.0
C      1  0.4510330000000  0.5505020000000  0.4528910000000 1.0
C      1  0.5923300000000  0.4159470000000  0.5057990000000 1.0
C      1  0.5454960000000  0.4175670000000  0.4965790000000 1.0
C      1  0.4255000000000  0.5779170000000  0.4836860000000 1.0
C      1  0.4616590000000  0.4200830000000  0.4865780000000 1.0
C      1  0.4497410000000  0.4525320000000  0.4160890000000 1.0
C      1  0.5039610000000  0.5976180000000  0.6648710000000 1.0
C      1  0.5014060000000  0.4401520000000  0.5423730000000 1.0
C      1  0.5692210000000  0.5645460000000  0.4903110000000 1.0
C      1  0.4682640000000  0.3729450000000  0.4762370000000 1.0
C      1  0.4271730000000  0.5294170000000  0.4901460000000 1.0
C      1  0.5009260000000  0.6476510000000  0.5319120000000 1.0
C      1  0.4704520000000  0.5390610000000  0.4387170000000 1.0
C      1  0.4999620000000  0.5233730000000  0.4887600000000 1.0
C      1  0.4955410000000  0.4544430000000  0.5864690000000 1.0
C      1  0.4750610000000  0.6493170000000  0.5262120000000 1.0
C      1  0.5673520000000  0.5122920000000  0.4086490000000 1.0
C      1  0.5077880000000  0.4514470000000  0.4522230000000 1.0
C      1  0.5128800000000  0.4690690000000  0.4309660000000 1.0
C      1  0.4254240000000  0.6022900000000  0.4941190000000 1.0
C      1  0.5372740000000  0.5602440000000  0.6036690000000 1.0
C      1  0.4973890000000  0.4641940000000  0.5265330000000 1.0
C      1  0.4630660000000  0.4466480000000  0.4953100000000 1.0
C      1  0.4481060000000  0.4808560000000  0.4207760000000 1.0
C      1  0.5888050000000  0.5067680000000  0.4667900000000 1.0
C      1  0.5566060000000  0.5957810000000  0.5248990000000 1.0
C      1  0.4771800000000  0.3987000000000  0.4766400000000 1.0
C      1  0.5754160000000  0.4891140000000  0.5522420000000 1.0
C      1  0.5599610000000  0.5489550000000  0.5358960000000 1.0
C      1  0.3758530000000  0.5183010000000  0.5041650000000 1.0
C      1  0.5465850000000  0.5474910000000  0.5824060000000 1.0
C      1  0.4929920000000  0.4747650000000  0.4116800000000 1.0
C      1  0.5250270000000  0.6366470000000  0.5333550000000 1.0
C      1  0.4935760000000  0.4228470000000  0.4173190000000 1.0
C      1  0.5064050000000  0.4898990000000  0.5393900000000 1.0
C      1  0.5079790000000  0.4599280000000  0.4791410000000 1.0
C      1  0.5381320000000  0.4609870000000  0.5616890000000 1.0
C      1  0.4732460000000  0.5142100000000  0.4862160000000 1.0
C      1  0.5421930000000  0.4986320000000  0.4809050000000 1.0
C      1  0.4539750000000  0.4786260000000  0.5663320000000 1.0
C      1  0.5524020000000  0.5060880000000  0.5579060000000 1.0
C      1  0.4420930000000  0.4885340000000  0.5148560000000 1.0
C      1  0.5686510000000  0.4298380000000  0.5071610000000 1.0
C      1  0.4475330000000  0.5109620000000  0.4977280000000 1.0
C      1  0.4342540000000  0.6244600000000  0.5057080000000 1.0
C      1  0.5746420000000  0.5356560000000  0.4193120000000 1.0
C      1  0.4736640000000  0.4937340000000  0.4197210000000 1.0
C      1  0.4666970000000  0.4316020000000  0.4126900000000 1.0
C      1  0.4809970000000  0.3634410000000  0.5422240000000 1.0
C      1  0.5055170000000  0.5311770000000  0.5150490000000 1.0
C      1  0.5691120000000  0.4556510000000  0.5191950000000 1.0
C      1  0.4515710000000  0.6411070000000  0.5169850000000 1.0
C      1  0.5441330000000  0.6184380000000  0.5307080000000 1.0
C      1  0.5705390000000  0.4968250000000  0.4844210000000 1.0
C      1  0.5752730000000  0.5534560000000  0.4391470000000 1.0
C      1  0.3475610000000  0.4887450000000  0.5289970000000 1.0
C      1  0.5531260000000  0.5341410000000  0.5587570000000 1.0
C      1  0.4415740000000  0.4632570000000  0.5020750000000 1.0
C      1  0.5295890000000  0.4886720000000  0.5564120000000 1.0
C      1  0.4440750000000  0.4879940000000  0.5431200000000 1.0
C      1  0.5500220000000  0.4905330000000  0.4108910000000 1.0
C      1  0.4824580000000  0.5291210000000  0.5577680000000 1.0
C      1  0.4887690000000  0.4581840000000  0.4996840000000 1.0
C      1  0.5146010000000  0.4460300000000  0.5669310000000 1.0
C      1  0.5797620000000  0.4806720000000  0.5063090000000 1.0
C      1  0.5639620000000  0.4609630000000  0.5481230000000 1.0
C      1  0.5351150000000  0.4436030000000  0.3916810000000 1.0
C      1  0.5264080000000  0.5728410000000  0.6242940000000 1.0
C      1  0.4862610000000  0.5166510000000  0.4328710000000 1.0
C      1  0.5307350000000  0.4736970000000  0.4865550000000 1.0
C      1  0.4865420000000  0.3886700000000  0.5387160000000 1.0
C      1  0.5492040000000  0.4664680000000  0.3955090000000 1.0
C      1  0.4967080000000  0.5165860000000  0.5373910000000 1.0
C      1  0.5908230000000  0.4949830000000  0.5289480000000 1.0
C      1  0.4928660000000  0.4143420000000  0.5368640000000 1.0
C      1  0.5728710000000  0.5626510000000  0.4640280000000 1.0
C      1  0.5622830000000  0.5695320000000  0.5170010000000 1.0
C      1  0.4717970000000  0.4671140000000  0.5829230000000 1.0
C      1  0.4004890000000  0.5245560000000  0.4967600000000 1.0
END
