TITL C-599897-7526-9 0.00445892842762505 125000 -463.56730332067 0 0 76 (C1) n - 1
REM
REM in /home/nfs/bkarasulu/CARBON/AIRSS/Generating-Clusters/TERSOFF/Only-C1/FIRE-HFTN
REM
REM
REM
REM
REM
REM ./C.cell (11c1c37f851c82e70ff6c80c92926a4b)
REM AIRSS Version 0.9.1 bugfix July 2018 build 013d7b7c2542+ Fri, 06 Jul 2018 19:26:36 +0100
REM compiler GCC version 9.2.1 20190827 (Red Hat 9.2.1-1)
REM options -cpp -mtune=generic -march=x86-64 -g -O0 -fpre-include=/usr/include/finclude/math-vector-fortran.h
REM seed 1887032427 1246972115 1494892643 1335166693 1043665612 1826187347 1365722313 1193413912 1987965707 -1579078342 -1671727724 -1748624351 -1990561821 1376174183 810408015 408609020 292644930 1371713561 295214855 -1464318162 -345934356 -268780978 1251353490 -1699410672 -1592645006 -1243541335 1521897483 -1017706111 821990177 765756025 -627836917 1425414446 -1937440793
REM
CELL 1.54180   50.00000   50.00000   50.00000   90.00000   90.00000   90.00000
LATT -1
SFAC C  
C      1  0.5292760000000  0.4275390000000  0.5039940000000 1.0
C      1  0.4196270000000  0.4246800000000  0.5565940000000 1.0
C      1  0.4332800000000  0.5237760000000  0.4312910000000 1.0
C      1  0.5364650000000  0.5861260000000  0.5728280000000 1.0
C      1  0.4883510000000  0.5364510000000  0.4341860000000 1.0
C      1  0.5558890000000  0.4363810000000  0.4963220000000 1.0
C      1  0.4415900000000  0.5494880000000  0.4412170000000 1.0
C      1  0.5129620000000  0.4885340000000  0.4332150000000 1.0
C      1  0.5641810000000  0.4491500000000  0.4714580000000 1.0
C      1  0.3723790000000  0.4142310000000  0.5771170000000 1.0
C      1  0.5033360000000  0.4796300000000  0.5299120000000 1.0
C      1  0.5085900000000  0.4247650000000  0.4837980000000 1.0
C      1  0.5772660000000  0.4724070000000  0.4637730000000 1.0
C      1  0.4911410000000  0.4228260000000  0.5396240000000 1.0
C      1  0.4677920000000  0.5555470000000  0.4320180000000 1.0
C      1  0.4888910000000  0.5197030000000  0.4582280000000 1.0
C      1  0.4929410000000  0.5294540000000  0.5160850000000 1.0
C      1  0.5192420000000  0.5970450000000  0.5552340000000 1.0
C      1  0.5820020000000  0.4684750000000  0.5212540000000 1.0
C      1  0.4443140000000  0.4308810000000  0.5460560000000 1.0
C      1  0.5535620000000  0.5450260000000  0.5520280000000 1.0
C      1  0.4661640000000  0.5345060000000  0.5536330000000 1.0
C      1  0.4641120000000  0.5168550000000  0.4706640000000 1.0
C      1  0.4436290000000  0.5163460000000  0.4875210000000 1.0
C      1  0.4418940000000  0.4830510000000  0.5202890000000 1.0
C      1  0.4524540000000  0.4351390000000  0.5184540000000 1.0
C      1  0.5486540000000  0.5493810000000  0.4315530000000 1.0
C      1  0.4742310000000  0.4162570000000  0.5157300000000 1.0
C      1  0.5090130000000  0.4966580000000  0.4629850000000 1.0
C      1  0.5009150000000  0.5275740000000  0.4103650000000 1.0
C      1  0.4973220000000  0.4722630000000  0.4801600000000 1.0
C      1  0.5007980000000  0.4463860000000  0.4671590000000 1.0
C      1  0.4466250000000  0.5100270000000  0.5144440000000 1.0
C      1  0.5196760000000  0.4246860000000  0.5324060000000 1.0
C      1  0.5398180000000  0.4492680000000  0.5712530000000 1.0
C      1  0.5410480000000  0.5607440000000  0.4563830000000 1.0
C      1  0.4689870000000  0.4579780000000  0.5770830000000 1.0
C      1  0.5793290000000  0.4978720000000  0.4783520000000 1.0
C      1  0.5587510000000  0.5193020000000  0.4730500000000 1.0
C      1  0.5190950000000  0.5235920000000  0.5242920000000 1.0
C      1  0.4752990000000  0.5776810000000  0.4975230000000 1.0
C      1  0.4907870000000  0.4709160000000  0.4258290000000 1.0
C      1  0.5108700000000  0.5887950000000  0.5295560000000 1.0
C      1  0.5024070000000  0.4803170000000  0.5584120000000 1.0
C      1  0.4683780000000  0.5125050000000  0.5724370000000 1.0
C      1  0.5463580000000  0.5249880000000  0.4197600000000 1.0
C      1  0.4653460000000  0.4828140000000  0.4198610000000 1.0
C      1  0.5347300000000  0.5029730000000  0.4771550000000 1.0
C      1  0.5457460000000  0.5580480000000  0.5051580000000 1.0
C      1  0.5225210000000  0.5100720000000  0.4166180000000 1.0
C      1  0.4674650000000  0.5241370000000  0.5269830000000 1.0
C      1  0.5709010000000  0.4891560000000  0.5058440000000 1.0
C      1  0.4593430000000  0.4622770000000  0.5126220000000 1.0
C      1  0.4840130000000  0.5781290000000  0.5257230000000 1.0
C      1  0.4703690000000  0.4347450000000  0.5600420000000 1.0
C      1  0.5530010000000  0.5473460000000  0.4789580000000 1.0
C      1  0.5512880000000  0.5637070000000  0.5712190000000 1.0
C      1  0.5420440000000  0.4902520000000  0.5024740000000 1.0
C      1  0.3958170000000  0.4193810000000  0.5669310000000 1.0
C      1  0.5250060000000  0.4716240000000  0.5728640000000 1.0
C      1  0.4778150000000  0.4850260000000  0.5721550000000 1.0
C      1  0.4937130000000  0.5344340000000  0.3850650000000 1.0
C      1  0.4957660000000  0.5801980000000  0.4773750000000 1.0
C      1  0.4492830000000  0.5725800000000  0.4870550000000 1.0
C      1  0.5416340000000  0.5401960000000  0.5270750000000 1.0
C      1  0.4866750000000  0.4709950000000  0.5076360000000 1.0
C      1  0.5318720000000  0.5825760000000  0.5107260000000 1.0
C      1  0.4927520000000  0.4463070000000  0.4399960000000 1.0
C      1  0.5172940000000  0.5752960000000  0.4618640000000 1.0
C      1  0.5244350000000  0.4962360000000  0.5223470000000 1.0
C      1  0.5741700000000  0.4427230000000  0.5173960000000 1.0
C      1  0.4449660000000  0.5005060000000  0.4230060000000 1.0
C      1  0.4355490000000  0.5628460000000  0.4656780000000 1.0
C      1  0.4721280000000  0.5630150000000  0.5484360000000 1.0
C      1  0.4871420000000  0.4083410000000  0.4923050000000 1.0
C      1  0.5375230000000  0.4288620000000  0.5539060000000 1.0
END
