TITL C-599897-7526-920 0.000577766255018602 125000 -1079.78093987966 0 0 177 (C1) n - 1
REM
REM in /home/nfs/bkarasulu/CARBON/AIRSS/Generating-Clusters/TERSOFF/Only-C1/FIRE-HFTN
REM
REM
REM
REM
REM
REM ./C.cell (11c1c37f851c82e70ff6c80c92926a4b)
REM AIRSS Version 0.9.1 bugfix July 2018 build 013d7b7c2542+ Fri, 06 Jul 2018 19:26:36 +0100
REM compiler GCC version 9.2.1 20190827 (Red Hat 9.2.1-1)
REM options -cpp -mtune=generic -march=x86-64 -g -O0 -fpre-include=/usr/include/finclude/math-vector-fortran.h
REM seed -259396829 357357458 1606889218 -1503438735 616951607 -1105507679 1309060629 -2076876931 -192862580 -2123468171 -2132328317 757322521 -1464389348 1886081748 -1563965177 1438033815 795250726 -1486669207 397097769 945215478 -1282792064 1360967046 1417733250 -582196850 507507658 1478178425 1239709552 -1830028185 -2031305404 -1245378050 637162428 1279842071 1155773937
REM
CELL 1.54180   50.00000   50.00000   50.00000   90.00000   90.00000   90.00000
LATT -1
SFAC C  
C      1  0.4497970000000  0.5202370000000  0.6006160000000 1.0
C      1  0.6015850000000  0.5405890000000  0.5164320000000 1.0
C      1  0.4731960000000  0.3848540000000  0.5502430000000 1.0
C      1  0.5711700000000  0.5034310000000  0.4201330000000 1.0
C      1  0.4977480000000  0.4831900000000  0.5240350000000 1.0
C      1  0.6250110000000  0.4863160000000  0.5553060000000 1.0
C      1  0.4488360000000  0.5470880000000  0.5411450000000 1.0
C      1  0.5586100000000  0.5702490000000  0.5802700000000 1.0
C      1  0.4342150000000  0.6016790000000  0.4307360000000 1.0
C      1  0.5053370000000  0.5095330000000  0.3869310000000 1.0
C      1  0.3764730000000  0.5309520000000  0.4653120000000 1.0
C      1  0.5944310000000  0.5675810000000  0.5126840000000 1.0
C      1  0.5608410000000  0.6076360000000  0.4558890000000 1.0
C      1  0.5227900000000  0.4473970000000  0.4990800000000 1.0
C      1  0.5325320000000  0.4521180000000  0.5602290000000 1.0
C      1  0.5668360000000  0.5295610000000  0.4255900000000 1.0
C      1  0.4942800000000  0.5348080000000  0.5513040000000 1.0
C      1  0.4124740000000  0.5894000000000  0.4411460000000 1.0
C      1  0.4030020000000  0.5421320000000  0.6154870000000 1.0
C      1  0.3807820000000  0.4424130000000  0.5185520000000 1.0
C      1  0.5678390000000  0.5862360000000  0.4738040000000 1.0
C      1  0.4493760000000  0.6152570000000  0.5255730000000 1.0
C      1  0.5523820000000  0.4683170000000  0.5481580000000 1.0
C      1  0.5525050000000  0.5298130000000  0.3620230000000 1.0
C      1  0.4941500000000  0.6366640000000  0.4664040000000 1.0
C      1  0.4917900000000  0.4984930000000  0.5007940000000 1.0
C      1  0.4847710000000  0.5108530000000  0.5631270000000 1.0
C      1  0.5527310000000  0.6217610000000  0.5179190000000 1.0
C      1  0.5570660000000  0.5139210000000  0.5121600000000 1.0
C      1  0.4475300000000  0.4372040000000  0.4959570000000 1.0
C      1  0.6278220000000  0.5061200000000  0.5021800000000 1.0
C      1  0.4191140000000  0.4643220000000  0.6261360000000 1.0
C      1  0.4730250000000  0.6334310000000  0.4822700000000 1.0
C      1  0.5308350000000  0.5433610000000  0.6099210000000 1.0
C      1  0.4686980000000  0.6012860000000  0.5679690000000 1.0
C      1  0.5533110000000  0.4947810000000  0.5595850000000 1.0
C      1  0.5466080000000  0.5467210000000  0.4160530000000 1.0
C      1  0.6106360000000  0.5069640000000  0.3788740000000 1.0
C      1  0.5075620000000  0.4743020000000  0.5955130000000 1.0
C      1  0.5620470000000  0.3888460000000  0.5462620000000 1.0
C      1  0.5080660000000  0.5146450000000  0.4170750000000 1.0
C      1  0.5188830000000  0.5423330000000  0.4214110000000 1.0
C      1  0.4642790000000  0.4980970000000  0.4917330000000 1.0
C      1  0.5156380000000  0.4228970000000  0.4845190000000 1.0
C      1  0.5928850000000  0.4777050000000  0.5206540000000 1.0
C      1  0.3735190000000  0.5158260000000  0.5152000000000 1.0
C      1  0.5640900000000  0.6049390000000  0.4282280000000 1.0
C      1  0.4756340000000  0.4325920000000  0.5521620000000 1.0
C      1  0.4847750000000  0.3819330000000  0.4977510000000 1.0
C      1  0.5741040000000  0.5744800000000  0.5590050000000 1.0
C      1  0.4538850000000  0.4944530000000  0.4657030000000 1.0
C      1  0.5038990000000  0.4565910000000  0.5181780000000 1.0
C      1  0.6303020000000  0.5125380000000  0.5490970000000 1.0
C      1  0.6004180000000  0.4967510000000  0.5015320000000 1.0
C      1  0.5864390000000  0.4247120000000  0.5675030000000 1.0
C      1  0.4854040000000  0.4520170000000  0.6321430000000 1.0
C      1  0.4380720000000  0.5474810000000  0.4935580000000 1.0
C      1  0.5199140000000  0.6355380000000  0.4596340000000 1.0
C      1  0.4823620000000  0.3747960000000  0.5252380000000 1.0
C      1  0.4050950000000  0.4288460000000  0.5155620000000 1.0
C      1  0.4447550000000  0.4961580000000  0.5108120000000 1.0
C      1  0.6253410000000  0.5344640000000  0.4209960000000 1.0
C      1  0.5409720000000  0.4956480000000  0.4957030000000 1.0
C      1  0.5360210000000  0.4244340000000  0.5669400000000 1.0
C      1  0.4682140000000  0.5188950000000  0.6215430000000 1.0
C      1  0.4585550000000  0.5145630000000  0.4104560000000 1.0
C      1  0.4511840000000  0.5480370000000  0.4695370000000 1.0
C      1  0.4388870000000  0.4900010000000  0.5370100000000 1.0
C      1  0.5665290000000  0.4627210000000  0.5223750000000 1.0
C      1  0.4724590000000  0.4269340000000  0.5039900000000 1.0
C      1  0.5769550000000  0.4231000000000  0.4965000000000 1.0
C      1  0.4806540000000  0.5098550000000  0.4277860000000 1.0
C      1  0.4366990000000  0.5487620000000  0.4447520000000 1.0
C      1  0.3909920000000  0.5085780000000  0.5648870000000 1.0
C      1  0.4056430000000  0.4096600000000  0.5745390000000 1.0
C      1  0.4243460000000  0.5303000000000  0.6063170000000 1.0
C      1  0.4632380000000  0.4199180000000  0.4281020000000 1.0
C      1  0.3846620000000  0.4580950000000  0.5779060000000 1.0
C      1  0.4373130000000  0.5188310000000  0.5513080000000 1.0
C      1  0.4938330000000  0.4635570000000  0.3828820000000 1.0
C      1  0.5799240000000  0.4348780000000  0.5225280000000 1.0
C      1  0.6091220000000  0.5602000000000  0.4644080000000 1.0
C      1  0.4201000000000  0.5081360000000  0.4327570000000 1.0
C      1  0.5500650000000  0.4876840000000  0.4101300000000 1.0
C      1  0.4578390000000  0.6264340000000  0.5029630000000 1.0
C      1  0.5346040000000  0.5663410000000  0.5942760000000 1.0
C      1  0.5524260000000  0.5573710000000  0.3685990000000 1.0
C      1  0.4915890000000  0.4092790000000  0.4926950000000 1.0
C      1  0.6092010000000  0.4663690000000  0.5427000000000 1.0
C      1  0.5155970000000  0.5073690000000  0.4876510000000 1.0
C      1  0.6198820000000  0.5475460000000  0.4435880000000 1.0
C      1  0.5519030000000  0.4965690000000  0.5882420000000 1.0
C      1  0.4838890000000  0.4391460000000  0.5261910000000 1.0
C      1  0.4548020000000  0.4438650000000  0.4130160000000 1.0
C      1  0.4207930000000  0.4461130000000  0.4518720000000 1.0
C      1  0.5185660000000  0.5188680000000  0.6161100000000 1.0
C      1  0.4827450000000  0.5833360000000  0.4238450000000 1.0
C      1  0.4455160000000  0.3868840000000  0.4678060000000 1.0
C      1  0.4383350000000  0.4613910000000  0.5421550000000 1.0
C      1  0.4937380000000  0.5191210000000  0.6288690000000 1.0
C      1  0.4256600000000  0.4962200000000  0.4580550000000 1.0
C      1  0.5154940000000  0.5308100000000  0.4735750000000 1.0
C      1  0.5131110000000  0.5840440000000  0.5904010000000 1.0
C      1  0.4601000000000  0.5975490000000  0.4249380000000 1.0
C      1  0.4290390000000  0.4505180000000  0.4248080000000 1.0
C      1  0.5885260000000  0.4987630000000  0.3661630000000 1.0
C      1  0.5615210000000  0.5907530000000  0.4057190000000 1.0
C      1  0.5011960000000  0.5640560000000  0.4250410000000 1.0
C      1  0.4074180000000  0.5237660000000  0.5473170000000 1.0
C      1  0.3842380000000  0.4845870000000  0.5745860000000 1.0
C      1  0.5656750000000  0.4443740000000  0.4795010000000 1.0
C      1  0.5982960000000  0.4387460000000  0.5456910000000 1.0
C      1  0.3921650000000  0.4324690000000  0.5777740000000 1.0
C      1  0.5750720000000  0.3948620000000  0.4959880000000 1.0
C      1  0.5752490000000  0.4988590000000  0.6025520000000 1.0
C      1  0.5345460000000  0.4080440000000  0.4360380000000 1.0
C      1  0.4098200000000  0.5449860000000  0.4979120000000 1.0
C      1  0.4004840000000  0.4861170000000  0.4676650000000 1.0
C      1  0.4668990000000  0.3715150000000  0.4783640000000 1.0
C      1  0.4907630000000  0.5956700000000  0.5818010000000 1.0
C      1  0.5404890000000  0.4040570000000  0.4109730000000 1.0
C      1  0.5483220000000  0.5811790000000  0.4941510000000 1.0
C      1  0.5458970000000  0.6291220000000  0.4681280000000 1.0
C      1  0.5508370000000  0.5760760000000  0.3486640000000 1.0
C      1  0.5266470000000  0.4910170000000  0.4258190000000 1.0
C      1  0.6253940000000  0.6271710000000  0.4869810000000 1.0
C      1  0.6264420000000  0.5260840000000  0.5241560000000 1.0
C      1  0.4498190000000  0.5977050000000  0.5474000000000 1.0
C      1  0.5834950000000  0.5203630000000  0.5046290000000 1.0
C      1  0.3788620000000  0.5040930000000  0.4661380000000 1.0
C      1  0.5613240000000  0.4110510000000  0.5640070000000 1.0
C      1  0.3630790000000  0.4911750000000  0.5161540000000 1.0
C      1  0.5278200000000  0.4145890000000  0.4608240000000 1.0
C      1  0.4966120000000  0.4876920000000  0.5517980000000 1.0
C      1  0.5547470000000  0.5935900000000  0.5190460000000 1.0
C      1  0.5963130000000  0.5795010000000  0.4834830000000 1.0
C      1  0.5174170000000  0.4702830000000  0.4419890000000 1.0
C      1  0.4522750000000  0.4112880000000  0.4536890000000 1.0
C      1  0.4297430000000  0.4437480000000  0.5185400000000 1.0
C      1  0.5126180000000  0.4090450000000  0.5710740000000 1.0
C      1  0.5605490000000  0.5028630000000  0.3659380000000 1.0
C      1  0.4921260000000  0.4686650000000  0.4505300000000 1.0
C      1  0.5537700000000  0.5656010000000  0.3959470000000 1.0
C      1  0.4674090000000  0.4639360000000  0.3953840000000 1.0
C      1  0.3986870000000  0.4585920000000  0.4635460000000 1.0
C      1  0.4372390000000  0.5723920000000  0.5454970000000 1.0
C      1  0.4238510000000  0.3912730000000  0.5679940000000 1.0
C      1  0.5763340000000  0.5800090000000  0.5317280000000 1.0
C      1  0.4215590000000  0.3887310000000  0.4838670000000 1.0
C      1  0.4745370000000  0.4901790000000  0.4473400000000 1.0
C      1  0.4115490000000  0.5629390000000  0.4508830000000 1.0
C      1  0.5484810000000  0.4642270000000  0.4966000000000 1.0
C      1  0.6126980000000  0.6045140000000  0.4850950000000 1.0
C      1  0.5670410000000  0.3830820000000  0.5204920000000 1.0
C      1  0.4358260000000  0.4613250000000  0.6063300000000 1.0
C      1  0.5143320000000  0.4834270000000  0.3780010000000 1.0
C      1  0.4767220000000  0.5482950000000  0.5359640000000 1.0
C      1  0.4863440000000  0.4078610000000  0.5612490000000 1.0
C      1  0.6228760000000  0.5203340000000  0.3984930000000 1.0
C      1  0.5522140000000  0.6361970000000  0.4949890000000 1.0
C      1  0.4374390000000  0.5286510000000  0.4240290000000 1.0
C      1  0.3958540000000  0.5503640000000  0.4722530000000 1.0
C      1  0.5266200000000  0.4950740000000  0.6026780000000 1.0
C      1  0.4547130000000  0.4905410000000  0.3944450000000 1.0
C      1  0.4077470000000  0.4038230000000  0.5017350000000 1.0
C      1  0.5101360000000  0.4683820000000  0.5680980000000 1.0
C      1  0.4468580000000  0.3807330000000  0.5593850000000 1.0
C      1  0.5516970000000  0.5151300000000  0.5401400000000 1.0
C      1  0.4593480000000  0.4583060000000  0.5911180000000 1.0
C      1  0.3661520000000  0.4647120000000  0.5178160000000 1.0
C      1  0.4576310000000  0.5137540000000  0.5739780000000 1.0
C      1  0.4841570000000  0.4620020000000  0.6065370000000 1.0
C      1  0.4402300000000  0.4335610000000  0.4682720000000 1.0
C      1  0.5437470000000  0.4855110000000  0.3818630000000 1.0
C      1  0.4562460000000  0.4503940000000  0.5631980000000 1.0
C      1  0.3972510000000  0.5307010000000  0.5205940000000 1.0
C      1  0.5813120000000  0.3799850000000  0.4740290000000 1.0
END
