TITL C-599896-8500-1053 -0.0488451471580242 125000 -245.831374164962 0 0 42 (C1) n - 1
REM
REM in /home/nfs/bkarasulu/CARBON/AIRSS/Generating-Clusters/TERSOFF/Only-C1/FIRE-HFTN
REM
REM
REM
REM
REM
REM ./C.cell (11c1c37f851c82e70ff6c80c92926a4b)
REM AIRSS Version 0.9.1 bugfix July 2018 build 013d7b7c2542+ Fri, 06 Jul 2018 19:26:36 +0100
REM compiler GCC version 9.2.1 20190827 (Red Hat 9.2.1-1)
REM options -cpp -mtune=generic -march=x86-64 -g -O0 -fpre-include=/usr/include/finclude/math-vector-fortran.h
REM seed 1830423336 -58245866 -2102126820 -998784544 -474557703 -1155448647 1933735132 -263151698 1226374118 1912818119 -1240404839 1548596264 1466729301 1208896451 -1839697870 -1975865116 -521920196 492249498 -459204946 1196948174 -683225647 155361065 -829359914 -1812781510 579516604 1255316691 -983253591 -2019798523 1577198524 529890092 2006897136 -1561181208 -1884178710
REM
CELL 1.54180   50.00000   50.00000   50.00000   90.00000   90.00000   90.00000
LATT -1
SFAC C  
C      1  0.5027000000000  0.4419670000000  0.5134470000000 1.0
C      1  0.4307790000000  0.5118720000000  0.5170190000000 1.0
C      1  0.5744970000000  0.5233580000000  0.4891000000000 1.0
C      1  0.5804180000000  0.4362900000000  0.5295950000000 1.0
C      1  0.5052110000000  0.5130680000000  0.5378390000000 1.0
C      1  0.5180210000000  0.5288490000000  0.5561640000000 1.0
C      1  0.4519840000000  0.5265730000000  0.5302150000000 1.0
C      1  0.5671300000000  0.4835890000000  0.5337430000000 1.0
C      1  0.5650590000000  0.4166040000000  0.5168820000000 1.0
C      1  0.5667720000000  0.4569800000000  0.5437350000000 1.0
C      1  0.5178700000000  0.4854620000000  0.4633720000000 1.0
C      1  0.5966060000000  0.5294460000000  0.5031040000000 1.0
C      1  0.5050390000000  0.4674250000000  0.5207170000000 1.0
C      1  0.4351880000000  0.4879440000000  0.5025790000000 1.0
C      1  0.4784420000000  0.5179790000000  0.5312290000000 1.0
C      1  0.4917650000000  0.4816730000000  0.4580070000000 1.0
C      1  0.3838620000000  0.5686120000000  0.4045490000000 1.0
C      1  0.4938280000000  0.5383830000000  0.4561700000000 1.0
C      1  0.6033640000000  0.5188670000000  0.5269690000000 1.0
C      1  0.5405800000000  0.4095450000000  0.5090420000000 1.0
C      1  0.4187090000000  0.5608050000000  0.5433690000000 1.0
C      1  0.5186810000000  0.5327820000000  0.4646970000000 1.0
C      1  0.4047400000000  0.5233860000000  0.5187550000000 1.0
C      1  0.6343030000000  0.4366450000000  0.5277680000000 1.0
C      1  0.4480490000000  0.4894910000000  0.4777910000000 1.0
C      1  0.6082730000000  0.4357070000000  0.5286180000000 1.0
C      1  0.3626600000000  0.5791410000000  0.3936300000000 1.0
C      1  0.5511230000000  0.5080370000000  0.4924390000000 1.0
C      1  0.4269680000000  0.5472020000000  0.4267550000000 1.0
C      1  0.4440670000000  0.5509720000000  0.5427120000000 1.0
C      1  0.5894650000000  0.4997440000000  0.5397880000000 1.0
C      1  0.4273780000000  0.4638350000000  0.5128310000000 1.0
C      1  0.4697560000000  0.5245290000000  0.4512840000000 1.0
C      1  0.4054200000000  0.5579060000000  0.4156520000000 1.0
C      1  0.5312140000000  0.5086570000000  0.4724340000000 1.0
C      1  0.5157770000000  0.4193600000000  0.5080980000000 1.0
C      1  0.5460600000000  0.4940220000000  0.5171650000000 1.0
C      1  0.5538510000000  0.4513020000000  0.5672170000000 1.0
C      1  0.5187910000000  0.4913270000000  0.5255680000000 1.0
C      1  0.3987540000000  0.5468010000000  0.5312460000000 1.0
C      1  0.4685100000000  0.4974530000000  0.4606200000000 1.0
C      1  0.4483370000000  0.5364100000000  0.4380870000000 1.0
END
