TITL C-599890-3321-468 1.31256698152565 125000 -133.937744952926 0 0 24 (C1) n - 1
REM
REM in /home/nfs/bkarasulu/CARBON/AIRSS/Generating-Clusters/TERSOFF/Only-C1/FIRE-HFTN
REM
REM
REM
REM
REM
REM ./C.cell (11c1c37f851c82e70ff6c80c92926a4b)
REM AIRSS Version 0.9.1 bugfix July 2018 build 013d7b7c2542+ Fri, 06 Jul 2018 19:26:36 +0100
REM compiler GCC version 9.2.1 20190827 (Red Hat 9.2.1-1)
REM options -cpp -mtune=generic -march=x86-64 -g -O0 -fpre-include=/usr/include/finclude/math-vector-fortran.h
REM seed -223810690 9313099 -17578384 -665007428 1601128382 -1618472069 -1915362999 179568154 -488325515 -1943921997 -821500441 2070907586 -269462585 -1344707225 -946739110 1876959104 -833638521 -1047608302 1699876521 -110238919 1903052725 -747237056 305506283 440883273 -1914803529 -102179544 -699359210 -1429936966 -1823703988 72453096 237640943 1077748015 823597720
REM
CELL 1.54180   50.00000   50.00000   50.00000   90.00000   90.00000   90.00000
LATT -1
SFAC C  
C      1  0.4760850000000  0.4458290000000  0.4075000000000 1.0
C      1  0.5412770000000  0.4744100000000  0.4768060000000 1.0
C      1  0.4429490000000  0.5743170000000  0.5686010000000 1.0
C      1  0.4450360000000  0.4199600000000  0.4551030000000 1.0
C      1  0.5828130000000  0.4861860000000  0.4987140000000 1.0
C      1  0.3990420000000  0.5979390000000  0.5852860000000 1.0
C      1  0.5412140000000  0.5064420000000  0.5129690000000 1.0
C      1  0.4336510000000  0.5103890000000  0.4928050000000 1.0
C      1  0.4786820000000  0.4481250000000  0.4346360000000 1.0
C      1  0.6090540000000  0.4835140000000  0.5011340000000 1.0
C      1  0.5551520000000  0.4890070000000  0.4961670000000 1.0
C      1  0.4388890000000  0.4886870000000  0.4785140000000 1.0
C      1  0.4560960000000  0.4447370000000  0.4515970000000 1.0
C      1  0.4285520000000  0.5317410000000  0.5068660000000 1.0
C      1  0.6611410000000  0.4782110000000  0.5059390000000 1.0
C      1  0.4647780000000  0.5621640000000  0.5597700000000 1.0
C      1  0.4858130000000  0.5494140000000  0.5499130000000 1.0
C      1  0.4208280000000  0.5862390000000  0.5770340000000 1.0
C      1  0.4456040000000  0.4670450000000  0.4647940000000 1.0
C      1  0.5246520000000  0.5217730000000  0.5268390000000 1.0
C      1  0.5034410000000  0.4540980000000  0.4461700000000 1.0
C      1  0.5058970000000  0.5360080000000  0.5389990000000 1.0
C      1  0.5240420000000  0.4629270000000  0.4602880000000 1.0
C      1  0.6353140000000  0.4808400000000  0.5035570000000 1.0
END
