TITL C-599895-9959-3 0.680040097046836 125000 -325.42770910959 0 0 54 (C1) n - 1
REM
REM in /home/nfs/bkarasulu/CARBON/AIRSS/Generating-Clusters/TERSOFF/Only-C1/FIRE-HFTN
REM
REM
REM
REM
REM
REM ./C.cell (11c1c37f851c82e70ff6c80c92926a4b)
REM AIRSS Version 0.9.1 bugfix July 2018 build 013d7b7c2542+ Fri, 06 Jul 2018 19:26:36 +0100
REM compiler GCC version 9.2.1 20190827 (Red Hat 9.2.1-1)
REM options -cpp -mtune=generic -march=x86-64 -g -O0 -fpre-include=/usr/include/finclude/math-vector-fortran.h
REM seed -1359974474 -244264824 126458631 774709643 -1845679357 -674978094 1069712571 424139893 144092803 1654292942 1879688315 -1756505700 -1448155721 836166948 539212829 -1325985193 -1656493852 1871220093 -566232633 -681155342 -953922150 -1621967680 39112257 820673425 -2050517798 1566830413 -1258824824 -1922869010 88617126 -596569883 591308617 990067450 -2096100123
REM
CELL 1.54180   50.00000   50.00000   50.00000   90.00000   90.00000   90.00000
LATT -1
SFAC C  
C      1  0.3873940000000  0.4835480000000  0.5096320000000 1.0
C      1  0.5695470000000  0.5826300000000  0.5717320000000 1.0
C      1  0.5185820000000  0.4952610000000  0.5828330000000 1.0
C      1  0.4248180000000  0.4523780000000  0.5091970000000 1.0
C      1  0.5844350000000  0.5776790000000  0.5509220000000 1.0
C      1  0.5670350000000  0.4542430000000  0.4820860000000 1.0
C      1  0.5671140000000  0.5499060000000  0.4871640000000 1.0
C      1  0.4882190000000  0.5457090000000  0.5408440000000 1.0
C      1  0.4947350000000  0.4536090000000  0.5298320000000 1.0
C      1  0.4762760000000  0.5394190000000  0.4525470000000 1.0
C      1  0.5189170000000  0.4418080000000  0.4591740000000 1.0
C      1  0.4725980000000  0.4572520000000  0.4417100000000 1.0
C      1  0.4318960000000  0.5008860000000  0.5208620000000 1.0
C      1  0.5116730000000  0.5055980000000  0.4968940000000 1.0
C      1  0.4754620000000  0.5030970000000  0.5606810000000 1.0
C      1  0.4653220000000  0.4442530000000  0.4640350000000 1.0
C      1  0.5301380000000  0.5937940000000  0.5045720000000 1.0
C      1  0.5241780000000  0.5261260000000  0.4819670000000 1.0
C      1  0.6253300000000  0.5768660000000  0.5257650000000 1.0
C      1  0.3696160000000  0.4642630000000  0.5024150000000 1.0
C      1  0.3785050000000  0.4388480000000  0.4983810000000 1.0
C      1  0.5652430000000  0.4684470000000  0.4591750000000 1.0
C      1  0.5443280000000  0.5087250000000  0.4420560000000 1.0
C      1  0.4523580000000  0.5383780000000  0.4985840000000 1.0
C      1  0.5478100000000  0.4413770000000  0.4962440000000 1.0
C      1  0.4699380000000  0.5244300000000  0.5424850000000 1.0
C      1  0.4707020000000  0.4404680000000  0.4912320000000 1.0
C      1  0.4049490000000  0.4333870000000  0.5016810000000 1.0
C      1  0.4977440000000  0.4420980000000  0.5028200000000 1.0
C      1  0.5210670000000  0.4387130000000  0.4873340000000 1.0
C      1  0.4504310000000  0.5219380000000  0.5214980000000 1.0
C      1  0.4869750000000  0.4968710000000  0.4886100000000 1.0
C      1  0.5220980000000  0.5225940000000  0.4536020000000 1.0
C      1  0.5764900000000  0.5401720000000  0.4624250000000 1.0
C      1  0.5228160000000  0.4918160000000  0.5185920000000 1.0
C      1  0.4153850000000  0.4795910000000  0.5134980000000 1.0
C      1  0.5259890000000  0.5671230000000  0.5091760000000 1.0
C      1  0.4901310000000  0.5002400000000  0.4263680000000 1.0
C      1  0.5093410000000  0.4767670000000  0.5383790000000 1.0
C      1  0.5683700000000  0.5234580000000  0.4429670000000 1.0
C      1  0.5441510000000  0.4802320000000  0.4440200000000 1.0
C      1  0.5019040000000  0.4918340000000  0.5615160000000 1.0
C      1  0.5847870000000  0.5606700000000  0.5058290000000 1.0
C      1  0.4556180000000  0.4850920000000  0.5695630000000 1.0
C      1  0.4942460000000  0.4731790000000  0.4328190000000 1.0
C      1  0.4541820000000  0.4598490000000  0.5600590000000 1.0
C      1  0.4516840000000  0.4451190000000  0.5124260000000 1.0
C      1  0.5985130000000  0.5717970000000  0.5274810000000 1.0
C      1  0.5391370000000  0.5475530000000  0.4931290000000 1.0
C      1  0.4964230000000  0.5233360000000  0.4413150000000 1.0
C      1  0.4609850000000  0.5441910000000  0.4739740000000 1.0
C      1  0.5200280000000  0.4644360000000  0.4419420000000 1.0
C      1  0.5080410000000  0.5589660000000  0.5291120000000 1.0
C      1  0.4663480000000  0.4499810000000  0.5368440000000 1.0
END
