TITL C-599894-471-736 16.2027510493193 125000 -356.31552141344 0 0 60 (C1) n - 1
REM
REM in /home/nfs/bkarasulu/CARBON/AIRSS/Generating-Clusters/TERSOFF/Only-C1/FIRE-HFTN
REM
REM
REM
REM
REM
REM ./C.cell (11c1c37f851c82e70ff6c80c92926a4b)
REM AIRSS Version 0.9.1 bugfix July 2018 build 013d7b7c2542+ Fri, 06 Jul 2018 19:26:36 +0100
REM compiler GCC version 9.2.1 20190827 (Red Hat 9.2.1-1)
REM options -cpp -mtune=generic -march=x86-64 -g -O0 -fpre-include=/usr/include/finclude/math-vector-fortran.h
REM seed 1400823491 -668459680 -926014872 624274371 180081318 475033309 -462584978 -1134658755 1984066468 431201562 -687291281 -892788403 905000999 -185573859 36969347 -1758545588 -2075929247 -480790685 -909133110 -1456737683 52692075 -1760051109 -179543356 -1222853253 -1223517621 2066043239 -767173794 324178610 852975198 1198927619 1482602192 -1840482535 -593953776
REM
CELL 1.54180   50.00000   50.00000   50.00000   90.00000   90.00000   90.00000
LATT -1
SFAC C  
C      1  0.5215220000000  0.4096200000000  0.4917300000000 1.0
C      1  0.4286650000000  0.4758600000000  0.4975300000000 1.0
C      1  0.5158070000000  0.4543520000000  0.5083760000000 1.0
C      1  0.5151220000000  0.5156190000000  0.3791050000000 1.0
C      1  0.5045670000000  0.5817680000000  0.5110750000000 1.0
C      1  0.5360950000000  0.4920690000000  0.4593340000000 1.0
C      1  0.4490010000000  0.4982030000000  0.4588550000000 1.0
C      1  0.4963380000000  0.4416090000000  0.4661660000000 1.0
C      1  0.3728080000000  0.3916800000000  0.6078580000000 1.0
C      1  0.3582590000000  0.3754250000000  0.6229020000000 1.0
C      1  0.5158070000000  0.5497500000000  0.4133480000000 1.0
C      1  0.5373630000000  0.5582540000000  0.4293020000000 1.0
C      1  0.4930110000000  0.5823350000000  0.4640640000000 1.0
C      1  0.5952440000000  0.5488050000000  0.5225710000000 1.0
C      1  0.4019060000000  0.4241910000000  0.5777710000000 1.0
C      1  0.4921320000000  0.4769860000000  0.4030130000000 1.0
C      1  0.4254690000000  0.4618700000000  0.5199440000000 1.0
C      1  0.5892960000000  0.4747140000000  0.5190390000000 1.0
C      1  0.5269250000000  0.5608920000000  0.3674850000000 1.0
C      1  0.5125510000000  0.4746730000000  0.5251000000000 1.0
C      1  0.5752600000000  0.5724990000000  0.4574600000000 1.0
C      1  0.5420620000000  0.5373250000000  0.5654800000000 1.0
C      1  0.3293930000000  0.3431740000000  0.6527500000000 1.0
C      1  0.5334290000000  0.5597250000000  0.4780000000000 1.0
C      1  0.4539850000000  0.4710080000000  0.5574200000000 1.0
C      1  0.6064130000000  0.5553470000000  0.5472760000000 1.0
C      1  0.4675450000000  0.4999560000000  0.4379750000000 1.0
C      1  0.4403080000000  0.4982390000000  0.4853840000000 1.0
C      1  0.4900830000000  0.5487180000000  0.4258480000000 1.0
C      1  0.5113640000000  0.4348290000000  0.4888020000000 1.0
C      1  0.5486610000000  0.5321730000000  0.5176490000000 1.0
C      1  0.6160910000000  0.5609610000000  0.5708120000000 1.0
C      1  0.4164490000000  0.4404400000000  0.5627340000000 1.0
C      1  0.3437060000000  0.3591660000000  0.6379500000000 1.0
C      1  0.4989040000000  0.4935190000000  0.5406910000000 1.0
C      1  0.4926950000000  0.5673190000000  0.5302080000000 1.0
C      1  0.4807700000000  0.4764610000000  0.4286050000000 1.0
C      1  0.4611500000000  0.5322280000000  0.5205160000000 1.0
C      1  0.4753980000000  0.5249970000000  0.4279810000000 1.0
C      1  0.5377640000000  0.5348800000000  0.4914410000000 1.0
C      1  0.5888700000000  0.4223460000000  0.5144990000000 1.0
C      1  0.4467150000000  0.5198220000000  0.5020500000000 1.0
C      1  0.4768030000000  0.4845000000000  0.5553850000000 1.0
C      1  0.3873570000000  0.4079360000000  0.5928140000000 1.0
C      1  0.5322130000000  0.5302160000000  0.5409030000000 1.0
C      1  0.5895450000000  0.4483010000000  0.5168380000000 1.0
C      1  0.5052530000000  0.5211400000000  0.5387760000000 1.0
C      1  0.4833180000000  0.5706890000000  0.4420500000000 1.0
C      1  0.5486730000000  0.5645210000000  0.4541520000000 1.0
C      1  0.5195360000000  0.5423690000000  0.3861700000000 1.0
C      1  0.5950390000000  0.5718670000000  0.4753070000000 1.0
C      1  0.5766900000000  0.5273520000000  0.5203780000000 1.0
C      1  0.5051280000000  0.4917020000000  0.3850470000000 1.0
C      1  0.4317470000000  0.4575280000000  0.5469250000000 1.0
C      1  0.5115900000000  0.5769170000000  0.4844280000000 1.0
C      1  0.6018680000000  0.5632370000000  0.4995290000000 1.0
C      1  0.4851990000000  0.5403170000000  0.5321980000000 1.0
C      1  0.5858450000000  0.5009380000000  0.5204450000000 1.0
C      1  0.4857130000000  0.4551870000000  0.4460150000000 1.0
C      1  0.5335800000000  0.5114770000000  0.4765390000000 1.0
END
