TITL C-599895-9959-445 0.200914905243683 125000 -832.222645596365 0 0 137 (C1) n - 1
REM
REM in /home/nfs/bkarasulu/CARBON/AIRSS/Generating-Clusters/TERSOFF/Only-C1/FIRE-HFTN
REM
REM
REM
REM
REM
REM ./C.cell (11c1c37f851c82e70ff6c80c92926a4b)
REM AIRSS Version 0.9.1 bugfix July 2018 build 013d7b7c2542+ Fri, 06 Jul 2018 19:26:36 +0100
REM compiler GCC version 9.2.1 20190827 (Red Hat 9.2.1-1)
REM options -cpp -mtune=generic -march=x86-64 -g -O0 -fpre-include=/usr/include/finclude/math-vector-fortran.h
REM seed -624355185 -712033954 -745767596 1747418686 573114083 -1319891989 1964329798 -1193947175 -166810025 433250277 -128714318 -878509658 1277413015 -1246193281 -1742334982 -1846328708 1143044994 -1844147494 -1934078309 188711235 -1874509508 1587147303 -70153770 -1365185021 819183511 1036853824 1108461135 1254063581 -194370967 200008199 741605420 1972588559 -477067993
REM
CELL 1.54180   50.00000   50.00000   50.00000   90.00000   90.00000   90.00000
LATT -1
SFAC C  
C      1  0.5139770000000  0.5007740000000  0.4246890000000 1.0
C      1  0.5412590000000  0.5383050000000  0.4226570000000 1.0
C      1  0.5718450000000  0.5095900000000  0.4952300000000 1.0
C      1  0.4457300000000  0.4948830000000  0.4044400000000 1.0
C      1  0.5682460000000  0.4808860000000  0.5523930000000 1.0
C      1  0.6133170000000  0.4015530000000  0.5610200000000 1.0
C      1  0.4253790000000  0.5172980000000  0.4640990000000 1.0
C      1  0.4504510000000  0.4370120000000  0.4168990000000 1.0
C      1  0.5447730000000  0.5662260000000  0.5317480000000 1.0
C      1  0.5427290000000  0.5398750000000  0.5740840000000 1.0
C      1  0.4557490000000  0.4867880000000  0.5500380000000 1.0
C      1  0.5424150000000  0.5822750000000  0.4445290000000 1.0
C      1  0.4921210000000  0.4361310000000  0.5696460000000 1.0
C      1  0.4214580000000  0.5660470000000  0.4712850000000 1.0
C      1  0.5527670000000  0.4898210000000  0.5304610000000 1.0
C      1  0.4941840000000  0.4091580000000  0.5607370000000 1.0
C      1  0.5064920000000  0.4947850000000  0.5222640000000 1.0
C      1  0.5291930000000  0.5205570000000  0.5907120000000 1.0
C      1  0.4944210000000  0.5030730000000  0.4935950000000 1.0
C      1  0.5821230000000  0.4839820000000  0.5987590000000 1.0
C      1  0.5139270000000  0.3994450000000  0.5425850000000 1.0
C      1  0.3937460000000  0.5019590000000  0.5971900000000 1.0
C      1  0.5250960000000  0.5572940000000  0.4876200000000 1.0
C      1  0.4135360000000  0.5733150000000  0.5739030000000 1.0
C      1  0.5710710000000  0.5407050000000  0.5752040000000 1.0
C      1  0.5620220000000  0.5242610000000  0.4732950000000 1.0
C      1  0.4462390000000  0.4171180000000  0.5028510000000 1.0
C      1  0.4881790000000  0.4543400000000  0.5485180000000 1.0
C      1  0.4074600000000  0.5304130000000  0.5527830000000 1.0
C      1  0.4412290000000  0.4687440000000  0.5658540000000 1.0
C      1  0.5109680000000  0.5290110000000  0.6093690000000 1.0
C      1  0.4999130000000  0.5224310000000  0.4427480000000 1.0
C      1  0.5813430000000  0.5269060000000  0.5164160000000 1.0
C      1  0.5588310000000  0.4846180000000  0.4168410000000 1.0
C      1  0.5340040000000  0.4419820000000  0.5003170000000 1.0
C      1  0.5936050000000  0.5322730000000  0.5630000000000 1.0
C      1  0.5075910000000  0.4661980000000  0.5321620000000 1.0
C      1  0.4732150000000  0.5392090000000  0.5532950000000 1.0
C      1  0.6387370000000  0.4095080000000  0.5586320000000 1.0
C      1  0.4659600000000  0.4637470000000  0.5006650000000 1.0
C      1  0.3976770000000  0.4550310000000  0.5218600000000 1.0
C      1  0.5305420000000  0.4482930000000  0.5279130000000 1.0
C      1  0.5122740000000  0.4005780000000  0.5140710000000 1.0
C      1  0.6145430000000  0.4655000000000  0.5432380000000 1.0
C      1  0.4280080000000  0.4987840000000  0.3857290000000 1.0
C      1  0.5359080000000  0.4926850000000  0.5887030000000 1.0
C      1  0.5593170000000  0.6322900000000  0.4985450000000 1.0
C      1  0.5131360000000  0.5470120000000  0.4309850000000 1.0
C      1  0.3872840000000  0.4883370000000  0.6184540000000 1.0
C      1  0.5241800000000  0.4162710000000  0.4929600000000 1.0
C      1  0.5571420000000  0.4854990000000  0.5013840000000 1.0
C      1  0.5429000000000  0.5086750000000  0.4208450000000 1.0
C      1  0.4140880000000  0.4371840000000  0.5372170000000 1.0
C      1  0.5635400000000  0.3916760000000  0.5595470000000 1.0
C      1  0.5436860000000  0.5912620000000  0.5181980000000 1.0
C      1  0.4306790000000  0.4498490000000  0.4303650000000 1.0
C      1  0.4887850000000  0.4737460000000  0.4846560000000 1.0
C      1  0.3728360000000  0.4982520000000  0.4948960000000 1.0
C      1  0.4698160000000  0.5657490000000  0.3632250000000 1.0
C      1  0.4560430000000  0.5823210000000  0.5353820000000 1.0
C      1  0.5000960000000  0.5492690000000  0.5514860000000 1.0
C      1  0.4550820000000  0.4826620000000  0.5213670000000 1.0
C      1  0.4670220000000  0.5117350000000  0.5583550000000 1.0
C      1  0.5582180000000  0.5609500000000  0.4315520000000 1.0
C      1  0.4039440000000  0.5925050000000  0.5886960000000 1.0
C      1  0.5991960000000  0.5233130000000  0.5379740000000 1.0
C      1  0.5046590000000  0.4486320000000  0.5917530000000 1.0
C      1  0.5854960000000  0.4871690000000  0.4256390000000 1.0
C      1  0.4245070000000  0.4655890000000  0.4528380000000 1.0
C      1  0.4811870000000  0.5441080000000  0.3722740000000 1.0
C      1  0.5475560000000  0.4329190000000  0.5450350000000 1.0
C      1  0.4331840000000  0.5844740000000  0.4868210000000 1.0
C      1  0.5147960000000  0.4786260000000  0.3807260000000 1.0
C      1  0.4483110000000  0.4432590000000  0.4916630000000 1.0
C      1  0.5051170000000  0.5748090000000  0.4903710000000 1.0
C      1  0.4922370000000  0.5224420000000  0.3827780000000 1.0
C      1  0.5622830000000  0.4862040000000  0.5798700000000 1.0
C      1  0.4133670000000  0.5398040000000  0.4776860000000 1.0
C      1  0.5867420000000  0.4086810000000  0.5576160000000 1.0
C      1  0.5399650000000  0.4053250000000  0.5514770000000 1.0
C      1  0.5764110000000  0.4346900000000  0.5492910000000 1.0
C      1  0.5283950000000  0.5540810000000  0.5528870000000 1.0
C      1  0.4280700000000  0.4160400000000  0.5244670000000 1.0
C      1  0.4249310000000  0.4479510000000  0.5609770000000 1.0
C      1  0.4852840000000  0.6229910000000  0.4825690000000 1.0
C      1  0.4667250000000  0.5161420000000  0.4898250000000 1.0
C      1  0.6504800000000  0.4325800000000  0.5514850000000 1.0
C      1  0.3914330000000  0.4833660000000  0.4799200000000 1.0
C      1  0.5130480000000  0.4693720000000  0.4679960000000 1.0
C      1  0.5071820000000  0.4755760000000  0.4404740000000 1.0
C      1  0.4577550000000  0.3959650000000  0.4887610000000 1.0
C      1  0.4717540000000  0.6734610000000  0.4768080000000 1.0
C      1  0.5508140000000  0.6064100000000  0.4948560000000 1.0
C      1  0.6061510000000  0.5686950000000  0.4382470000000 1.0
C      1  0.5951940000000  0.5061970000000  0.4420650000000 1.0
C      1  0.4511290000000  0.5571330000000  0.5481980000000 1.0
C      1  0.5382920000000  0.4666400000000  0.4851620000000 1.0
C      1  0.5461570000000  0.4583580000000  0.4117920000000 1.0
C      1  0.6395430000000  0.4561620000000  0.5447520000000 1.0
C      1  0.4243540000000  0.5529990000000  0.5577120000000 1.0
C      1  0.5836830000000  0.5536820000000  0.4409610000000 1.0
C      1  0.5112550000000  0.5171780000000  0.4713720000000 1.0
C      1  0.5402470000000  0.4185570000000  0.4465220000000 1.0
C      1  0.4707020000000  0.5151980000000  0.4415140000000 1.0
C      1  0.5345590000000  0.5329680000000  0.4771900000000 1.0
C      1  0.4644440000000  0.4926130000000  0.4249820000000 1.0
C      1  0.4811120000000  0.4694610000000  0.4294560000000 1.0
C      1  0.5495640000000  0.5964810000000  0.4679760000000 1.0
C      1  0.5229650000000  0.4551370000000  0.3942790000000 1.0
C      1  0.3955990000000  0.5243270000000  0.5276370000000 1.0
C      1  0.4774070000000  0.4451580000000  0.4153280000000 1.0
C      1  0.5224170000000  0.4083340000000  0.4656900000000 1.0
C      1  0.3836240000000  0.4762320000000  0.5349560000000 1.0
C      1  0.4489590000000  0.5077310000000  0.5096290000000 1.0
C      1  0.4784910000000  0.6484230000000  0.4795120000000 1.0
C      1  0.4754560000000  0.3884480000000  0.4702200000000 1.0
C      1  0.4018050000000  0.4593140000000  0.4938260000000 1.0
C      1  0.5825470000000  0.5285500000000  0.4537130000000 1.0
C      1  0.3791220000000  0.5014530000000  0.5227270000000 1.0
C      1  0.4117630000000  0.4918680000000  0.4601200000000 1.0
C      1  0.4030220000000  0.5373760000000  0.5038480000000 1.0
C      1  0.5187020000000  0.4713270000000  0.5958310000000 1.0
C      1  0.4994260000000  0.3933910000000  0.4593520000000 1.0
C      1  0.5648020000000  0.5494900000000  0.5207980000000 1.0
C      1  0.5874950000000  0.4604350000000  0.5477260000000 1.0
C      1  0.5503320000000  0.4367020000000  0.4296150000000 1.0
C      1  0.5297440000000  0.5060350000000  0.5335900000000 1.0
C      1  0.4439180000000  0.5884210000000  0.5108780000000 1.0
C      1  0.5008410000000  0.4376960000000  0.4008590000000 1.0
C      1  0.4249200000000  0.4517510000000  0.4784140000000 1.0
C      1  0.5150690000000  0.5746450000000  0.4381760000000 1.0
C      1  0.4543850000000  0.5188600000000  0.4641030000000 1.0
C      1  0.4922940000000  0.5978490000000  0.4872310000000 1.0
C      1  0.4879930000000  0.6190360000000  0.5587350000000 1.0
C      1  0.4719050000000  0.6014750000000  0.5481540000000 1.0
C      1  0.5048870000000  0.5009750000000  0.3951250000000 1.0
C      1  0.4007910000000  0.5146520000000  0.5750260000000 1.0
END
