TITL C-599891-72-143 0.639532813869735 125000 -405.082505555613 0 0 68 (C1) n - 1
REM
REM in /home/nfs/bkarasulu/CARBON/AIRSS/Generating-Clusters/TERSOFF/Only-C1/FIRE-HFTN
REM
REM
REM
REM
REM
REM ./C.cell (11c1c37f851c82e70ff6c80c92926a4b)
REM AIRSS Version 0.9.1 bugfix July 2018 build 013d7b7c2542+ Fri, 06 Jul 2018 19:26:36 +0100
REM compiler GCC version 9.2.1 20190827 (Red Hat 9.2.1-1)
REM options -cpp -mtune=generic -march=x86-64 -g -O0 -fpre-include=/usr/include/finclude/math-vector-fortran.h
REM seed -1956500463 -1943342922 839952409 261919030 147501827 1709740682 -1797576972 -1069795857 520201808 -1998800718 -1726935644 -592461647 -1822526598 1909587402 -771263346 -1695500234 -383316101 1536781731 -1205924467 2116545118 -2126581282 1722790236 879932930 -381720639 -1042855105 53510033 -1507297905 1785671660 -1838186376 969654036 449169850 941389038 1613874599
REM
CELL 1.54180   50.00000   50.00000   50.00000   90.00000   90.00000   90.00000
LATT -1
SFAC C  
C      1  0.5277280000000  0.5595350000000  0.5735660000000 1.0
C      1  0.4492910000000  0.4278820000000  0.5913850000000 1.0
C      1  0.4542270000000  0.4475670000000  0.4932520000000 1.0
C      1  0.5341480000000  0.4820030000000  0.5156560000000 1.0
C      1  0.4541980000000  0.4395930000000  0.5185440000000 1.0
C      1  0.5072570000000  0.4570270000000  0.6601470000000 1.0
C      1  0.5295930000000  0.4627950000000  0.4940790000000 1.0
C      1  0.5574140000000  0.4985220000000  0.5165230000000 1.0
C      1  0.5184370000000  0.4687820000000  0.6082130000000 1.0
C      1  0.5092670000000  0.4978220000000  0.5174710000000 1.0
C      1  0.5078660000000  0.5271790000000  0.4758090000000 1.0
C      1  0.5632060000000  0.5596220000000  0.5140020000000 1.0
C      1  0.4941630000000  0.4371720000000  0.5691810000000 1.0
C      1  0.5096900000000  0.4767280000000  0.4778030000000 1.0
C      1  0.4465350000000  0.5478790000000  0.5269080000000 1.0
C      1  0.4216030000000  0.4290830000000  0.5557220000000 1.0
C      1  0.5243400000000  0.5477090000000  0.4870700000000 1.0
C      1  0.4226830000000  0.4834390000000  0.3652700000000 1.0
C      1  0.5502690000000  0.4329560000000  0.4596780000000 1.0
C      1  0.4447460000000  0.5091290000000  0.4653970000000 1.0
C      1  0.4476310000000  0.5513650000000  0.4989760000000 1.0
C      1  0.4540170000000  0.4847130000000  0.4546450000000 1.0
C      1  0.4620110000000  0.5738120000000  0.4899400000000 1.0
C      1  0.5582280000000  0.5676840000000  0.3684250000000 1.0
C      1  0.5661910000000  0.5069280000000  0.5418700000000 1.0
C      1  0.5488650000000  0.4464790000000  0.4364270000000 1.0
C      1  0.4663540000000  0.4337290000000  0.5684810000000 1.0
C      1  0.5563500000000  0.4930750000000  0.4448490000000 1.0
C      1  0.4654520000000  0.5420450000000  0.3893290000000 1.0
C      1  0.5507720000000  0.5421270000000  0.4958980000000 1.0
C      1  0.5366460000000  0.4889560000000  0.6016820000000 1.0
C      1  0.4910770000000  0.5376050000000  0.4010150000000 1.0
C      1  0.4721770000000  0.5146320000000  0.5498320000000 1.0
C      1  0.5105090000000  0.4226170000000  0.5518170000000 1.0
C      1  0.5429040000000  0.4403680000000  0.4844640000000 1.0
C      1  0.5508430000000  0.5487420000000  0.5618850000000 1.0
C      1  0.4229140000000  0.4252350000000  0.5831750000000 1.0
C      1  0.4988640000000  0.5318280000000  0.4497120000000 1.0
C      1  0.5138350000000  0.5485760000000  0.3890800000000 1.0
C      1  0.4415620000000  0.5303930000000  0.4812330000000 1.0
C      1  0.5154610000000  0.4788180000000  0.4215770000000 1.0
C      1  0.4918010000000  0.5006570000000  0.5386140000000 1.0
C      1  0.5029720000000  0.5026470000000  0.4890950000000 1.0
C      1  0.4555960000000  0.5674600000000  0.3869580000000 1.0
C      1  0.5608730000000  0.5153600000000  0.4932070000000 1.0
C      1  0.5121450000000  0.5729420000000  0.4892680000000 1.0
C      1  0.5129490000000  0.4629380000000  0.6349560000000 1.0
C      1  0.4914750000000  0.4933020000000  0.4232550000000 1.0
C      1  0.5412630000000  0.4732330000000  0.4314110000000 1.0
C      1  0.4769270000000  0.5596110000000  0.5642510000000 1.0
C      1  0.5016010000000  0.4511690000000  0.6849130000000 1.0
C      1  0.5574640000000  0.5210570000000  0.5647420000000 1.0
C      1  0.5056890000000  0.4544920000000  0.5878500000000 1.0
C      1  0.4937870000000  0.5217160000000  0.4242630000000 1.0
C      1  0.4651880000000  0.4833380000000  0.4283730000000 1.0
C      1  0.4399410000000  0.4941340000000  0.3834600000000 1.0
C      1  0.4872140000000  0.5826610000000  0.4885620000000 1.0
C      1  0.4481630000000  0.4345590000000  0.5450600000000 1.0
C      1  0.5648040000000  0.5048440000000  0.4673710000000 1.0
C      1  0.5250240000000  0.4064510000000  0.5374280000000 1.0
C      1  0.4625430000000  0.5409960000000  0.5489040000000 1.0
C      1  0.5503970000000  0.5067540000000  0.5876400000000 1.0
C      1  0.4533220000000  0.4620290000000  0.4710230000000 1.0
C      1  0.5361480000000  0.5582800000000  0.3786030000000 1.0
C      1  0.5630430000000  0.5626000000000  0.5406250000000 1.0
C      1  0.5015580000000  0.5646640000000  0.5733170000000 1.0
C      1  0.4484600000000  0.4798960000000  0.4061230000000 1.0
C      1  0.4503280000000  0.5200610000000  0.3807420000000 1.0
END
