TITL C-599895-9959-43 0.116273732170042 125000 -444.036857535776 0 0 74 (C1) n - 1
REM
REM in /home/nfs/bkarasulu/CARBON/AIRSS/Generating-Clusters/TERSOFF/Only-C1/FIRE-HFTN
REM
REM
REM
REM
REM
REM ./C.cell (11c1c37f851c82e70ff6c80c92926a4b)
REM AIRSS Version 0.9.1 bugfix July 2018 build 013d7b7c2542+ Fri, 06 Jul 2018 19:26:36 +0100
REM compiler GCC version 9.2.1 20190827 (Red Hat 9.2.1-1)
REM options -cpp -mtune=generic -march=x86-64 -g -O0 -fpre-include=/usr/include/finclude/math-vector-fortran.h
REM seed -876326397 -1363692366 -30902752 -1443417420 -1013596775 588275035 1042589409 -1892289189 598363905 498115001 -574308750 1333069466 1649076890 -1039214703 334881601 1879860703 408100006 -642052108 -288336924 1086559436 1531678808 -921067967 1000648343 -1410353058 -1093881974 -1265771035 1314683079 -372875362 -148293811 -2090434975 -1451065876 2010385932 -770542956
REM
CELL 1.54180   50.00000   50.00000   50.00000   90.00000   90.00000   90.00000
LATT -1
SFAC C  
C      1  0.3978900000000  0.5556580000000  0.4874660000000 1.0
C      1  0.4610890000000  0.5053710000000  0.5721180000000 1.0
C      1  0.5322970000000  0.4757350000000  0.4963850000000 1.0
C      1  0.4009560000000  0.4360290000000  0.5097630000000 1.0
C      1  0.5242030000000  0.4956880000000  0.4170470000000 1.0
C      1  0.5745160000000  0.5535700000000  0.5541150000000 1.0
C      1  0.5024370000000  0.4926710000000  0.5946970000000 1.0
C      1  0.4921490000000  0.4592670000000  0.4097440000000 1.0
C      1  0.3976390000000  0.5254180000000  0.5318040000000 1.0
C      1  0.5917760000000  0.5813480000000  0.4757550000000 1.0
C      1  0.5576180000000  0.5455380000000  0.5767720000000 1.0
C      1  0.4449000000000  0.5391620000000  0.3999970000000 1.0
C      1  0.5072680000000  0.5404870000000  0.5429980000000 1.0
C      1  0.5743150000000  0.5345740000000  0.5328690000000 1.0
C      1  0.5150680000000  0.4982470000000  0.6167860000000 1.0
C      1  0.4647480000000  0.4951370000000  0.4496370000000 1.0
C      1  0.4841700000000  0.4695530000000  0.4979370000000 1.0
C      1  0.5486830000000  0.5300700000000  0.5212420000000 1.0
C      1  0.5800800000000  0.4893300000000  0.5509780000000 1.0
C      1  0.6173460000000  0.4854060000000  0.4666020000000 1.0
C      1  0.4630560000000  0.4244140000000  0.4274110000000 1.0
C      1  0.3809800000000  0.5029210000000  0.5320160000000 1.0
C      1  0.4811350000000  0.4693450000000  0.5259420000000 1.0
C      1  0.4732100000000  0.4509110000000  0.4302350000000 1.0
C      1  0.4996450000000  0.5125520000000  0.4805190000000 1.0
C      1  0.4401950000000  0.5193720000000  0.5637510000000 1.0
C      1  0.3760940000000  0.4770720000000  0.5283380000000 1.0
C      1  0.5421810000000  0.5906870000000  0.5805670000000 1.0
C      1  0.5664350000000  0.4408980000000  0.4392620000000 1.0
C      1  0.5628860000000  0.5199020000000  0.5873310000000 1.0
C      1  0.5107820000000  0.5554120000000  0.5665410000000 1.0
C      1  0.4242980000000  0.4312040000000  0.4980190000000 1.0
C      1  0.4956520000000  0.4817630000000  0.5469620000000 1.0
C      1  0.5706230000000  0.4593610000000  0.4597910000000 1.0
C      1  0.3954650000000  0.5442570000000  0.5112930000000 1.0
C      1  0.4280120000000  0.5517330000000  0.4161500000000 1.0
C      1  0.5639490000000  0.4711930000000  0.5363290000000 1.0
C      1  0.4825860000000  0.4846380000000  0.5740300000000 1.0
C      1  0.3833010000000  0.4526970000000  0.5205750000000 1.0
C      1  0.4703700000000  0.4584940000000  0.5818670000000 1.0
C      1  0.5388360000000  0.5371330000000  0.4954300000000 1.0
C      1  0.4964390000000  0.5463250000000  0.5171150000000 1.0
C      1  0.5641370000000  0.5992010000000  0.5667070000000 1.0
C      1  0.4042590000000  0.5605150000000  0.4621730000000 1.0
C      1  0.5547990000000  0.5422010000000  0.4727220000000 1.0
C      1  0.4664600000000  0.4671260000000  0.4523120000000 1.0
C      1  0.4829360000000  0.5041290000000  0.3934610000000 1.0
C      1  0.4580540000000  0.4354860000000  0.5863600000000 1.0
C      1  0.5738600000000  0.5625910000000  0.4732280000000 1.0
C      1  0.5002500000000  0.4861440000000  0.4061700000000 1.0
C      1  0.5211500000000  0.4925780000000  0.5400650000000 1.0
C      1  0.5729270000000  0.4966950000000  0.5775490000000 1.0
C      1  0.5006290000000  0.4388320000000  0.3917520000000 1.0
C      1  0.4666360000000  0.4572600000000  0.4792160000000 1.0
C      1  0.5063210000000  0.4857510000000  0.4891720000000 1.0
C      1  0.4186230000000  0.5268450000000  0.5502440000000 1.0
C      1  0.5346770000000  0.5631250000000  0.5798050000000 1.0
C      1  0.5799010000000  0.5813940000000  0.5532990000000 1.0
C      1  0.4639050000000  0.5225520000000  0.3917870000000 1.0
C      1  0.5903240000000  0.5112960000000  0.5358230000000 1.0
C      1  0.5409730000000  0.5107260000000  0.4311110000000 1.0
C      1  0.5099690000000  0.5352200000000  0.4940740000000 1.0
C      1  0.5498710000000  0.4656800000000  0.4773510000000 1.0
C      1  0.4715130000000  0.4062810000000  0.4089750000000 1.0
C      1  0.5273680000000  0.5202260000000  0.5388720000000 1.0
C      1  0.4455220000000  0.4129070000000  0.5899280000000 1.0
C      1  0.5389370000000  0.4763590000000  0.5242750000000 1.0
C      1  0.4143450000000  0.5590620000000  0.4376770000000 1.0
C      1  0.4475130000000  0.4386940000000  0.4875370000000 1.0
C      1  0.5512470000000  0.5267700000000  0.4496090000000 1.0
C      1  0.5954790000000  0.4717770000000  0.4626960000000 1.0
C      1  0.5618400000000  0.4240440000000  0.4199240000000 1.0
C      1  0.4906800000000  0.4135190000000  0.3910420000000 1.0
C      1  0.4796160000000  0.5144730000000  0.4608990000000 1.0
END
