TITL C-599895-9959-571 2.25057417636518 125000 -582.576338520408 0 0 98 (C1) n - 1
REM
REM in /home/nfs/bkarasulu/CARBON/AIRSS/Generating-Clusters/TERSOFF/Only-C1/FIRE-HFTN
REM
REM
REM
REM
REM
REM ./C.cell (11c1c37f851c82e70ff6c80c92926a4b)
REM AIRSS Version 0.9.1 bugfix July 2018 build 013d7b7c2542+ Fri, 06 Jul 2018 19:26:36 +0100
REM compiler GCC version 9.2.1 20190827 (Red Hat 9.2.1-1)
REM options -cpp -mtune=generic -march=x86-64 -g -O0 -fpre-include=/usr/include/finclude/math-vector-fortran.h
REM seed -747160268 -291142426 302206660 -539543207 1820216456 1596599982 782557262 149757647 -366655042 -344413674 -1653077821 -2114891084 -1376171680 -927781483 263756884 -1220377741 -1211723632 509777736 -1838784782 -471196941 222638487 206236309 443858321 -959437740 402917929 46587074 756867684 -785214407 255007120 -480271692 -1225007946 250435590 -351239182
REM
CELL 1.54180   50.00000   50.00000   50.00000   90.00000   90.00000   90.00000
LATT -1
SFAC C  
C      1  0.5649040000000  0.4880560000000  0.4649270000000 1.0
C      1  0.4186090000000  0.4553140000000  0.5778820000000 1.0
C      1  0.5577110000000  0.5852650000000  0.4828320000000 1.0
C      1  0.3930570000000  0.4778000000000  0.6201120000000 1.0
C      1  0.4713240000000  0.5497200000000  0.5844030000000 1.0
C      1  0.5179620000000  0.3867700000000  0.4890330000000 1.0
C      1  0.5445230000000  0.4263810000000  0.4654760000000 1.0
C      1  0.4766250000000  0.5049730000000  0.4970850000000 1.0
C      1  0.5351430000000  0.6030040000000  0.4429660000000 1.0
C      1  0.5443570000000  0.5265450000000  0.4413080000000 1.0
C      1  0.5881530000000  0.5621400000000  0.5477180000000 1.0
C      1  0.5221920000000  0.4779790000000  0.4925550000000 1.0
C      1  0.5587630000000  0.5148650000000  0.4634370000000 1.0
C      1  0.5355650000000  0.5084800000000  0.4216920000000 1.0
C      1  0.4465280000000  0.4516390000000  0.5779440000000 1.0
C      1  0.6163960000000  0.4779040000000  0.4609660000000 1.0
C      1  0.4611190000000  0.4910920000000  0.4560970000000 1.0
C      1  0.4662690000000  0.4874920000000  0.5172280000000 1.0
C      1  0.3984590000000  0.4277190000000  0.4847670000000 1.0
C      1  0.5362980000000  0.4363320000000  0.4397340000000 1.0
C      1  0.4769580000000  0.3858770000000  0.5232290000000 1.0
C      1  0.4073130000000  0.4180980000000  0.5096210000000 1.0
C      1  0.5557590000000  0.5586430000000  0.4744300000000 1.0
C      1  0.6303020000000  0.4718300000000  0.4832950000000 1.0
C      1  0.4853880000000  0.5873950000000  0.4925840000000 1.0
C      1  0.5822180000000  0.4961140000000  0.5133210000000 1.0
C      1  0.4687740000000  0.4597630000000  0.5082260000000 1.0
C      1  0.5153590000000  0.4598920000000  0.5136360000000 1.0
C      1  0.4421920000000  0.6068200000000  0.4999200000000 1.0
C      1  0.5902960000000  0.4804140000000  0.4552930000000 1.0
C      1  0.5650960000000  0.5333520000000  0.4845430000000 1.0
C      1  0.4495400000000  0.5366220000000  0.5727710000000 1.0
C      1  0.4535530000000  0.5136570000000  0.5573740000000 1.0
C      1  0.5347200000000  0.4020010000000  0.4750940000000 1.0
C      1  0.4902550000000  0.4898080000000  0.4558150000000 1.0
C      1  0.5099120000000  0.5504980000000  0.5214270000000 1.0
C      1  0.4612350000000  0.4898530000000  0.5452460000000 1.0
C      1  0.4381060000000  0.5325080000000  0.4764170000000 1.0
C      1  0.4006590000000  0.4316050000000  0.5332900000000 1.0
C      1  0.5073620000000  0.4707440000000  0.4043850000000 1.0
C      1  0.5467880000000  0.4602610000000  0.4279240000000 1.0
C      1  0.4475550000000  0.4664730000000  0.4610960000000 1.0
C      1  0.4792650000000  0.4200580000000  0.5629350000000 1.0
C      1  0.4069220000000  0.5380540000000  0.5958210000000 1.0
C      1  0.4264590000000  0.3975760000000  0.5105880000000 1.0
C      1  0.4566370000000  0.5120840000000  0.4765800000000 1.0
C      1  0.5011970000000  0.4945470000000  0.4825470000000 1.0
C      1  0.4233580000000  0.5472500000000  0.5760130000000 1.0
C      1  0.4648770000000  0.4657620000000  0.5602720000000 1.0
C      1  0.4961550000000  0.4450200000000  0.4096830000000 1.0
C      1  0.5560430000000  0.4451350000000  0.4837330000000 1.0
C      1  0.4993280000000  0.6873310000000  0.3880220000000 1.0
C      1  0.4688870000000  0.6212500000000  0.4625480000000 1.0
C      1  0.4910620000000  0.4494230000000  0.5229620000000 1.0
C      1  0.4251180000000  0.5997160000000  0.5189270000000 1.0
C      1  0.5312490000000  0.4811610000000  0.4158280000000 1.0
C      1  0.5928800000000  0.4213420000000  0.5107300000000 1.0
C      1  0.4485830000000  0.4292350000000  0.3901370000000 1.0
C      1  0.5676360000000  0.5687990000000  0.5655420000000 1.0
C      1  0.5481050000000  0.6056680000000  0.4679620000000 1.0
C      1  0.5450920000000  0.5713480000000  0.5792610000000 1.0
C      1  0.5309790000000  0.5760830000000  0.4336740000000 1.0
C      1  0.4156610000000  0.5856710000000  0.5393390000000 1.0
C      1  0.6122490000000  0.5750220000000  0.5489460000000 1.0
C      1  0.6188260000000  0.4613020000000  0.5067530000000 1.0
C      1  0.4991830000000  0.5690540000000  0.5058370000000 1.0
C      1  0.4043010000000  0.4447400000000  0.5561280000000 1.0
C      1  0.4224400000000  0.4580100000000  0.4521250000000 1.0
C      1  0.4184090000000  0.5494510000000  0.4744300000000 1.0
C      1  0.4150110000000  0.5675120000000  0.5586380000000 1.0
C      1  0.5271590000000  0.6252200000000  0.4282400000000 1.0
C      1  0.5758040000000  0.4438830000000  0.5040650000000 1.0
C      1  0.4841600000000  0.4455860000000  0.5500310000000 1.0
C      1  0.5257900000000  0.5110180000000  0.5522800000000 1.0
C      1  0.4719360000000  0.4366420000000  0.3990230000000 1.0
C      1  0.4825780000000  0.3963830000000  0.5487380000000 1.0
C      1  0.4577830000000  0.4523740000000  0.4837230000000 1.0
C      1  0.5467660000000  0.4718480000000  0.4794350000000 1.0
C      1  0.4947360000000  0.5611060000000  0.5894250000000 1.0
C      1  0.5183810000000  0.5303040000000  0.5363730000000 1.0
C      1  0.5117500000000  0.4288710000000  0.4273100000000 1.0
C      1  0.4056560000000  0.4683000000000  0.5988290000000 1.0
C      1  0.6192200000000  0.4330480000000  0.5126740000000 1.0
C      1  0.4586630000000  0.4256690000000  0.5823250000000 1.0
C      1  0.4978950000000  0.3807510000000  0.5054010000000 1.0
C      1  0.5837530000000  0.5422130000000  0.5285880000000 1.0
C      1  0.4502610000000  0.3863700000000  0.5145650000000 1.0
C      1  0.5182690000000  0.6461070000000  0.4145910000000 1.0
C      1  0.5087530000000  0.6668930000000  0.4011790000000 1.0
C      1  0.4655760000000  0.6054890000000  0.4846030000000 1.0
C      1  0.5769430000000  0.5238140000000  0.5086380000000 1.0
C      1  0.5200720000000  0.5687930000000  0.5877100000000 1.0
C      1  0.5858960000000  0.3955120000000  0.5147940000000 1.0
C      1  0.5157680000000  0.5713080000000  0.4114100000000 1.0
C      1  0.3806960000000  0.4870340000000  0.6411260000000 1.0
C      1  0.5904320000000  0.4692550000000  0.5106880000000 1.0
C      1  0.4035570000000  0.4423560000000  0.4629990000000 1.0
C      1  0.5425380000000  0.5545550000000  0.4481740000000 1.0
END
