TITL C-599897-7526-563 2.09412739295823 125000 -165.221829263123 0 0 29 (C1) n - 1
REM
REM in /home/nfs/bkarasulu/CARBON/AIRSS/Generating-Clusters/TERSOFF/Only-C1/FIRE-HFTN
REM
REM
REM
REM
REM
REM ./C.cell (11c1c37f851c82e70ff6c80c92926a4b)
REM AIRSS Version 0.9.1 bugfix July 2018 build 013d7b7c2542+ Fri, 06 Jul 2018 19:26:36 +0100
REM compiler GCC version 9.2.1 20190827 (Red Hat 9.2.1-1)
REM options -cpp -mtune=generic -march=x86-64 -g -O0 -fpre-include=/usr/include/finclude/math-vector-fortran.h
REM seed 1745481637 981978755 285643784 1412305491 6093013 -592769888 -114702136 75766113 946384184 -1592437894 332105372 -1943113362 556550015 1951900427 512377016 -1846478067 -6227724 2128193573 633568537 801300383 1065009526 1201601012 966462569 -1381721695 -1484940314 1450835619 113096032 -1300412554 18794974 -1646672693 -1642760253 1533020280 -191094036
REM
CELL 1.54180   50.00000   50.00000   50.00000   90.00000   90.00000   90.00000
LATT -1
SFAC C  
C      1  0.4675790000000  0.5798970000000  0.5201170000000 1.0
C      1  0.5623550000000  0.5253960000000  0.4440740000000 1.0
C      1  0.4685760000000  0.4142010000000  0.4606080000000 1.0
C      1  0.4665220000000  0.5915830000000  0.5440630000000 1.0
C      1  0.5381090000000  0.5870420000000  0.5544650000000 1.0
C      1  0.4782130000000  0.5617970000000  0.5037540000000 1.0
C      1  0.5276100000000  0.5190630000000  0.5235470000000 1.0
C      1  0.4773000000000  0.5914930000000  0.5685350000000 1.0
C      1  0.4554620000000  0.3914960000000  0.4567680000000 1.0
C      1  0.5324300000000  0.5249630000000  0.5490380000000 1.0
C      1  0.5860260000000  0.5707930000000  0.4613090000000 1.0
C      1  0.4423490000000  0.3687910000000  0.4529280000000 1.0
C      1  0.4161180000000  0.3233750000000  0.4452480000000 1.0
C      1  0.5144720000000  0.5224330000000  0.4990240000000 1.0
C      1  0.5703150000000  0.5131060000000  0.4209750000000 1.0
C      1  0.4032170000000  0.3010380000000  0.4414700000000 1.0
C      1  0.4292350000000  0.3460860000000  0.4490890000000 1.0
C      1  0.5748620000000  0.5488910000000  0.4526550000000 1.0
C      1  0.5416180000000  0.5146270000000  0.4594000000000 1.0
C      1  0.5078720000000  0.4823170000000  0.4721840000000 1.0
C      1  0.5097000000000  0.5339430000000  0.5936960000000 1.0
C      1  0.5260340000000  0.5409150000000  0.5708250000000 1.0
C      1  0.4969850000000  0.5770840000000  0.5819760000000 1.0
C      1  0.4948010000000  0.4596120000000  0.4682890000000 1.0
C      1  0.4816890000000  0.4369060000000  0.4644480000000 1.0
C      1  0.4945130000000  0.5419890000000  0.4967930000000 1.0
C      1  0.5217590000000  0.5698300000000  0.5677500000000 1.0
C      1  0.4929220000000  0.5549940000000  0.6002580000000 1.0
C      1  0.5213600000000  0.5063380000000  0.4767120000000 1.0
END
