TITL C-599892-9790-135 0.019862713102915 125000 -199.872398743524 0 0 34 (C1) n - 1
REM
REM in /home/nfs/bkarasulu/CARBON/AIRSS/Generating-Clusters/TERSOFF/Only-C1/FIRE-HFTN
REM
REM
REM
REM
REM
REM ./C.cell (11c1c37f851c82e70ff6c80c92926a4b)
REM AIRSS Version 0.9.1 bugfix July 2018 build 013d7b7c2542+ Fri, 06 Jul 2018 19:26:36 +0100
REM compiler GCC version 9.2.1 20190827 (Red Hat 9.2.1-1)
REM options -cpp -mtune=generic -march=x86-64 -g -O0 -fpre-include=/usr/include/finclude/math-vector-fortran.h
REM seed 881337152 -10006574 -461260227 -1689825124 -582244374 -1801286939 1165851350 455947444 19483175 -1149511997 646618812 1959600996 -1206823652 161915935 -1644125580 -1411472043 188353677 -801414856 1253181347 -959102286 1246469488 -1168326736 681043532 -760516622 -1229216326 443678869 -1497177015 629533843 181928691 220051113 -1579883689 -392023513 1317075670
REM
CELL 1.54180   50.00000   50.00000   50.00000   90.00000   90.00000   90.00000
LATT -1
SFAC C  
C      1  0.4837490000000  0.5738220000000  0.5423500000000 1.0
C      1  0.5016390000000  0.4868460000000  0.5487370000000 1.0
C      1  0.5885500000000  0.4720860000000  0.5066570000000 1.0
C      1  0.4899210000000  0.5369750000000  0.4363070000000 1.0
C      1  0.6087420000000  0.4558750000000  0.5096740000000 1.0
C      1  0.5106970000000  0.4447000000000  0.5254590000000 1.0
C      1  0.5433290000000  0.5018980000000  0.5029310000000 1.0
C      1  0.4618140000000  0.4758540000000  0.4571130000000 1.0
C      1  0.4514470000000  0.4274630000000  0.4755630000000 1.0
C      1  0.4681220000000  0.5508100000000  0.5470110000000 1.0
C      1  0.4526950000000  0.5407870000000  0.4999310000000 1.0
C      1  0.4338470000000  0.4075360000000  0.4693820000000 1.0
C      1  0.4897350000000  0.4310600000000  0.5129270000000 1.0
C      1  0.5014980000000  0.4893310000000  0.4808580000000 1.0
C      1  0.4776130000000  0.5300650000000  0.5632200000000 1.0
C      1  0.5321640000000  0.5540220000000  0.4998920000000 1.0
C      1  0.4914500000000  0.5633800000000  0.4764050000000 1.0
C      1  0.4518280000000  0.4515870000000  0.4613000000000 1.0
C      1  0.5105840000000  0.4731140000000  0.5260450000000 1.0
C      1  0.4699330000000  0.4246860000000  0.4964620000000 1.0
C      1  0.5185810000000  0.4877960000000  0.5029720000000 1.0
C      1  0.4901500000000  0.5065660000000  0.5623650000000 1.0
C      1  0.4987440000000  0.5814730000000  0.5214050000000 1.0
C      1  0.4760260000000  0.5231240000000  0.4578930000000 1.0
C      1  0.4797820000000  0.4959470000000  0.4642790000000 1.0
C      1  0.4991420000000  0.5615220000000  0.4485560000000 1.0
C      1  0.4501130000000  0.5442200000000  0.5263280000000 1.0
C      1  0.4710810000000  0.5422590000000  0.4791820000000 1.0
C      1  0.5086270000000  0.5692910000000  0.4980650000000 1.0
C      1  0.5526810000000  0.4187210000000  0.5472040000000 1.0
C      1  0.5431670000000  0.5298790000000  0.5017550000000 1.0
C      1  0.5318810000000  0.4306470000000  0.5369920000000 1.0
C      1  0.5673870000000  0.4878140000000  0.5040790000000 1.0
C      1  0.4932830000000  0.5288450000000  0.4107000000000 1.0
END
