TITL C-599893-4344-1074 74.9118407098118 125000 -675.621050385342 0 0 111 (C1) n - 1
REM
REM in /home/nfs/bkarasulu/CARBON/AIRSS/Generating-Clusters/TERSOFF/Only-C1/FIRE-HFTN
REM
REM
REM
REM
REM
REM ./C.cell (11c1c37f851c82e70ff6c80c92926a4b)
REM AIRSS Version 0.9.1 bugfix July 2018 build 013d7b7c2542+ Fri, 06 Jul 2018 19:26:36 +0100
REM compiler GCC version 9.2.1 20190827 (Red Hat 9.2.1-1)
REM options -cpp -mtune=generic -march=x86-64 -g -O0 -fpre-include=/usr/include/finclude/math-vector-fortran.h
REM seed -1973746226 -121324294 1766186173 1291211636 -53252352 1009499179 1505452378 -713039949 -622825997 -643905571 -558263896 -1881666191 1451902363 -891334710 -412664019 961248646 -639963182 1802513516 979422707 494290501 1391309231 -1037733353 -283592691 839376698 1983026128 971761902 1008204501 -927299110 -313869552 -228899316 -450255036 -929181757 870388404
REM
CELL 1.54180   50.00000   50.00000   50.00000   90.00000   90.00000   90.00000
LATT -1
SFAC C  
C      1  0.5808350000000  0.4967490000000  0.4695700000000 1.0
C      1  0.4618560000000  0.5147180000000  0.4161680000000 1.0
C      1  0.4804980000000  0.5139520000000  0.5661270000000 1.0
C      1  0.6129120000000  0.5337060000000  0.4707460000000 1.0
C      1  0.4706740000000  0.4097770000000  0.5694500000000 1.0
C      1  0.6035550000000  0.5461220000000  0.4944430000000 1.0
C      1  0.4102210000000  0.5890470000000  0.4944490000000 1.0
C      1  0.5258720000000  0.5366850000000  0.5243770000000 1.0
C      1  0.4737090000000  0.4730390000000  0.5149670000000 1.0
C      1  0.4286290000000  0.6057700000000  0.4842900000000 1.0
C      1  0.5400080000000  0.5991450000000  0.5518960000000 1.0
C      1  0.5435540000000  0.4704370000000  0.4884400000000 1.0
C      1  0.4064970000000  0.5627180000000  0.4907480000000 1.0
C      1  0.4832520000000  0.4559790000000  0.5807520000000 1.0
C      1  0.5573550000000  0.4466750000000  0.5171760000000 1.0
C      1  0.4049340000000  0.4724630000000  0.5831060000000 1.0
C      1  0.4134800000000  0.4941320000000  0.5963700000000 1.0
C      1  0.5634850000000  0.4941040000000  0.4213680000000 1.0
C      1  0.5317930000000  0.5379530000000  0.4962770000000 1.0
C      1  0.4204810000000  0.4569140000000  0.4758890000000 1.0
C      1  0.4550560000000  0.5301030000000  0.5244030000000 1.0
C      1  0.4827690000000  0.4812850000000  0.4426820000000 1.0
C      1  0.5769520000000  0.4407580000000  0.4550630000000 1.0
C      1  0.4461940000000  0.4683530000000  0.5142310000000 1.0
C      1  0.5128940000000  0.4278490000000  0.5521790000000 1.0
C      1  0.4423190000000  0.5907410000000  0.4409470000000 1.0
C      1  0.5170170000000  0.4680450000000  0.4956590000000 1.0
C      1  0.5326580000000  0.5395600000000  0.6014140000000 1.0
C      1  0.5309110000000  0.4357120000000  0.3559710000000 1.0
C      1  0.4292990000000  0.4905670000000  0.5213620000000 1.0
C      1  0.5697520000000  0.4996920000000  0.5174250000000 1.0
C      1  0.5547660000000  0.4449800000000  0.4378570000000 1.0
C      1  0.4158870000000  0.5233660000000  0.4180760000000 1.0
C      1  0.5034070000000  0.4319920000000  0.4331900000000 1.0
C      1  0.5016090000000  0.5035690000000  0.5496830000000 1.0
C      1  0.4761130000000  0.6058230000000  0.4751220000000 1.0
C      1  0.5186900000000  0.5088310000000  0.4555700000000 1.0
C      1  0.4070410000000  0.4364600000000  0.5443510000000 1.0
C      1  0.4418970000000  0.5377960000000  0.4636580000000 1.0
C      1  0.4278940000000  0.5736980000000  0.4259030000000 1.0
C      1  0.5344010000000  0.4460100000000  0.5610940000000 1.0
C      1  0.5850660000000  0.4455350000000  0.5073780000000 1.0
C      1  0.4937880000000  0.4800420000000  0.5348390000000 1.0
C      1  0.4162600000000  0.5504510000000  0.4188300000000 1.0
C      1  0.5442610000000  0.5825760000000  0.5725560000000 1.0
C      1  0.4980460000000  0.4150810000000  0.4759810000000 1.0
C      1  0.6071630000000  0.5308790000000  0.5180730000000 1.0
C      1  0.6121250000000  0.4823200000000  0.5294850000000 1.0
C      1  0.5133980000000  0.5269830000000  0.4772350000000 1.0
C      1  0.6014050000000  0.5114660000000  0.4606810000000 1.0
C      1  0.5164150000000  0.4667290000000  0.5245020000000 1.0
C      1  0.4948780000000  0.5688190000000  0.5530610000000 1.0
C      1  0.4359610000000  0.5032980000000  0.4205480000000 1.0
C      1  0.5794000000000  0.5603650000000  0.4918460000000 1.0
C      1  0.4884170000000  0.4305270000000  0.5673480000000 1.0
C      1  0.5156820000000  0.4180220000000  0.5250960000000 1.0
C      1  0.5266240000000  0.4140100000000  0.4673550000000 1.0
C      1  0.4169320000000  0.4316880000000  0.5197140000000 1.0
C      1  0.5204650000000  0.5168230000000  0.6086040000000 1.0
C      1  0.4326030000000  0.4771000000000  0.4321150000000 1.0
C      1  0.4728090000000  0.5357980000000  0.5828350000000 1.0
C      1  0.4031630000000  0.4791550000000  0.4814070000000 1.0
C      1  0.4889040000000  0.4706810000000  0.4904590000000 1.0
C      1  0.4694470000000  0.5375670000000  0.4574290000000 1.0
C      1  0.4427050000000  0.5084100000000  0.5382180000000 1.0
C      1  0.4348510000000  0.4549970000000  0.4509420000000 1.0
C      1  0.5968740000000  0.5054910000000  0.5244150000000 1.0
C      1  0.5083270000000  0.4929160000000  0.6073220000000 1.0
C      1  0.4293090000000  0.5147110000000  0.6031390000000 1.0
C      1  0.4756090000000  0.4755290000000  0.4672440000000 1.0
C      1  0.5535600000000  0.5540950000000  0.4890050000000 1.0
C      1  0.4728140000000  0.5366090000000  0.5053390000000 1.0
C      1  0.4823960000000  0.4256670000000  0.4529820000000 1.0
C      1  0.4784840000000  0.5331830000000  0.4303270000000 1.0
C      1  0.4070390000000  0.4940240000000  0.5040810000000 1.0
C      1  0.4572560000000  0.4973270000000  0.5606260000000 1.0
C      1  0.5119150000000  0.5584840000000  0.5353280000000 1.0
C      1  0.5331160000000  0.4665060000000  0.3999100000000 1.0
C      1  0.4198040000000  0.5437790000000  0.4773430000000 1.0
C      1  0.5634100000000  0.4900470000000  0.4905050000000 1.0
C      1  0.4314760000000  0.4474130000000  0.5012240000000 1.0
C      1  0.5879130000000  0.4398200000000  0.4796250000000 1.0
C      1  0.5307350000000  0.5352730000000  0.4162830000000 1.0
C      1  0.4607400000000  0.4717100000000  0.5726830000000 1.0
C      1  0.4973230000000  0.6085700000000  0.4912440000000 1.0
C      1  0.4860790000000  0.5350250000000  0.4803660000000 1.0
C      1  0.5320360000000  0.4510800000000  0.3769860000000 1.0
C      1  0.5043450000000  0.5406690000000  0.4204080000000 1.0
C      1  0.4031660000000  0.4521100000000  0.5657740000000 1.0
C      1  0.4497460000000  0.6024080000000  0.4657460000000 1.0
C      1  0.5067690000000  0.4926840000000  0.4347200000000 1.0
C      1  0.5422160000000  0.4212540000000  0.5130750000000 1.0
C      1  0.5060390000000  0.4677840000000  0.5948220000000 1.0
C      1  0.4507640000000  0.5305920000000  0.5998470000000 1.0
C      1  0.4954530000000  0.4136810000000  0.5046610000000 1.0
C      1  0.5449860000000  0.4086080000000  0.4878720000000 1.0
C      1  0.5138060000000  0.4850320000000  0.4084440000000 1.0
C      1  0.5547240000000  0.4667390000000  0.4187870000000 1.0
C      1  0.5308860000000  0.4561060000000  0.5870830000000 1.0
C      1  0.4808430000000  0.5612090000000  0.5745040000000 1.0
C      1  0.5412850000000  0.5617540000000  0.5891640000000 1.0
C      1  0.6059600000000  0.4570540000000  0.5223030000000 1.0
C      1  0.5307610000000  0.4294890000000  0.4429940000000 1.0
C      1  0.5393150000000  0.6312050000000  0.4880720000000 1.0
C      1  0.5295940000000  0.6090010000000  0.5292530000000 1.0
C      1  0.5218830000000  0.6161460000000  0.5030270000000 1.0
C      1  0.5276220000000  0.5130110000000  0.5406930000000 1.0
C      1  0.4558000000000  0.4351360000000  0.4495800000000 1.0
C      1  0.5431850000000  0.4636880000000  0.5384440000000 1.0
C      1  0.5502950000000  0.4938890000000  0.5379050000000 1.0
C      1  0.5524500000000  0.5188940000000  0.4178530000000 1.0
END
