TITL C-599897-7526-1432 59701.0070240401 125000 -1127.34643359264 0 0 183 (C1) n - 1
REM
REM in /home/nfs/bkarasulu/CARBON/AIRSS/Generating-Clusters/TERSOFF/Only-C1/FIRE-HFTN
REM
REM
REM
REM
REM
REM ./C.cell (11c1c37f851c82e70ff6c80c92926a4b)
REM AIRSS Version 0.9.1 bugfix July 2018 build 013d7b7c2542+ Fri, 06 Jul 2018 19:26:36 +0100
REM compiler GCC version 9.2.1 20190827 (Red Hat 9.2.1-1)
REM options -cpp -mtune=generic -march=x86-64 -g -O0 -fpre-include=/usr/include/finclude/math-vector-fortran.h
REM seed 2062985184 556329111 607125109 -267823795 82225036 255099991 717015876 2112744796 46334070 -1884586006 1279119522 1537053535 -754810304 1440850167 -114563627 -1127386716 701978601 -547749198 1937507678 -1136479910 60004743 1290151427 -994565320 727848657 -1545764626 -519599366 -934806229 118933849 -1590418817 -577761130 -1585276434 866312826 1180854642
REM
CELL 1.54180   50.00000   50.00000   50.00000   90.00000   90.00000   90.00000
LATT -1
SFAC C  
C      1  0.4985430000000  0.3800530000000  0.4875950000000 1.0
C      1  0.5485720000000  0.5714870000000  0.4100470000000 1.0
C      1  0.4019490000000  0.4381120000000  0.4894940000000 1.0
C      1  0.5574790000000  0.5445930000000  0.4036210000000 1.0
C      1  0.5602170000000  0.5181880000000  0.6037790000000 1.0
C      1  0.5006600000000  0.3910840000000  0.4089100000000 1.0
C      1  0.5564100000000  0.6109410000000  0.4833240000000 1.0
C      1  0.5728180000000  0.5457260000000  0.6005250000000 1.0
C      1  0.4964280000000  0.5587590000000  0.6129550000000 1.0
C      1  0.5591610000000  0.4180240000000  0.4871320000000 1.0
C      1  0.5007520000000  0.5529020000000  0.5260540000000 1.0
C      1  0.5636390000000  0.5175860000000  0.5522370000000 1.0
C      1  0.4717810000000  0.4455280000000  0.4316630000000 1.0
C      1  0.4392130000000  0.4577680000000  0.4645700000000 1.0
C      1  0.5595310000000  0.5733080000000  0.5267210000000 1.0
C      1  0.5546810000000  0.5908800000000  0.5685230000000 1.0
C      1  0.5622860000000  0.5470250000000  0.4902260000000 1.0
C      1  0.4633230000000  0.4249260000000  0.4933320000000 1.0
C      1  0.5505350000000  0.4445150000000  0.4942040000000 1.0
C      1  0.3779300000000  0.5471550000000  0.3805590000000 1.0
C      1  0.5298090000000  0.6057860000000  0.4932830000000 1.0
C      1  0.4679300000000  0.6041550000000  0.5728950000000 1.0
C      1  0.6124740000000  0.4632790000000  0.5308720000000 1.0
C      1  0.4224450000000  0.5899540000000  0.3637050000000 1.0
C      1  0.5727360000000  0.5052980000000  0.4991730000000 1.0
C      1  0.4266400000000  0.5641110000000  0.5930070000000 1.0
C      1  0.5101940000000  0.5892670000000  0.4751450000000 1.0
C      1  0.5667500000000  0.5257540000000  0.4240400000000 1.0
C      1  0.5324430000000  0.4427970000000  0.5916900000000 1.0
C      1  0.5095780000000  0.4149960000000  0.4223720000000 1.0
C      1  0.5654730000000  0.5668260000000  0.4704930000000 1.0
C      1  0.4301300000000  0.4960100000000  0.5817020000000 1.0
C      1  0.6134790000000  0.5393870000000  0.5537570000000 1.0
C      1  0.4541000000000  0.5212940000000  0.4391940000000 1.0
C      1  0.5173170000000  0.5215460000000  0.4909970000000 1.0
C      1  0.5315630000000  0.4897210000000  0.5750490000000 1.0
C      1  0.5398550000000  0.4873920000000  0.5261920000000 1.0
C      1  0.5885200000000  0.5739500000000  0.5274960000000 1.0
C      1  0.4963550000000  0.5134570000000  0.3811370000000 1.0
C      1  0.5168710000000  0.4870910000000  0.6189950000000 1.0
C      1  0.5142400000000  0.5148860000000  0.5722070000000 1.0
C      1  0.6044340000000  0.4333190000000  0.4861520000000 1.0
C      1  0.5765350000000  0.5908840000000  0.4809660000000 1.0
C      1  0.5290230000000  0.4782630000000  0.5485610000000 1.0
C      1  0.5595120000000  0.5027620000000  0.5781690000000 1.0
C      1  0.5782930000000  0.4433990000000  0.5670550000000 1.0
C      1  0.5813050000000  0.5013110000000  0.4191020000000 1.0
C      1  0.4350520000000  0.5127370000000  0.4829280000000 1.0
C      1  0.5414500000000  0.4070460000000  0.4678780000000 1.0
C      1  0.5037700000000  0.4558010000000  0.4852160000000 1.0
C      1  0.4050920000000  0.4262110000000  0.5144290000000 1.0
C      1  0.5527320000000  0.4172150000000  0.4423530000000 1.0
C      1  0.4369860000000  0.4774090000000  0.3868170000000 1.0
C      1  0.4300000000000  0.5141730000000  0.4206940000000 1.0
C      1  0.4438250000000  0.4987330000000  0.6068650000000 1.0
C      1  0.5464950000000  0.5538440000000  0.5119600000000 1.0
C      1  0.4126470000000  0.5298190000000  0.4869020000000 1.0
C      1  0.4628890000000  0.4570900000000  0.5915740000000 1.0
C      1  0.4925870000000  0.4664890000000  0.3857180000000 1.0
C      1  0.4996450000000  0.4588300000000  0.5155040000000 1.0
C      1  0.4839720000000  0.4810150000000  0.5254920000000 1.0
C      1  0.4798740000000  0.4641630000000  0.5688510000000 1.0
C      1  0.4879380000000  0.4585530000000  0.4106370000000 1.0
C      1  0.5071010000000  0.4877380000000  0.3743780000000 1.0
C      1  0.5143870000000  0.4034150000000  0.4788140000000 1.0
C      1  0.4721430000000  0.3836050000000  0.4721830000000 1.0
C      1  0.4794460000000  0.5180410000000  0.4254170000000 1.0
C      1  0.5555390000000  0.5204380000000  0.4800650000000 1.0
C      1  0.4110760000000  0.4554950000000  0.4679010000000 1.0
C      1  0.6097630000000  0.4791130000000  0.4841440000000 1.0
C      1  0.5179320000000  0.4185970000000  0.5974100000000 1.0
C      1  0.4159260000000  0.5388820000000  0.4106760000000 1.0
C      1  0.5340500000000  0.4809500000000  0.3705750000000 1.0
C      1  0.4298450000000  0.4257290000000  0.5633590000000 1.0
C      1  0.5202260000000  0.5754840000000  0.4191660000000 1.0
C      1  0.4457120000000  0.5252890000000  0.6165410000000 1.0
C      1  0.4343210000000  0.6162650000000  0.5392690000000 1.0
C      1  0.3876930000000  0.5391990000000  0.4056160000000 1.0
C      1  0.5493100000000  0.5262620000000  0.4496630000000 1.0
C      1  0.4559280000000  0.5416480000000  0.5338730000000 1.0
C      1  0.5955510000000  0.5613370000000  0.5531390000000 1.0
C      1  0.3714360000000  0.5309900000000  0.4536120000000 1.0
C      1  0.3810980000000  0.5640380000000  0.3600330000000 1.0
C      1  0.4689280000000  0.5946850000000  0.5997070000000 1.0
C      1  0.5290460000000  0.5040490000000  0.4443220000000 1.0
C      1  0.4562990000000  0.3977130000000  0.4927610000000 1.0
C      1  0.5516750000000  0.4682660000000  0.3887530000000 1.0
C      1  0.5796320000000  0.4277520000000  0.4431970000000 1.0
C      1  0.4423000000000  0.4931280000000  0.5016350000000 1.0
C      1  0.4892500000000  0.4402000000000  0.5569230000000 1.0
C      1  0.5123050000000  0.5369510000000  0.3846920000000 1.0
C      1  0.5503670000000  0.4397870000000  0.5693000000000 1.0
C      1  0.4859510000000  0.5815480000000  0.4911730000000 1.0
C      1  0.5170510000000  0.5553090000000  0.5963840000000 1.0
C      1  0.4095740000000  0.4710760000000  0.5294020000000 1.0
C      1  0.5444980000000  0.4440590000000  0.4017420000000 1.0
C      1  0.4931120000000  0.6096570000000  0.5606410000000 1.0
C      1  0.5707160000000  0.5625070000000  0.5734240000000 1.0
C      1  0.5253200000000  0.4701260000000  0.5971190000000 1.0
C      1  0.5988620000000  0.4482810000000  0.5505660000000 1.0
C      1  0.5014260000000  0.5120020000000  0.4427580000000 1.0
C      1  0.4648730000000  0.4633360000000  0.4547620000000 1.0
C      1  0.5274100000000  0.6073240000000  0.5236230000000 1.0
C      1  0.5992690000000  0.4420640000000  0.4580650000000 1.0
C      1  0.4844340000000  0.4870930000000  0.6549090000000 1.0
C      1  0.5356360000000  0.4253840000000  0.4211470000000 1.0
C      1  0.5079100000000  0.4408080000000  0.5362530000000 1.0
C      1  0.5040220000000  0.5599760000000  0.4007730000000 1.0
C      1  0.4352200000000  0.5807510000000  0.3854810000000 1.0
C      1  0.4321570000000  0.4688580000000  0.5124360000000 1.0
C      1  0.6213820000000  0.5141870000000  0.5485600000000 1.0
C      1  0.4422170000000  0.6015880000000  0.5608190000000 1.0
C      1  0.5012680000000  0.4025060000000  0.5797620000000 1.0
C      1  0.4392310000000  0.5240820000000  0.5476250000000 1.0
C      1  0.4737090000000  0.5118200000000  0.3981150000000 1.0
C      1  0.4858550000000  0.4759550000000  0.4704780000000 1.0
C      1  0.4469020000000  0.4380440000000  0.4159100000000 1.0
C      1  0.4469340000000  0.5525100000000  0.6091640000000 1.0
C      1  0.5988820000000  0.4892080000000  0.4373770000000 1.0
C      1  0.4899090000000  0.3731820000000  0.5154920000000 1.0
C      1  0.5407140000000  0.5341220000000  0.3830390000000 1.0
C      1  0.5362530000000  0.4785880000000  0.4562510000000 1.0
C      1  0.5141740000000  0.6160580000000  0.5788350000000 1.0
C      1  0.5524080000000  0.4449540000000  0.5219630000000 1.0
C      1  0.5208510000000  0.5756630000000  0.4489260000000 1.0
C      1  0.4440900000000  0.5563580000000  0.5116160000000 1.0
C      1  0.4461400000000  0.5021560000000  0.3965320000000 1.0
C      1  0.5384640000000  0.5080530000000  0.6221970000000 1.0
C      1  0.4525320000000  0.4297210000000  0.5814250000000 1.0
C      1  0.6219880000000  0.4888070000000  0.5396320000000 1.0
C      1  0.4943900000000  0.4277170000000  0.4749150000000 1.0
C      1  0.4003750000000  0.5441480000000  0.5315190000000 1.0
C      1  0.5621930000000  0.5042940000000  0.5260120000000 1.0
C      1  0.5723440000000  0.4842940000000  0.3986270000000 1.0
C      1  0.4796340000000  0.3791990000000  0.4219580000000 1.0
C      1  0.4929570000000  0.5792640000000  0.5194720000000 1.0
C      1  0.5476880000000  0.5946740000000  0.5401230000000 1.0
C      1  0.5365980000000  0.4316220000000  0.5430580000000 1.0
C      1  0.4871790000000  0.4225060000000  0.4437890000000 1.0
C      1  0.4914510000000  0.5149480000000  0.5564590000000 1.0
C      1  0.4592510000000  0.5705380000000  0.4912960000000 1.0
C      1  0.4000660000000  0.4747920000000  0.4496550000000 1.0
C      1  0.5023390000000  0.3697960000000  0.5403220000000 1.0
C      1  0.4155370000000  0.4227990000000  0.5399260000000 1.0
C      1  0.4489890000000  0.4453550000000  0.5071030000000 1.0
C      1  0.4106370000000  0.5269710000000  0.5514100000000 1.0
C      1  0.5009610000000  0.6020890000000  0.5342010000000 1.0
C      1  0.5207280000000  0.5410230000000  0.5104790000000 1.0
C      1  0.4108970000000  0.4939410000000  0.4334680000000 1.0
C      1  0.5385700000000  0.6064550000000  0.5854210000000 1.0
C      1  0.4350600000000  0.4522330000000  0.3961810000000 1.0
C      1  0.4489560000000  0.4999680000000  0.5596070000000 1.0
C      1  0.4046380000000  0.5025290000000  0.5673300000000 1.0
C      1  0.4643120000000  0.4782560000000  0.6114850000000 1.0
C      1  0.3991340000000  0.5824800000000  0.3524970000000 1.0
C      1  0.4728190000000  0.3931770000000  0.4458570000000 1.0
C      1  0.5958850000000  0.5867500000000  0.5026420000000 1.0
C      1  0.3706010000000  0.5348140000000  0.4272880000000 1.0
C      1  0.6002950000000  0.5040500000000  0.4925220000000 1.0
C      1  0.5509360000000  0.5429970000000  0.5596960000000 1.0
C      1  0.4830850000000  0.5373850000000  0.5405450000000 1.0
C      1  0.5327830000000  0.4601930000000  0.4779140000000 1.0
C      1  0.4704490000000  0.5688240000000  0.6111900000000 1.0
C      1  0.5360450000000  0.4019790000000  0.5461060000000 1.0
C      1  0.6116690000000  0.4566730000000  0.5028010000000 1.0
C      1  0.4887640000000  0.4842430000000  0.6276390000000 1.0
C      1  0.4314130000000  0.5613460000000  0.4035060000000 1.0
C      1  0.3880700000000  0.5280660000000  0.4740980000000 1.0
C      1  0.4567800000000  0.5189470000000  0.4662510000000 1.0
C      1  0.6046520000000  0.4703960000000  0.4571400000000 1.0
C      1  0.4762870000000  0.4891970000000  0.5539740000000 1.0
C      1  0.4162630000000  0.5487390000000  0.5078940000000 1.0
C      1  0.4691700000000  0.4961700000000  0.5081130000000 1.0
C      1  0.5266310000000  0.5401620000000  0.5750250000000 1.0
C      1  0.6163620000000  0.5261250000000  0.4916940000000 1.0
C      1  0.3960570000000  0.4812300000000  0.5504850000000 1.0
C      1  0.4252520000000  0.5828100000000  0.5736440000000 1.0
C      1  0.4622000000000  0.3822090000000  0.5162180000000 1.0
C      1  0.5441730000000  0.5585790000000  0.4526310000000 1.0
C      1  0.5861590000000  0.4130300000000  0.4936770000000 1.0
C      1  0.5145530000000  0.3877640000000  0.5582240000000 1.0
C      1  0.4911100000000  0.5074590000000  0.4712510000000 1.0
C      1  0.4781610000000  0.4174420000000  0.5714650000000 1.0
END
