TITL C-599897-7526-217 -0.575158180403822 125000 -275.712984937882 0 0 47 (C1) n - 1
REM
REM in /home/nfs/bkarasulu/CARBON/AIRSS/Generating-Clusters/TERSOFF/Only-C1/FIRE-HFTN
REM
REM
REM
REM
REM
REM ./C.cell (11c1c37f851c82e70ff6c80c92926a4b)
REM AIRSS Version 0.9.1 bugfix July 2018 build 013d7b7c2542+ Fri, 06 Jul 2018 19:26:36 +0100
REM compiler GCC version 9.2.1 20190827 (Red Hat 9.2.1-1)
REM options -cpp -mtune=generic -march=x86-64 -g -O0 -fpre-include=/usr/include/finclude/math-vector-fortran.h
REM seed -1990350438 -1657027730 -106084327 -1976345312 -1111037386 -1069226944 1669071755 -1377926587 963899242 370041794 -565860301 -199136940 -1037312009 -1761695807 -1907567336 -1274440068 -1223044596 1719928803 40767360 584540097 341831155 89657165 1822196447 1355064062 1594547096 489673776 -533304640 1324424961 -2138818518 -1027332383 970205951 -326681514 -996952834
REM
CELL 1.54180   50.00000   50.00000   50.00000   90.00000   90.00000   90.00000
LATT -1
SFAC C  
C      1  0.4617250000000  0.5053000000000  0.4846330000000 1.0
C      1  0.4496490000000  0.6253230000000  0.5940570000000 1.0
C      1  0.4537140000000  0.5285550000000  0.4711010000000 1.0
C      1  0.4969740000000  0.4305290000000  0.4518100000000 1.0
C      1  0.5367960000000  0.4799080000000  0.5191490000000 1.0
C      1  0.5222380000000  0.4914850000000  0.5410210000000 1.0
C      1  0.5012940000000  0.4562800000000  0.4415660000000 1.0
C      1  0.4900030000000  0.5004750000000  0.4296100000000 1.0
C      1  0.4542660000000  0.5429580000000  0.5419900000000 1.0
C      1  0.4897420000000  0.5548510000000  0.4507960000000 1.0
C      1  0.5296590000000  0.4621980000000  0.4384600000000 1.0
C      1  0.4642920000000  0.5485360000000  0.4567000000000 1.0
C      1  0.4732860000000  0.5306630000000  0.5258460000000 1.0
C      1  0.5221330000000  0.5408300000000  0.5062020000000 1.0
C      1  0.5159370000000  0.5049750000000  0.4221270000000 1.0
C      1  0.4546450000000  0.6481340000000  0.6056480000000 1.0
C      1  0.5455130000000  0.5520960000000  0.5146190000000 1.0
C      1  0.4826010000000  0.4782430000000  0.4459980000000 1.0
C      1  0.4741260000000  0.4814100000000  0.5277010000000 1.0
C      1  0.5678930000000  0.4582650000000  0.4727140000000 1.0
C      1  0.4395060000000  0.5789540000000  0.5704900000000 1.0
C      1  0.5492900000000  0.4473780000000  0.4535530000000 1.0
C      1  0.4344300000000  0.5544920000000  0.5579360000000 1.0
C      1  0.4984010000000  0.5421920000000  0.5211340000000 1.0
C      1  0.4585140000000  0.4585260000000  0.4863970000000 1.0
C      1  0.5184320000000  0.4992920000000  0.4803200000000 1.0
C      1  0.4979980000000  0.4762690000000  0.5449460000000 1.0
C      1  0.4445700000000  0.6021310000000  0.5822720000000 1.0
C      1  0.5314820000000  0.5104610000000  0.5581250000000 1.0
C      1  0.4657580000000  0.4806260000000  0.4698230000000 1.0
C      1  0.4103270000000  0.5419880000000  0.5612170000000 1.0
C      1  0.5104100000000  0.4248130000000  0.4758620000000 1.0
C      1  0.4680300000000  0.5056200000000  0.5132810000000 1.0
C      1  0.4929310000000  0.4415370000000  0.5163690000000 1.0
C      1  0.5201280000000  0.5275660000000  0.4809610000000 1.0
C      1  0.5064450000000  0.4472990000000  0.5414750000000 1.0
C      1  0.5214760000000  0.4751420000000  0.4946410000000 1.0
C      1  0.5349600000000  0.4406700000000  0.5413440000000 1.0
C      1  0.5624510000000  0.4969570000000  0.4427850000000 1.0
C      1  0.5128340000000  0.5441240000000  0.4593930000000 1.0
C      1  0.5103600000000  0.4469120000000  0.4939030000000 1.0
C      1  0.4683410000000  0.4563680000000  0.5129520000000 1.0
C      1  0.5761040000000  0.4839970000000  0.4627930000000 1.0
C      1  0.5683750000000  0.4501460000000  0.5002920000000 1.0
C      1  0.5526070000000  0.4558000000000  0.5235070000000 1.0
C      1  0.5377080000000  0.4890410000000  0.4309150000000 1.0
C      1  0.5216470000000  0.4006830000000  0.4815700000000 1.0
END
