TITL C-599895-9959-64 -1.76833750928004e-05 125000 -118.301823977905 0 0 22 (C1) n - 1
REM
REM in /home/nfs/bkarasulu/CARBON/AIRSS/Generating-Clusters/TERSOFF/Only-C1/FIRE-HFTN
REM
REM
REM
REM
REM
REM ./C.cell (11c1c37f851c82e70ff6c80c92926a4b)
REM AIRSS Version 0.9.1 bugfix July 2018 build 013d7b7c2542+ Fri, 06 Jul 2018 19:26:36 +0100
REM compiler GCC version 9.2.1 20190827 (Red Hat 9.2.1-1)
REM options -cpp -mtune=generic -march=x86-64 -g -O0 -fpre-include=/usr/include/finclude/math-vector-fortran.h
REM seed 1092323700 2132885964 -542465825 -1554472650 -1775842381 -1172806588 1504076236 -2037012189 -1281097415 2016593911 -2094761094 792082832 1239152298 1747546683 -266713740 887069969 -968854291 477033081 461685135 148755682 970800263 -1960598117 1476918681 1365048849 1305879153 1666421772 -1854085766 -827209581 120872254 -240878598 606912971 1797439076 -872383489
REM
CELL 1.54180   50.00000   50.00000   50.00000   90.00000   90.00000   90.00000
LATT -1
SFAC C  
C      1  0.4808660000000  0.5425760000000  0.4816850000000 1.0
C      1  0.4375720000000  0.4810230000000  0.5075700000000 1.0
C      1  0.4928700000000  0.5791750000000  0.5085370000000 1.0
C      1  0.4776600000000  0.5055120000000  0.5620700000000 1.0
C      1  0.5227730000000  0.4893630000000  0.4650260000000 1.0
C      1  0.5172330000000  0.5364700000000  0.5134750000000 1.0
C      1  0.4943630000000  0.4539070000000  0.4519960000000 1.0
C      1  0.4852150000000  0.4753040000000  0.4956790000000 1.0
C      1  0.5206580000000  0.4607020000000  0.4616920000000 1.0
C      1  0.5058810000000  0.4547950000000  0.5072890000000 1.0
C      1  0.5542930000000  0.5055880000000  0.5372930000000 1.0
C      1  0.5120500000000  0.5636980000000  0.5200730000000 1.0
C      1  0.4747090000000  0.4614080000000  0.4698640000000 1.0
C      1  0.4711900000000  0.4949450000000  0.5391420000000 1.0
C      1  0.5053050000000  0.4449890000000  0.5325790000000 1.0
C      1  0.5405440000000  0.5052450000000  0.4519240000000 1.0
C      1  0.5370730000000  0.5216970000000  0.5261980000000 1.0
C      1  0.5031120000000  0.4984820000000  0.4844480000000 1.0
C      1  0.5004070000000  0.5251090000000  0.4928530000000 1.0
C      1  0.4770800000000  0.5684830000000  0.4890960000000 1.0
C      1  0.4639520000000  0.4838550000000  0.5144850000000 1.0
C      1  0.5251930000000  0.4476740000000  0.4870260000000 1.0
END
