TITL C-599891-72-1438 2.61414948195003e-06 125000 -299.212287168482 0 0 49 (C1) n - 1
REM
REM in /home/nfs/bkarasulu/CARBON/AIRSS/Generating-Clusters/TERSOFF/Only-C1/FIRE-HFTN
REM
REM
REM
REM
REM
REM ./C.cell (11c1c37f851c82e70ff6c80c92926a4b)
REM AIRSS Version 0.9.1 bugfix July 2018 build 013d7b7c2542+ Fri, 06 Jul 2018 19:26:36 +0100
REM compiler GCC version 9.2.1 20190827 (Red Hat 9.2.1-1)
REM options -cpp -mtune=generic -march=x86-64 -g -O0 -fpre-include=/usr/include/finclude/math-vector-fortran.h
REM seed -1243779830 1534842482 290886353 -1716750422 -2098444149 -674742817 -292719243 -960065978 1965473506 1431833178 -1143804529 134193106 -638769484 498979444 -138476731 -1611901988 -1259187364 520925861 230551481 47378763 -2094741094 -417118519 1011978539 891601015 -456919701 -707615742 -1710202086 -1851531334 -231608490 839964335 1862306187 -2099519709 -1522093028
REM
CELL 1.54180   50.00000   50.00000   50.00000   90.00000   90.00000   90.00000
LATT -1
SFAC C  
C      1  0.4657470000000  0.4350270000000  0.4849270000000 1.0
C      1  0.4714870000000  0.5073750000000  0.4240140000000 1.0
C      1  0.5571610000000  0.5485310000000  0.5269470000000 1.0
C      1  0.4960460000000  0.5583300000000  0.5284940000000 1.0
C      1  0.4363490000000  0.4644490000000  0.5034960000000 1.0
C      1  0.5429940000000  0.5127130000000  0.5585270000000 1.0
C      1  0.4593760000000  0.4832990000000  0.4662400000000 1.0
C      1  0.4780120000000  0.5222050000000  0.5539680000000 1.0
C      1  0.4731680000000  0.5342480000000  0.4234970000000 1.0
C      1  0.4855910000000  0.5618580000000  0.4660440000000 1.0
C      1  0.5209630000000  0.4945700000000  0.5612220000000 1.0
C      1  0.5621650000000  0.5049560000000  0.4843470000000 1.0
C      1  0.5532390000000  0.5211800000000  0.5327130000000 1.0
C      1  0.5136330000000  0.5589270000000  0.5064050000000 1.0
C      1  0.4789040000000  0.4726180000000  0.5617990000000 1.0
C      1  0.4943680000000  0.4623170000000  0.4360450000000 1.0
C      1  0.4672120000000  0.5783610000000  0.4800640000000 1.0
C      1  0.4731140000000  0.5426580000000  0.5345690000000 1.0
C      1  0.4966220000000  0.4351060000000  0.5272340000000 1.0
C      1  0.5044980000000  0.5178970000000  0.4806330000000 1.0
C      1  0.5550980000000  0.5222130000000  0.5812830000000 1.0
C      1  0.4537450000000  0.4726470000000  0.5496840000000 1.0
C      1  0.5406820000000  0.5638110000000  0.5120440000000 1.0
C      1  0.4920730000000  0.4991250000000  0.5634210000000 1.0
C      1  0.5313700000000  0.4642080000000  0.5246360000000 1.0
C      1  0.4524280000000  0.5726670000000  0.5020810000000 1.0
C      1  0.4577020000000  0.5044960000000  0.4863570000000 1.0
C      1  0.4973580000000  0.4520050000000  0.5522490000000 1.0
C      1  0.5295340000000  0.4312620000000  0.4878340000000 1.0
C      1  0.4740350000000  0.4932890000000  0.5086940000000 1.0
C      1  0.5759280000000  0.4972200000000  0.4385940000000 1.0
C      1  0.4804520000000  0.5544690000000  0.4394650000000 1.0
C      1  0.4764040000000  0.4274820000000  0.5088970000000 1.0
C      1  0.4520370000000  0.5469840000000  0.5146260000000 1.0
C      1  0.5268960000000  0.4882550000000  0.5109260000000 1.0
C      1  0.5222040000000  0.4397050000000  0.5133690000000 1.0
C      1  0.5017180000000  0.4997760000000  0.5035970000000 1.0
C      1  0.4806250000000  0.4880760000000  0.4449170000000 1.0
C      1  0.5498140000000  0.5048220000000  0.5095490000000 1.0
C      1  0.4436560000000  0.5266000000000  0.4964760000000 1.0
C      1  0.5297320000000  0.4387910000000  0.4621210000000 1.0
C      1  0.4532420000000  0.4775250000000  0.5223700000000 1.0
C      1  0.5566010000000  0.4963780000000  0.4578970000000 1.0
C      1  0.5036960000000  0.5464880000000  0.4824840000000 1.0
C      1  0.4502600000000  0.4582420000000  0.4784950000000 1.0
C      1  0.5236370000000  0.4668780000000  0.5522080000000 1.0
C      1  0.5304740000000  0.4870300000000  0.4519460000000 1.0
C      1  0.5063950000000  0.5028870000000  0.4567430000000 1.0
C      1  0.5215560000000  0.4600470000000  0.4458560000000 1.0
END
