TITL C-599895-9959-1277 6.18390514507356e-06 125000 -553.55138320997 0 0 94 (C1) n - 1
REM
REM in /home/nfs/bkarasulu/CARBON/AIRSS/Generating-Clusters/TERSOFF/Only-C1/FIRE-HFTN
REM
REM
REM
REM
REM
REM ./C.cell (11c1c37f851c82e70ff6c80c92926a4b)
REM AIRSS Version 0.9.1 bugfix July 2018 build 013d7b7c2542+ Fri, 06 Jul 2018 19:26:36 +0100
REM compiler GCC version 9.2.1 20190827 (Red Hat 9.2.1-1)
REM options -cpp -mtune=generic -march=x86-64 -g -O0 -fpre-include=/usr/include/finclude/math-vector-fortran.h
REM seed 1665137666 797682958 221987989 839758632 1376237415 -628168595 101845088 1045484781 -114604491 -144032664 -199926549 729743550 -1699433670 -1342930874 -621746668 -1498361748 943306420 -134692067 1467666585 -769388545 -867709780 790853327 848831108 -1122154814 -1948291713 1376008545 634120839 1782067207 -986708336 1585188485 414785364 -1018219740 -1427439807
REM
CELL 1.54180   50.00000   50.00000   50.00000   90.00000   90.00000   90.00000
LATT -1
SFAC C  
C      1  0.5611770000000  0.5072420000000  0.5499690000000 1.0
C      1  0.4309950000000  0.5548400000000  0.4616940000000 1.0
C      1  0.5506790000000  0.4305960000000  0.5078600000000 1.0
C      1  0.4994560000000  0.4663500000000  0.5814960000000 1.0
C      1  0.4439750000000  0.4465600000000  0.5505340000000 1.0
C      1  0.4609790000000  0.5282140000000  0.5820770000000 1.0
C      1  0.5169940000000  0.5474610000000  0.4810920000000 1.0
C      1  0.4776690000000  0.4818920000000  0.5856410000000 1.0
C      1  0.4691080000000  0.4512760000000  0.5382860000000 1.0
C      1  0.4906840000000  0.5138630000000  0.4524140000000 1.0
C      1  0.4482970000000  0.5428140000000  0.5374330000000 1.0
C      1  0.5264370000000  0.5284000000000  0.5770820000000 1.0
C      1  0.4770870000000  0.4184590000000  0.4525320000000 1.0
C      1  0.5191110000000  0.4515590000000  0.5702400000000 1.0
C      1  0.4493560000000  0.5214210000000  0.4929820000000 1.0
C      1  0.5966950000000  0.5634880000000  0.5439460000000 1.0
C      1  0.4289240000000  0.5078350000000  0.4411480000000 1.0
C      1  0.5084510000000  0.4555130000000  0.5092150000000 1.0
C      1  0.4125930000000  0.4846610000000  0.5074180000000 1.0
C      1  0.4877020000000  0.4376130000000  0.5213300000000 1.0
C      1  0.5366400000000  0.3777090000000  0.4698080000000 1.0
C      1  0.4692120000000  0.4411440000000  0.4356070000000 1.0
C      1  0.4982400000000  0.4624660000000  0.4823960000000 1.0
C      1  0.5041890000000  0.4997270000000  0.5097120000000 1.0
C      1  0.5749780000000  0.5525230000000  0.5317200000000 1.0
C      1  0.5016860000000  0.4044980000000  0.4485250000000 1.0
C      1  0.5539690000000  0.4370900000000  0.5356640000000 1.0
C      1  0.5346520000000  0.4957480000000  0.5418280000000 1.0
C      1  0.4863450000000  0.5260120000000  0.4240620000000 1.0
C      1  0.5381010000000  0.4406300000000  0.4355740000000 1.0
C      1  0.5706390000000  0.4639000000000  0.4773160000000 1.0
C      1  0.5350140000000  0.4319540000000  0.5567590000000 1.0
C      1  0.5443610000000  0.4248100000000  0.4583260000000 1.0
C      1  0.5535200000000  0.5681490000000  0.5199980000000 1.0
C      1  0.4365050000000  0.4949110000000  0.5592310000000 1.0
C      1  0.5653580000000  0.5542910000000  0.4681820000000 1.0
C      1  0.5125870000000  0.4720080000000  0.4601140000000 1.0
C      1  0.5237230000000  0.6198390000000  0.4640810000000 1.0
C      1  0.5219660000000  0.4798490000000  0.5206910000000 1.0
C      1  0.5279120000000  0.4013580000000  0.4594090000000 1.0
C      1  0.4721490000000  0.4790230000000  0.5359480000000 1.0
C      1  0.5279040000000  0.5663590000000  0.5349080000000 1.0
C      1  0.3813750000000  0.4578260000000  0.5344430000000 1.0
C      1  0.4798770000000  0.4992560000000  0.5209380000000 1.0
C      1  0.4334340000000  0.4812200000000  0.4388830000000 1.0
C      1  0.4567880000000  0.5002570000000  0.5790820000000 1.0
C      1  0.5093710000000  0.5804030000000  0.5524010000000 1.0
C      1  0.5360700000000  0.5470820000000  0.4281950000000 1.0
C      1  0.4460500000000  0.5486980000000  0.5075100000000 1.0
C      1  0.5134480000000  0.5408960000000  0.5327400000000 1.0
C      1  0.4911970000000  0.5418670000000  0.4895150000000 1.0
C      1  0.5112550000000  0.5978770000000  0.4746320000000 1.0
C      1  0.5177170000000  0.5191440000000  0.5506230000000 1.0
C      1  0.5089780000000  0.5481260000000  0.5882890000000 1.0
C      1  0.5544220000000  0.5197810000000  0.5762430000000 1.0
C      1  0.5534190000000  0.5714820000000  0.4901760000000 1.0
C      1  0.4323560000000  0.5048360000000  0.5104310000000 1.0
C      1  0.5942590000000  0.4631590000000  0.5227400000000 1.0
C      1  0.3992330000000  0.4803910000000  0.4840060000000 1.0
C      1  0.5364590000000  0.5283280000000  0.4907790000000 1.0
C      1  0.5150040000000  0.4562800000000  0.4365990000000 1.0
C      1  0.4853950000000  0.4777600000000  0.4061710000000 1.0
C      1  0.5558610000000  0.4387010000000  0.4807600000000 1.0
C      1  0.5105030000000  0.5440030000000  0.4201300000000 1.0
C      1  0.5162840000000  0.4998090000000  0.4557140000000 1.0
C      1  0.5524930000000  0.5355660000000  0.4486020000000 1.0
C      1  0.5080370000000  0.5537300000000  0.6150190000000 1.0
C      1  0.4371670000000  0.5352670000000  0.4417130000000 1.0
C      1  0.5627910000000  0.4860990000000  0.4611100000000 1.0
C      1  0.4833120000000  0.5149640000000  0.3758620000000 1.0
C      1  0.5319860000000  0.4057600000000  0.5647190000000 1.0
C      1  0.4835220000000  0.5985220000000  0.4794590000000 1.0
C      1  0.4921230000000  0.5628690000000  0.5685930000000 1.0
C      1  0.4661340000000  0.5486020000000  0.5617680000000 1.0
C      1  0.5259900000000  0.5746530000000  0.4804240000000 1.0
C      1  0.4602110000000  0.5405910000000  0.4259090000000 1.0
C      1  0.5581380000000  0.5187440000000  0.5036890000000 1.0
C      1  0.4354640000000  0.5151380000000  0.5382150000000 1.0
C      1  0.4907390000000  0.4552320000000  0.4221180000000 1.0
C      1  0.4903750000000  0.5436550000000  0.5172440000000 1.0
C      1  0.4850450000000  0.5055480000000  0.4016610000000 1.0
C      1  0.4417650000000  0.5671660000000  0.4855060000000 1.0
C      1  0.4056660000000  0.4698600000000  0.5311400000000 1.0
C      1  0.4674610000000  0.4147960000000  0.4790200000000 1.0
C      1  0.4258200000000  0.4689420000000  0.5514930000000 1.0
C      1  0.4587500000000  0.5893920000000  0.4832770000000 1.0
C      1  0.5783200000000  0.4507460000000  0.5406620000000 1.0
C      1  0.5706620000000  0.5242570000000  0.5286310000000 1.0
C      1  0.4767290000000  0.4177420000000  0.5042070000000 1.0
C      1  0.5449180000000  0.5073400000000  0.4537450000000 1.0
C      1  0.4743100000000  0.5228080000000  0.4758190000000 1.0
C      1  0.5912430000000  0.4680320000000  0.4964240000000 1.0
C      1  0.4453170000000  0.4568760000000  0.4376970000000 1.0
C      1  0.4707410000000  0.4658660000000  0.4810250000000 1.0
END
