TITL C-599890-3321-915 -7232.86052386373 125000 -788.613405750513 0 0 127 (C1) n - 1
REM
REM in /home/nfs/bkarasulu/CARBON/AIRSS/Generating-Clusters/TERSOFF/Only-C1/FIRE-HFTN
REM
REM
REM
REM
REM
REM ./C.cell (11c1c37f851c82e70ff6c80c92926a4b)
REM AIRSS Version 0.9.1 bugfix July 2018 build 013d7b7c2542+ Fri, 06 Jul 2018 19:26:36 +0100
REM compiler GCC version 9.2.1 20190827 (Red Hat 9.2.1-1)
REM options -cpp -mtune=generic -march=x86-64 -g -O0 -fpre-include=/usr/include/finclude/math-vector-fortran.h
REM seed -419840404 1897235190 -1551755864 -367651036 1567017102 1194215282 -953403822 383300680 705155923 -1193778069 1970989481 -2018305107 1433216251 90128355 1291205213 -1992336169 -1154913360 -429553673 66977056 -824020441 777225744 -960014434 -42233934 -529702472 680555925 1720176260 -1351333155 402666499 -1872256448 1480933701 -478959124 138886772 -714955444
REM
CELL 1.54180   50.00000   50.00000   50.00000   90.00000   90.00000   90.00000
LATT -1
SFAC C  
C      1  0.4042050000000  0.4789140000000  0.5335350000000 1.0
C      1  0.4910320000000  0.5612790000000  0.4022320000000 1.0
C      1  0.4398870000000  0.4213380000000  0.3996550000000 1.0
C      1  0.5407270000000  0.5166680000000  0.5952540000000 1.0
C      1  0.4860720000000  0.5480320000000  0.5500200000000 1.0
C      1  0.4422880000000  0.3884730000000  0.5188190000000 1.0
C      1  0.5355820000000  0.5698880000000  0.5173410000000 1.0
C      1  0.3978770000000  0.4679130000000  0.4805700000000 1.0
C      1  0.5435200000000  0.5480200000000  0.5354290000000 1.0
C      1  0.5003010000000  0.4597840000000  0.4153300000000 1.0
C      1  0.6331140000000  0.4840390000000  0.5229690000000 1.0
C      1  0.4437690000000  0.5764650000000  0.6015460000000 1.0
C      1  0.4598460000000  0.5788160000000  0.4346260000000 1.0
C      1  0.4575510000000  0.4742910000000  0.4460470000000 1.0
C      1  0.4375260000000  0.4144430000000  0.5167480000000 1.0
C      1  0.4800610000000  0.5352370000000  0.4676750000000 1.0
C      1  0.5652500000000  0.4806370000000  0.4357390000000 1.0
C      1  0.4844520000000  0.5709190000000  0.5325630000000 1.0
C      1  0.4948350000000  0.4578640000000  0.4702620000000 1.0
C      1  0.4665930000000  0.4516100000000  0.5703790000000 1.0
C      1  0.5131030000000  0.5734210000000  0.5818330000000 1.0
C      1  0.5493730000000  0.4660490000000  0.4172270000000 1.0
C      1  0.5620840000000  0.5186870000000  0.5763740000000 1.0
C      1  0.4739810000000  0.4909920000000  0.3883380000000 1.0
C      1  0.4902500000000  0.5375560000000  0.4928220000000 1.0
C      1  0.5602330000000  0.5404070000000  0.5573070000000 1.0
C      1  0.4415470000000  0.4990790000000  0.4525080000000 1.0
C      1  0.5001660000000  0.4786700000000  0.3921190000000 1.0
C      1  0.5630830000000  0.4691300000000  0.4612730000000 1.0
C      1  0.4665140000000  0.4603230000000  0.4696450000000 1.0
C      1  0.4569810000000  0.5807970000000  0.5306140000000 1.0
C      1  0.4984450000000  0.5504130000000  0.5754660000000 1.0
C      1  0.4639190000000  0.5593510000000  0.4143640000000 1.0
C      1  0.4306610000000  0.5402280000000  0.5242600000000 1.0
C      1  0.4892580000000  0.4777650000000  0.5231480000000 1.0
C      1  0.5163360000000  0.5286740000000  0.5001410000000 1.0
C      1  0.5512950000000  0.4259640000000  0.5682450000000 1.0
C      1  0.6305280000000  0.4563330000000  0.5280010000000 1.0
C      1  0.5300020000000  0.5897570000000  0.4164670000000 1.0
C      1  0.5275790000000  0.4207050000000  0.4747520000000 1.0
C      1  0.6518170000000  0.4393430000000  0.5286010000000 1.0
C      1  0.4799740000000  0.4721170000000  0.5878930000000 1.0
C      1  0.5057540000000  0.5366720000000  0.4033280000000 1.0
C      1  0.5283700000000  0.4693370000000  0.5750450000000 1.0
C      1  0.5132130000000  0.5091430000000  0.5975270000000 1.0
C      1  0.5255030000000  0.5955020000000  0.5879730000000 1.0
C      1  0.5932630000000  0.4453770000000  0.5586760000000 1.0
C      1  0.5145050000000  0.4792760000000  0.4672580000000 1.0
C      1  0.5285340000000  0.5257800000000  0.5255630000000 1.0
C      1  0.5478020000000  0.5476720000000  0.4697760000000 1.0
C      1  0.5479740000000  0.5673660000000  0.4910290000000 1.0
C      1  0.4554280000000  0.4392130000000  0.4115120000000 1.0
C      1  0.4133940000000  0.5406400000000  0.4471670000000 1.0
C      1  0.5020130000000  0.4311550000000  0.4754510000000 1.0
C      1  0.4281670000000  0.5718170000000  0.4890460000000 1.0
C      1  0.4719940000000  0.4243610000000  0.5704700000000 1.0
C      1  0.4873880000000  0.4035480000000  0.5645660000000 1.0
C      1  0.6037230000000  0.4475670000000  0.5322560000000 1.0
C      1  0.5155340000000  0.5068000000000  0.4593950000000 1.0
C      1  0.4523040000000  0.5221410000000  0.5236140000000 1.0
C      1  0.5232120000000  0.4639520000000  0.5245750000000 1.0
C      1  0.5274460000000  0.5232850000000  0.3908120000000 1.0
C      1  0.5486290000000  0.5776640000000  0.4314660000000 1.0
C      1  0.4066540000000  0.4936860000000  0.4885270000000 1.0
C      1  0.5070650000000  0.4813810000000  0.5903530000000 1.0
C      1  0.5404920000000  0.4754080000000  0.4777590000000 1.0
C      1  0.5529330000000  0.5320030000000  0.3987230000000 1.0
C      1  0.5125930000000  0.6272660000000  0.5034060000000 1.0
C      1  0.6141660000000  0.5025130000000  0.5178610000000 1.0
C      1  0.5321390000000  0.4188140000000  0.5485150000000 1.0
C      1  0.5739520000000  0.5070000000000  0.4328700000000 1.0
C      1  0.4500600000000  0.5326190000000  0.4151310000000 1.0
C      1  0.4749140000000  0.5233820000000  0.5405280000000 1.0
C      1  0.4946180000000  0.5307780000000  0.5961470000000 1.0
C      1  0.4914630000000  0.5193700000000  0.4206880000000 1.0
C      1  0.4053690000000  0.5274530000000  0.5241500000000 1.0
C      1  0.4920260000000  0.5010160000000  0.5393320000000 1.0
C      1  0.5439240000000  0.4757620000000  0.5052390000000 1.0
C      1  0.4244920000000  0.4038060000000  0.3880270000000 1.0
C      1  0.4373550000000  0.5664600000000  0.5150360000000 1.0
C      1  0.4545600000000  0.5558370000000  0.6146920000000 1.0
C      1  0.5315670000000  0.5248280000000  0.4758730000000 1.0
C      1  0.5078460000000  0.5812370000000  0.5181010000000 1.0
C      1  0.5704970000000  0.4328670000000  0.4927000000000 1.0
C      1  0.5791880000000  0.4206400000000  0.5641400000000 1.0
C      1  0.4571240000000  0.4887100000000  0.5951130000000 1.0
C      1  0.4250440000000  0.4591610000000  0.5364530000000 1.0
C      1  0.5779850000000  0.4948560000000  0.5736310000000 1.0
C      1  0.5561310000000  0.5529180000000  0.4429520000000 1.0
C      1  0.4935190000000  0.5197420000000  0.4481110000000 1.0
C      1  0.5120150000000  0.4005090000000  0.5548120000000 1.0
C      1  0.4736860000000  0.5370370000000  0.6138350000000 1.0
C      1  0.5839760000000  0.4505010000000  0.5115200000000 1.0
C      1  0.4545560000000  0.4561110000000  0.4953500000000 1.0
C      1  0.4676420000000  0.5118400000000  0.4061860000000 1.0
C      1  0.4476180000000  0.3630340000000  0.5208250000000 1.0
C      1  0.4518260000000  0.5021780000000  0.5033200000000 1.0
C      1  0.4002310000000  0.5007850000000  0.5158240000000 1.0
C      1  0.5271560000000  0.4492650000000  0.4254290000000 1.0
C      1  0.5301190000000  0.4799710000000  0.5490160000000 1.0
C      1  0.4420810000000  0.5912690000000  0.5793810000000 1.0
C      1  0.5304680000000  0.4338600000000  0.5240140000000 1.0
C      1  0.5069130000000  0.5845250000000  0.4037090000000 1.0
C      1  0.4339920000000  0.5233730000000  0.4372100000000 1.0
C      1  0.5420980000000  0.4295750000000  0.4510030000000 1.0
C      1  0.5430120000000  0.4236850000000  0.4994960000000 1.0
C      1  0.4351490000000  0.4832920000000  0.5792360000000 1.0
C      1  0.5217140000000  0.4958760000000  0.3842470000000 1.0
C      1  0.4654460000000  0.4778810000000  0.5096150000000 1.0
C      1  0.4714090000000  0.4586790000000  0.4244200000000 1.0
C      1  0.5674640000000  0.4406460000000  0.4638230000000 1.0
C      1  0.5022200000000  0.6022580000000  0.4991540000000 1.0
C      1  0.3878220000000  0.5380160000000  0.4377260000000 1.0
C      1  0.5197280000000  0.5059590000000  0.5429280000000 1.0
C      1  0.4705110000000  0.5916620000000  0.4555970000000 1.0
C      1  0.4079240000000  0.4450870000000  0.4912380000000 1.0
C      1  0.5712780000000  0.4766390000000  0.5126760000000 1.0
C      1  0.5640820000000  0.5320040000000  0.4248420000000 1.0
C      1  0.4193680000000  0.5602500000000  0.4665580000000 1.0
C      1  0.4315330000000  0.4426370000000  0.5103290000000 1.0
C      1  0.4474470000000  0.5945680000000  0.5533860000000 1.0
C      1  0.4859380000000  0.5973900000000  0.4766360000000 1.0
C      1  0.5773220000000  0.4663060000000  0.5729380000000 1.0
C      1  0.4406380000000  0.4617710000000  0.5602430000000 1.0
C      1  0.4334720000000  0.5009160000000  0.4807330000000 1.0
C      1  0.5876510000000  0.4993410000000  0.5145120000000 1.0
C      1  0.5510460000000  0.4531340000000  0.5795380000000 1.0
END
