TITL C-599896-8500-616 0.563275808836021 125000 -718.905406857203 0 0 117 (C1) n - 1
REM
REM in /home/nfs/bkarasulu/CARBON/AIRSS/Generating-Clusters/TERSOFF/Only-C1/FIRE-HFTN
REM
REM
REM
REM
REM
REM ./C.cell (11c1c37f851c82e70ff6c80c92926a4b)
REM AIRSS Version 0.9.1 bugfix July 2018 build 013d7b7c2542+ Fri, 06 Jul 2018 19:26:36 +0100
REM compiler GCC version 9.2.1 20190827 (Red Hat 9.2.1-1)
REM options -cpp -mtune=generic -march=x86-64 -g -O0 -fpre-include=/usr/include/finclude/math-vector-fortran.h
REM seed 2132325549 814019214 -1741356526 963040316 1880349740 1981189081 1149140516 1910699177 -1812929716 -1262118217 -143708835 -1171116996 -842757234 -757481998 -569552872 -1569852221 1367019127 -505416335 -1453067037 1006081005 -1978003165 -1676304151 -1338680811 -1470219961 1395656642 405357420 -376944810 1424846216 1746858124 -31929415 -905004397 -1299653895 2114550924
REM
CELL 1.54180   50.00000   50.00000   50.00000   90.00000   90.00000   90.00000
LATT -1
SFAC C  
C      1  0.4466280000000  0.4148840000000  0.5628710000000 1.0
C      1  0.5172190000000  0.4968260000000  0.5543380000000 1.0
C      1  0.4434860000000  0.5115750000000  0.5720150000000 1.0
C      1  0.5966330000000  0.4743880000000  0.5355560000000 1.0
C      1  0.4303510000000  0.4360820000000  0.5694280000000 1.0
C      1  0.4387070000000  0.5617720000000  0.5215200000000 1.0
C      1  0.4045250000000  0.4847850000000  0.5188810000000 1.0
C      1  0.5479220000000  0.4760260000000  0.4990660000000 1.0
C      1  0.4765930000000  0.5067810000000  0.4734980000000 1.0
C      1  0.5640120000000  0.5593390000000  0.4688970000000 1.0
C      1  0.4635090000000  0.5558660000000  0.4231660000000 1.0
C      1  0.5646650000000  0.4192110000000  0.4998630000000 1.0
C      1  0.5424510000000  0.4198080000000  0.5421670000000 1.0
C      1  0.4869300000000  0.4971980000000  0.5931560000000 1.0
C      1  0.5176080000000  0.4541030000000  0.5283780000000 1.0
C      1  0.5844950000000  0.5158820000000  0.5470790000000 1.0
C      1  0.4580050000000  0.5209300000000  0.4574590000000 1.0
C      1  0.4940960000000  0.5230320000000  0.6019510000000 1.0
C      1  0.4452810000000  0.4700520000000  0.6009620000000 1.0
C      1  0.4236140000000  0.5704570000000  0.4783190000000 1.0
C      1  0.5700440000000  0.5685720000000  0.4954090000000 1.0
C      1  0.4692970000000  0.5671210000000  0.3448570000000 1.0
C      1  0.4489590000000  0.4411500000000  0.4964120000000 1.0
C      1  0.6334120000000  0.5080340000000  0.5390910000000 1.0
C      1  0.4506410000000  0.5860770000000  0.5099430000000 1.0
C      1  0.4992970000000  0.4254540000000  0.4871920000000 1.0
C      1  0.4319810000000  0.4789100000000  0.5202650000000 1.0
C      1  0.4723520000000  0.5692550000000  0.3190550000000 1.0
C      1  0.4110760000000  0.5182990000000  0.4683580000000 1.0
C      1  0.5372930000000  0.5649610000000  0.4600490000000 1.0
C      1  0.4589930000000  0.4938380000000  0.5932590000000 1.0
C      1  0.4925900000000  0.4917980000000  0.5142370000000 1.0
C      1  0.4416640000000  0.4888330000000  0.4099620000000 1.0
C      1  0.4720920000000  0.4021790000000  0.5565900000000 1.0
C      1  0.5478710000000  0.5391690000000  0.5221960000000 1.0
C      1  0.4822090000000  0.5436480000000  0.5858980000000 1.0
C      1  0.3942220000000  0.5088380000000  0.5117830000000 1.0
C      1  0.4777990000000  0.3860980000000  0.5341010000000 1.0
C      1  0.4051870000000  0.5281610000000  0.4943930000000 1.0
C      1  0.4860190000000  0.4592420000000  0.5638440000000 1.0
C      1  0.4674840000000  0.4778210000000  0.4048160000000 1.0
C      1  0.4567690000000  0.4437790000000  0.4346610000000 1.0
C      1  0.4713050000000  0.5655470000000  0.4708540000000 1.0
C      1  0.5402350000000  0.4107430000000  0.5134770000000 1.0
C      1  0.4498430000000  0.5186270000000  0.5415350000000 1.0
C      1  0.4808860000000  0.4384340000000  0.6084900000000 1.0
C      1  0.4663440000000  0.5648040000000  0.3710950000000 1.0
C      1  0.5308470000000  0.5875690000000  0.4451480000000 1.0
C      1  0.5713480000000  0.4231290000000  0.4723150000000 1.0
C      1  0.4778860000000  0.4573420000000  0.4213910000000 1.0
C      1  0.4325920000000  0.4502390000000  0.4750410000000 1.0
C      1  0.5051120000000  0.5000600000000  0.4629200000000 1.0
C      1  0.5300680000000  0.5198380000000  0.5112420000000 1.0
C      1  0.5139170000000  0.4055270000000  0.5026080000000 1.0
C      1  0.4325840000000  0.5085960000000  0.4533250000000 1.0
C      1  0.5953870000000  0.4590540000000  0.5115490000000 1.0
C      1  0.5461360000000  0.5671350000000  0.5131680000000 1.0
C      1  0.4503100000000  0.5819410000000  0.4811450000000 1.0
C      1  0.4684180000000  0.4552620000000  0.5414260000000 1.0
C      1  0.5878520000000  0.4460360000000  0.4668160000000 1.0
C      1  0.4958940000000  0.4133310000000  0.5689250000000 1.0
C      1  0.4712090000000  0.4255030000000  0.4895420000000 1.0
C      1  0.4971210000000  0.3863500000000  0.5152340000000 1.0
C      1  0.5215200000000  0.6290050000000  0.4670360000000 1.0
C      1  0.5794150000000  0.4358150000000  0.5187690000000 1.0
C      1  0.5089660000000  0.5103830000000  0.4342000000000 1.0
C      1  0.5573960000000  0.4120730000000  0.4508230000000 1.0
C      1  0.5213560000000  0.6092810000000  0.5135890000000 1.0
C      1  0.5112520000000  0.4508180000000  0.4815910000000 1.0
C      1  0.5176960000000  0.5194230000000  0.4108920000000 1.0
C      1  0.4479110000000  0.4553160000000  0.5212020000000 1.0
C      1  0.5273000000000  0.5292430000000  0.3887390000000 1.0
C      1  0.5245070000000  0.6148440000000  0.4429550000000 1.0
C      1  0.4993890000000  0.5494820000000  0.5630590000000 1.0
C      1  0.5177340000000  0.5478510000000  0.4724220000000 1.0
C      1  0.4484510000000  0.5018810000000  0.5186800000000 1.0
C      1  0.4946060000000  0.5590240000000  0.4861540000000 1.0
C      1  0.5206640000000  0.6269970000000  0.4936190000000 1.0
C      1  0.4856870000000  0.5542210000000  0.5375180000000 1.0
C      1  0.4903650000000  0.4375090000000  0.5820780000000 1.0
C      1  0.5761740000000  0.5356670000000  0.5293270000000 1.0
C      1  0.5271250000000  0.5184930000000  0.4790070000000 1.0
C      1  0.5403140000000  0.4195100000000  0.4317390000000 1.0
C      1  0.5896580000000  0.5543040000000  0.5117030000000 1.0
C      1  0.5387560000000  0.5118180000000  0.5654260000000 1.0
C      1  0.5580610000000  0.5115970000000  0.4708500000000 1.0
C      1  0.5270250000000  0.5390800000000  0.5669230000000 1.0
C      1  0.5140180000000  0.5027790000000  0.5270110000000 1.0
C      1  0.6075580000000  0.5002220000000  0.5402860000000 1.0
C      1  0.5224370000000  0.4379660000000  0.4247380000000 1.0
C      1  0.5227280000000  0.4105110000000  0.5601910000000 1.0
C      1  0.5678820000000  0.4874780000000  0.4828440000000 1.0
C      1  0.5899310000000  0.4683780000000  0.4845050000000 1.0
C      1  0.5073330000000  0.4687880000000  0.4595960000000 1.0
C      1  0.4265890000000  0.4627820000000  0.5797110000000 1.0
C      1  0.4703810000000  0.5005710000000  0.5006070000000 1.0
C      1  0.4642350000000  0.5614770000000  0.3972970000000 1.0
C      1  0.5640290000000  0.4988900000000  0.5599620000000 1.0
C      1  0.4200070000000  0.4900430000000  0.5683990000000 1.0
C      1  0.5735460000000  0.5334200000000  0.4609240000000 1.0
C      1  0.4266700000000  0.5013810000000  0.3909750000000 1.0
C      1  0.5213040000000  0.6269100000000  0.4187010000000 1.0
C      1  0.4587960000000  0.4514060000000  0.6169220000000 1.0
C      1  0.5224730000000  0.5816050000000  0.5173100000000 1.0
C      1  0.4987390000000  0.5656810000000  0.5142240000000 1.0
C      1  0.4987720000000  0.4837130000000  0.5709210000000 1.0
C      1  0.5713730000000  0.4696950000000  0.5522830000000 1.0
C      1  0.5632750000000  0.4411830000000  0.5441440000000 1.0
C      1  0.4178910000000  0.5527050000000  0.5013020000000 1.0
C      1  0.4576790000000  0.5456230000000  0.5354110000000 1.0
C      1  0.4326770000000  0.4851530000000  0.4373050000000 1.0
C      1  0.5260400000000  0.4603260000000  0.5034200000000 1.0
C      1  0.5953400000000  0.5301280000000  0.4448830000000 1.0
C      1  0.4369730000000  0.4588170000000  0.4486850000000 1.0
C      1  0.5033710000000  0.4564930000000  0.4335810000000 1.0
C      1  0.4531230000000  0.5393730000000  0.5836730000000 1.0
C      1  0.4642280000000  0.5475610000000  0.4497020000000 1.0
END
