TITL C-599893-4344-368 -0.065795111890486 125000 -479.092193387265 0 0 78 (C1) n - 1
REM
REM in /home/nfs/bkarasulu/CARBON/AIRSS/Generating-Clusters/TERSOFF/Only-C1/FIRE-HFTN
REM
REM
REM
REM
REM
REM ./C.cell (11c1c37f851c82e70ff6c80c92926a4b)
REM AIRSS Version 0.9.1 bugfix July 2018 build 013d7b7c2542+ Fri, 06 Jul 2018 19:26:36 +0100
REM compiler GCC version 9.2.1 20190827 (Red Hat 9.2.1-1)
REM options -cpp -mtune=generic -march=x86-64 -g -O0 -fpre-include=/usr/include/finclude/math-vector-fortran.h
REM seed -2110003019 725299137 -1201720094 -2113048055 1222892165 -1754450222 1287739351 -50731646 -2068489489 962689318 1438025384 -1400118613 947159155 -1579387206 1038461231 602952115 -1358504135 -150428941 1020315004 200959710 -1530775205 127576724 866903255 -1890630584 -753490822 -803574098 746778401 593758242 -550293318 -405180167 1747821910 37865501 -142139008
REM
CELL 1.54180   50.00000   50.00000   50.00000   90.00000   90.00000   90.00000
LATT -1
SFAC C  
C      1  0.5317200000000  0.4879260000000  0.5592470000000 1.0
C      1  0.4735430000000  0.5447900000000  0.4404850000000 1.0
C      1  0.5696830000000  0.6233890000000  0.4860950000000 1.0
C      1  0.5783050000000  0.4978740000000  0.5179300000000 1.0
C      1  0.3879450000000  0.4203780000000  0.5414430000000 1.0
C      1  0.4576610000000  0.4295830000000  0.4917380000000 1.0
C      1  0.4889700000000  0.5315520000000  0.4607750000000 1.0
C      1  0.4673560000000  0.5637040000000  0.5268180000000 1.0
C      1  0.5467940000000  0.5636560000000  0.5386420000000 1.0
C      1  0.5726950000000  0.5858670000000  0.5805170000000 1.0
C      1  0.5613860000000  0.5445070000000  0.5230180000000 1.0
C      1  0.5203060000000  0.5713670000000  0.5325770000000 1.0
C      1  0.4140270000000  0.4160900000000  0.5396530000000 1.0
C      1  0.4230460000000  0.5154560000000  0.5338630000000 1.0
C      1  0.4610430000000  0.5012080000000  0.5583260000000 1.0
C      1  0.5594870000000  0.5751220000000  0.5607890000000 1.0
C      1  0.6422920000000  0.5719370000000  0.5183520000000 1.0
C      1  0.4686890000000  0.5032910000000  0.4188710000000 1.0
C      1  0.4595190000000  0.4989400000000  0.4462260000000 1.0
C      1  0.4173270000000  0.4861370000000  0.4642070000000 1.0
C      1  0.5707890000000  0.4274870000000  0.5074510000000 1.0
C      1  0.5488560000000  0.4128910000000  0.4955590000000 1.0
C      1  0.5741400000000  0.4291400000000  0.5351040000000 1.0
C      1  0.4368010000000  0.4396810000000  0.4757760000000 1.0
C      1  0.5099770000000  0.4504220000000  0.5474240000000 1.0
C      1  0.4593020000000  0.5467350000000  0.3941440000000 1.0
C      1  0.5753140000000  0.5529250000000  0.4995290000000 1.0
C      1  0.5738490000000  0.4519730000000  0.4915660000000 1.0
C      1  0.4451510000000  0.5242470000000  0.5510680000000 1.0
C      1  0.4206820000000  0.4600050000000  0.4692910000000 1.0
C      1  0.5350840000000  0.5059380000000  0.5376850000000 1.0
C      1  0.4338340000000  0.5689380000000  0.4272600000000 1.0
C      1  0.5733780000000  0.5381450000000  0.4757450000000 1.0
C      1  0.4546730000000  0.4335590000000  0.5198730000000 1.0
C      1  0.5347350000000  0.4288010000000  0.4761460000000 1.0
C      1  0.5007690000000  0.4830920000000  0.5079640000000 1.0
C      1  0.5068790000000  0.4861210000000  0.5759920000000 1.0
C      1  0.5212920000000  0.4692450000000  0.4418600000000 1.0
C      1  0.4334150000000  0.5355480000000  0.4653800000000 1.0
C      1  0.4935600000000  0.4830040000000  0.4797400000000 1.0
C      1  0.5483100000000  0.4705550000000  0.4505850000000 1.0
C      1  0.4939030000000  0.5728080000000  0.5284140000000 1.0
C      1  0.5065250000000  0.5417800000000  0.4795870000000 1.0
C      1  0.4845490000000  0.5029250000000  0.5734890000000 1.0
C      1  0.5809790000000  0.6008160000000  0.4925740000000 1.0
C      1  0.4833290000000  0.4231010000000  0.4816270000000 1.0
C      1  0.5134120000000  0.5297930000000  0.5023410000000 1.0
C      1  0.5915630000000  0.5761960000000  0.5004230000000 1.0
C      1  0.6179620000000  0.5743350000000  0.5093280000000 1.0
C      1  0.4466830000000  0.5538230000000  0.4475910000000 1.0
C      1  0.5626630000000  0.4944810000000  0.4489390000000 1.0
C      1  0.5071930000000  0.4354840000000  0.4733070000000 1.0
C      1  0.5601630000000  0.5165150000000  0.5289890000000 1.0
C      1  0.5097800000000  0.4742580000000  0.4169450000000 1.0
C      1  0.3623850000000  0.4253010000000  0.5428740000000 1.0
C      1  0.5826650000000  0.4759450000000  0.5031690000000 1.0
C      1  0.4992440000000  0.4575510000000  0.5740460000000 1.0
C      1  0.4402560000000  0.5650660000000  0.4010000000000 1.0
C      1  0.5039660000000  0.4620950000000  0.4635240000000 1.0
C      1  0.4507350000000  0.4777410000000  0.5434340000000 1.0
C      1  0.5601130000000  0.4445760000000  0.5518990000000 1.0
C      1  0.4561850000000  0.3947860000000  0.5485690000000 1.0
C      1  0.4340840000000  0.5074680000000  0.4570490000000 1.0
C      1  0.4936030000000  0.4616710000000  0.5263180000000 1.0
C      1  0.4655460000000  0.4574950000000  0.5305110000000 1.0
C      1  0.4564130000000  0.5497130000000  0.5488070000000 1.0
C      1  0.4250950000000  0.4867600000000  0.5334590000000 1.0
C      1  0.5699730000000  0.5182840000000  0.4583750000000 1.0
C      1  0.4721630000000  0.5314140000000  0.4142390000000 1.0
C      1  0.5372750000000  0.4601420000000  0.5509310000000 1.0
C      1  0.5149370000000  0.5062790000000  0.5174000000000 1.0
C      1  0.4160710000000  0.5305460000000  0.5114360000000 1.0
C      1  0.4517760000000  0.5615540000000  0.5032230000000 1.0
C      1  0.4869890000000  0.4851220000000  0.4078270000000 1.0
C      1  0.4417240000000  0.4144610000000  0.5362460000000 1.0
C      1  0.4810220000000  0.5038540000000  0.4649580000000 1.0
C      1  0.5545240000000  0.4506310000000  0.4699460000000 1.0
C      1  0.4319640000000  0.5440010000000  0.4924890000000 1.0
END
