TITL C-599894-471-632 -0.00856691537110325 125000 -189.71147752416 0 0 32 (C1) n - 1
REM
REM in /home/nfs/bkarasulu/CARBON/AIRSS/Generating-Clusters/TERSOFF/Only-C1/FIRE-HFTN
REM
REM
REM
REM
REM
REM ./C.cell (11c1c37f851c82e70ff6c80c92926a4b)
REM AIRSS Version 0.9.1 bugfix July 2018 build 013d7b7c2542+ Fri, 06 Jul 2018 19:26:36 +0100
REM compiler GCC version 9.2.1 20190827 (Red Hat 9.2.1-1)
REM options -cpp -mtune=generic -march=x86-64 -g -O0 -fpre-include=/usr/include/finclude/math-vector-fortran.h
REM seed -1900454483 232193188 1403958519 -1220022420 -1579200607 1901658529 1187429831 -790952343 -835129266 329320991 -774896899 29398766 -966423915 1131767844 249119683 -229626429 -740679995 1533473914 967022759 1924689597 1794554303 -2146976998 -1627092274 2012471903 377802347 -1485991970 -1358287545 68611457 483357288 -732997618 1707919939 -1307381256 188610981
REM
CELL 1.54180   50.00000   50.00000   50.00000   90.00000   90.00000   90.00000
LATT -1
SFAC C  
C      1  0.4700860000000  0.5604070000000  0.4465420000000 1.0
C      1  0.5282250000000  0.4371680000000  0.4923220000000 1.0
C      1  0.4492440000000  0.5416800000000  0.4450770000000 1.0
C      1  0.5421980000000  0.4598030000000  0.4944700000000 1.0
C      1  0.4803030000000  0.4349890000000  0.4771870000000 1.0
C      1  0.4968180000000  0.5588660000000  0.5234090000000 1.0
C      1  0.5212290000000  0.4898630000000  0.5527940000000 1.0
C      1  0.4862970000000  0.4685820000000  0.4437070000000 1.0
C      1  0.5547010000000  0.4486220000000  0.6119310000000 1.0
C      1  0.5214740000000  0.5318780000000  0.4923090000000 1.0
C      1  0.5100460000000  0.5027350000000  0.5307420000000 1.0
C      1  0.5161580000000  0.5093590000000  0.4486340000000 1.0
C      1  0.5195690000000  0.5565800000000  0.5068170000000 1.0
C      1  0.4519590000000  0.4802400000000  0.5037180000000 1.0
C      1  0.4802860000000  0.5400060000000  0.5332690000000 1.0
C      1  0.5322930000000  0.4762940000000  0.5726660000000 1.0
C      1  0.4949060000000  0.5515110000000  0.4561190000000 1.0
C      1  0.4703190000000  0.4578360000000  0.4642720000000 1.0
C      1  0.5411610000000  0.4862530000000  0.4978120000000 1.0
C      1  0.4510230000000  0.4751210000000  0.4761300000000 1.0
C      1  0.5125460000000  0.5316470000000  0.4652180000000 1.0
C      1  0.4663430000000  0.5863700000000  0.4389610000000 1.0
C      1  0.5434930000000  0.4624650000000  0.5923010000000 1.0
C      1  0.4377370000000  0.5181090000000  0.4494230000000 1.0
C      1  0.5657250000000  0.4350070000000  0.6312370000000 1.0
C      1  0.4374750000000  0.4936600000000  0.4599650000000 1.0
C      1  0.5384770000000  0.5761240000000  0.5048840000000 1.0
C      1  0.5049520000000  0.4870950000000  0.4392510000000 1.0
C      1  0.5253930000000  0.5075620000000  0.5069610000000 1.0
C      1  0.4830360000000  0.5120170000000  0.5314620000000 1.0
C      1  0.4625800000000  0.4948690000000  0.5232880000000 1.0
C      1  0.5039460000000  0.4272820000000  0.4871220000000 1.0
END
