TITL C-599896-8500-581 2.47738736412203e-05 125000 -142.914734694768 0 0 25 (C1) n - 1
REM
REM in /home/nfs/bkarasulu/CARBON/AIRSS/Generating-Clusters/TERSOFF/Only-C1/FIRE-HFTN
REM
REM
REM
REM
REM
REM ./C.cell (11c1c37f851c82e70ff6c80c92926a4b)
REM AIRSS Version 0.9.1 bugfix July 2018 build 013d7b7c2542+ Fri, 06 Jul 2018 19:26:36 +0100
REM compiler GCC version 9.2.1 20190827 (Red Hat 9.2.1-1)
REM options -cpp -mtune=generic -march=x86-64 -g -O0 -fpre-include=/usr/include/finclude/math-vector-fortran.h
REM seed 1400917955 -598330044 1952386460 929033728 -962515576 135449569 -844195509 1949355035 1879722496 -834165183 -1321058847 366558484 -1204205224 1388686432 -1534933534 -1025276776 1395240346 -1850671432 -883253907 499354618 -80561390 1414045160 700806232 1135860210 -677649477 -1428371965 671983643 -1653139593 971530810 -1174054152 1099267851 -989779956 1613853465
REM
CELL 1.54180   50.00000   50.00000   50.00000   90.00000   90.00000   90.00000
LATT -1
SFAC C  
C      1  0.5118170000000  0.4619120000000  0.5214910000000 1.0
C      1  0.4467030000000  0.4917270000000  0.5331350000000 1.0
C      1  0.4759710000000  0.4608000000000  0.5549630000000 1.0
C      1  0.4943270000000  0.4476960000000  0.5372720000000 1.0
C      1  0.4812010000000  0.5197640000000  0.4916200000000 1.0
C      1  0.4918680000000  0.5080680000000  0.5179540000000 1.0
C      1  0.4519510000000  0.5124190000000  0.4898340000000 1.0
C      1  0.5197950000000  0.5232770000000  0.4576880000000 1.0
C      1  0.5024690000000  0.5637990000000  0.4774820000000 1.0
C      1  0.4964290000000  0.5088000000000  0.4676590000000 1.0
C      1  0.4918130000000  0.4838250000000  0.4548710000000 1.0
C      1  0.4365540000000  0.5001170000000  0.5084250000000 1.0
C      1  0.5196010000000  0.5512880000000  0.4606390000000 1.0
C      1  0.4488920000000  0.4656920000000  0.5453840000000 1.0
C      1  0.5177050000000  0.4917710000000  0.5258010000000 1.0
C      1  0.5349610000000  0.4837020000000  0.4353550000000 1.0
C      1  0.4723160000000  0.5043540000000  0.5401240000000 1.0
C      1  0.5629590000000  0.5060510000000  0.4693120000000 1.0
C      1  0.5435300000000  0.5007420000000  0.5154680000000 1.0
C      1  0.5104190000000  0.4722710000000  0.4386520000000 1.0
C      1  0.5144600000000  0.4930240000000  0.5566940000000 1.0
C      1  0.5614760000000  0.5041270000000  0.4960340000000 1.0
C      1  0.4861880000000  0.4882520000000  0.5616320000000 1.0
C      1  0.5421620000000  0.5067540000000  0.4504360000000 1.0
C      1  0.4844330000000  0.5497690000000  0.4920740000000 1.0
END
