TITL C-599892-9790-171 4.51746071066094 125000 -669.437834815602 0 0 109 (C1) n - 1
REM
REM in /home/nfs/bkarasulu/CARBON/AIRSS/Generating-Clusters/TERSOFF/Only-C1/FIRE-HFTN
REM
REM
REM
REM
REM
REM ./C.cell (11c1c37f851c82e70ff6c80c92926a4b)
REM AIRSS Version 0.9.1 bugfix July 2018 build 013d7b7c2542+ Fri, 06 Jul 2018 19:26:36 +0100
REM compiler GCC version 9.2.1 20190827 (Red Hat 9.2.1-1)
REM options -cpp -mtune=generic -march=x86-64 -g -O0 -fpre-include=/usr/include/finclude/math-vector-fortran.h
REM seed -546872500 833892411 648698339 1489275339 -1633376227 -1472540684 -2110578876 -1611230561 -955181883 147293398 433407700 -547684782 973113460 274948744 956816847 -1726640637 -1926586802 -1751367242 606705315 -692116773 -2053846800 -1416355862 -1231036344 -825893811 -808505608 -1917895054 -1192203674 -1620903465 -146145318 -61334910 -1995413277 -408369824 -1009946301
REM
CELL 1.54180   50.00000   50.00000   50.00000   90.00000   90.00000   90.00000
LATT -1
SFAC C  
C      1  0.6242620000000  0.5047350000000  0.4819160000000 1.0
C      1  0.5314180000000  0.5296220000000  0.4769870000000 1.0
C      1  0.4567440000000  0.4319640000000  0.5513690000000 1.0
C      1  0.4024490000000  0.4935960000000  0.5241210000000 1.0
C      1  0.5480270000000  0.5729610000000  0.4519900000000 1.0
C      1  0.5649990000000  0.4585370000000  0.5664710000000 1.0
C      1  0.5143160000000  0.5414790000000  0.5239000000000 1.0
C      1  0.5782600000000  0.5133250000000  0.5609120000000 1.0
C      1  0.4416380000000  0.5898890000000  0.6467690000000 1.0
C      1  0.3991120000000  0.4246500000000  0.4580230000000 1.0
C      1  0.4458140000000  0.5253610000000  0.6005360000000 1.0
C      1  0.5180310000000  0.5055840000000  0.4842800000000 1.0
C      1  0.5051300000000  0.4406900000000  0.5339320000000 1.0
C      1  0.4095900000000  0.4713530000000  0.5063860000000 1.0
C      1  0.6046370000000  0.4566040000000  0.5032120000000 1.0
C      1  0.5302270000000  0.4393390000000  0.4885920000000 1.0
C      1  0.5689860000000  0.5385130000000  0.5491550000000 1.0
C      1  0.5337530000000  0.5179320000000  0.4267840000000 1.0
C      1  0.4573750000000  0.4418350000000  0.5067940000000 1.0
C      1  0.5075590000000  0.3960840000000  0.4781840000000 1.0
C      1  0.4234340000000  0.4683990000000  0.5625880000000 1.0
C      1  0.4443150000000  0.5467960000000  0.6160210000000 1.0
C      1  0.4555300000000  0.5153690000000  0.4130000000000 1.0
C      1  0.5114510000000  0.4231640000000  0.4740890000000 1.0
C      1  0.4157210000000  0.4049280000000  0.4513360000000 1.0
C      1  0.4414910000000  0.4937310000000  0.4264370000000 1.0
C      1  0.4008890000000  0.4739390000000  0.4783120000000 1.0
C      1  0.5022270000000  0.5838020000000  0.4675990000000 1.0
C      1  0.4602240000000  0.5264650000000  0.4780670000000 1.0
C      1  0.5195530000000  0.5736510000000  0.4460260000000 1.0
C      1  0.4482520000000  0.5037640000000  0.5832320000000 1.0
C      1  0.4908520000000  0.5812290000000  0.5144660000000 1.0
C      1  0.5785190000000  0.5757190000000  0.5178230000000 1.0
C      1  0.5347110000000  0.4631610000000  0.5685890000000 1.0
C      1  0.4387100000000  0.5243540000000  0.5225640000000 1.0
C      1  0.6070240000000  0.5087210000000  0.5041400000000 1.0
C      1  0.5074710000000  0.4554590000000  0.5595890000000 1.0
C      1  0.4626430000000  0.4513950000000  0.4273740000000 1.0
C      1  0.4279430000000  0.4968010000000  0.5644560000000 1.0
C      1  0.4819610000000  0.5459800000000  0.4443470000000 1.0
C      1  0.4538240000000  0.5452660000000  0.5022370000000 1.0
C      1  0.4011480000000  0.5254490000000  0.4659740000000 1.0
C      1  0.6130450000000  0.4861150000000  0.4639180000000 1.0
C      1  0.5980340000000  0.4832690000000  0.5132970000000 1.0
C      1  0.5745530000000  0.5192320000000  0.4563550000000 1.0
C      1  0.4408190000000  0.5400960000000  0.4150780000000 1.0
C      1  0.4139640000000  0.4936550000000  0.4339820000000 1.0
C      1  0.4025490000000  0.4974450000000  0.4602960000000 1.0
C      1  0.5218580000000  0.5596780000000  0.5447480000000 1.0
C      1  0.5336130000000  0.4625950000000  0.4712650000000 1.0
C      1  0.4722090000000  0.5805210000000  0.4710300000000 1.0
C      1  0.4403230000000  0.6110850000000  0.6618910000000 1.0
C      1  0.5002030000000  0.5167790000000  0.5267440000000 1.0
C      1  0.4605450000000  0.5646930000000  0.4501090000000 1.0
C      1  0.5180520000000  0.5001370000000  0.5112140000000 1.0
C      1  0.5039750000000  0.3709780000000  0.4841810000000 1.0
C      1  0.4567510000000  0.4771990000000  0.4698230000000 1.0
C      1  0.4715030000000  0.4872360000000  0.5827550000000 1.0
C      1  0.4995740000000  0.4970490000000  0.4635070000000 1.0
C      1  0.5463510000000  0.5225980000000  0.4520860000000 1.0
C      1  0.4651230000000  0.4057430000000  0.4399530000000 1.0
C      1  0.4776570000000  0.4307280000000  0.4382300000000 1.0
C      1  0.4359750000000  0.5552370000000  0.4391840000000 1.0
C      1  0.5753220000000  0.4792130000000  0.5282160000000 1.0
C      1  0.4664000000000  0.5718470000000  0.4998050000000 1.0
C      1  0.5903200000000  0.5320560000000  0.5025670000000 1.0
C      1  0.4188570000000  0.5119970000000  0.5410540000000 1.0
C      1  0.5235420000000  0.5500910000000  0.4967170000000 1.0
C      1  0.5304200000000  0.4451490000000  0.5163050000000 1.0
C      1  0.4684600000000  0.4840120000000  0.5167060000000 1.0
C      1  0.4429750000000  0.5683390000000  0.6313940000000 1.0
C      1  0.4466180000000  0.5000460000000  0.5096000000000 1.0
C      1  0.4290520000000  0.4501190000000  0.5169630000000 1.0
C      1  0.4553920000000  0.4742470000000  0.4413910000000 1.0
C      1  0.5103850000000  0.5295150000000  0.4152280000000 1.0
C      1  0.5740650000000  0.5844790000000  0.4925090000000 1.0
C      1  0.5331960000000  0.4890820000000  0.5314230000000 1.0
C      1  0.4877230000000  0.4786410000000  0.5612390000000 1.0
C      1  0.5356300000000  0.5365290000000  0.5835850000000 1.0
C      1  0.5884790000000  0.4488180000000  0.4546570000000 1.0
C      1  0.5053390000000  0.5538740000000  0.4304980000000 1.0
C      1  0.4758960000000  0.4325110000000  0.5289060000000 1.0
C      1  0.4323890000000  0.4470650000000  0.5464080000000 1.0
C      1  0.5293170000000  0.5105220000000  0.5809970000000 1.0
C      1  0.4403870000000  0.3969030000000  0.4450760000000 1.0
C      1  0.5778580000000  0.4703680000000  0.4384270000000 1.0
C      1  0.6074720000000  0.4582030000000  0.4744760000000 1.0
C      1  0.5626500000000  0.4673600000000  0.4161310000000 1.0
C      1  0.5441030000000  0.5503160000000  0.5602780000000 1.0
C      1  0.5819170000000  0.5401780000000  0.4751610000000 1.0
C      1  0.5329330000000  0.4918120000000  0.5605380000000 1.0
C      1  0.5492270000000  0.4676410000000  0.5223010000000 1.0
C      1  0.4465200000000  0.5017790000000  0.4812820000000 1.0
C      1  0.4980640000000  0.4403650000000  0.4547530000000 1.0
C      1  0.4847260000000  0.5166830000000  0.4071240000000 1.0
C      1  0.4820150000000  0.5219210000000  0.4598020000000 1.0
C      1  0.5696760000000  0.5669250000000  0.4704610000000 1.0
C      1  0.4837460000000  0.4952870000000  0.5375460000000 1.0
C      1  0.5082890000000  0.4687920000000  0.4573220000000 1.0
C      1  0.5957630000000  0.4380930000000  0.5253340000000 1.0
C      1  0.5889930000000  0.4954140000000  0.4489750000000 1.0
C      1  0.4138680000000  0.5470920000000  0.4553260000000 1.0
C      1  0.5807400000000  0.4385190000000  0.5495010000000 1.0
C      1  0.4684240000000  0.4646750000000  0.4938300000000 1.0
C      1  0.3936560000000  0.4493820000000  0.4662170000000 1.0
C      1  0.5117850000000  0.5763730000000  0.4936480000000 1.0
C      1  0.5770660000000  0.4849740000000  0.5565760000000 1.0
C      1  0.5808240000000  0.5482000000000  0.5248160000000 1.0
C      1  0.5026230000000  0.5809270000000  0.5407050000000 1.0
END
