TITL C-599893-4344-1147 0.000328309493818146 125000 -1005.81394337956 0 0 166 (C1) n - 1
REM
REM in /home/nfs/bkarasulu/CARBON/AIRSS/Generating-Clusters/TERSOFF/Only-C1/FIRE-HFTN
REM
REM
REM
REM
REM
REM ./C.cell (11c1c37f851c82e70ff6c80c92926a4b)
REM AIRSS Version 0.9.1 bugfix July 2018 build 013d7b7c2542+ Fri, 06 Jul 2018 19:26:36 +0100
REM compiler GCC version 9.2.1 20190827 (Red Hat 9.2.1-1)
REM options -cpp -mtune=generic -march=x86-64 -g -O0 -fpre-include=/usr/include/finclude/math-vector-fortran.h
REM seed -1319318212 -1994136714 2062269981 990310289 1427265180 -492141832 1163700851 -1087213072 1667008097 -1313335888 2079181185 1865283285 93686109 910563945 259735901 -954085700 -810660806 750235360 -436152450 702044888 -1699478468 2036734882 -1474907003 -1282544816 155218145 98386109 861603209 -1699487627 -757901414 483511027 880334771 -2055029785 363846284
REM
CELL 1.54180   50.00000   50.00000   50.00000   90.00000   90.00000   90.00000
LATT -1
SFAC C  
C      1  0.5905760000000  0.5311220000000  0.4304280000000 1.0
C      1  0.4221950000000  0.5154580000000  0.5739490000000 1.0
C      1  0.5892560000000  0.4204540000000  0.5016980000000 1.0
C      1  0.4593520000000  0.4454190000000  0.6019210000000 1.0
C      1  0.4134910000000  0.4099270000000  0.4458250000000 1.0
C      1  0.6147160000000  0.5566950000000  0.4632860000000 1.0
C      1  0.6123340000000  0.5649320000000  0.5139540000000 1.0
C      1  0.4701970000000  0.5932750000000  0.5200340000000 1.0
C      1  0.4086160000000  0.4494490000000  0.5380210000000 1.0
C      1  0.4988250000000  0.5086370000000  0.5567620000000 1.0
C      1  0.5118040000000  0.5242200000000  0.4956510000000 1.0
C      1  0.5595040000000  0.5961150000000  0.5026480000000 1.0
C      1  0.4952690000000  0.4330310000000  0.5047150000000 1.0
C      1  0.5166360000000  0.4355800000000  0.4332140000000 1.0
C      1  0.4954100000000  0.3972390000000  0.5387330000000 1.0
C      1  0.4937660000000  0.5498120000000  0.3880630000000 1.0
C      1  0.5459010000000  0.5577960000000  0.3816210000000 1.0
C      1  0.5187860000000  0.4824440000000  0.5981450000000 1.0
C      1  0.5204150000000  0.4661950000000  0.5510080000000 1.0
C      1  0.6139300000000  0.4161980000000  0.5122590000000 1.0
C      1  0.4930420000000  0.4785910000000  0.5498210000000 1.0
C      1  0.4936240000000  0.5274710000000  0.6019140000000 1.0
C      1  0.4973250000000  0.4618410000000  0.5000060000000 1.0
C      1  0.4783000000000  0.4628810000000  0.6158340000000 1.0
C      1  0.5104860000000  0.6072690000000  0.4501760000000 1.0
C      1  0.5075260000000  0.5635910000000  0.5499590000000 1.0
C      1  0.4025530000000  0.5298580000000  0.5581650000000 1.0
C      1  0.3898370000000  0.4955350000000  0.4421980000000 1.0
C      1  0.4229410000000  0.4907560000000  0.5581460000000 1.0
C      1  0.3933520000000  0.5009120000000  0.4889010000000 1.0
C      1  0.5082600000000  0.5502190000000  0.4809090000000 1.0
C      1  0.4310870000000  0.3953110000000  0.4948160000000 1.0
C      1  0.4592430000000  0.5408010000000  0.5260390000000 1.0
C      1  0.5405820000000  0.4089920000000  0.5615540000000 1.0
C      1  0.5506610000000  0.5734460000000  0.5172440000000 1.0
C      1  0.4903270000000  0.5095870000000  0.5098760000000 1.0
C      1  0.4801720000000  0.5233270000000  0.5330210000000 1.0
C      1  0.4989620000000  0.4119810000000  0.4344770000000 1.0
C      1  0.4046630000000  0.5357850000000  0.4193830000000 1.0
C      1  0.5457230000000  0.5953130000000  0.5600070000000 1.0
C      1  0.3917350000000  0.5284710000000  0.4740410000000 1.0
C      1  0.5618160000000  0.5255400000000  0.5855740000000 1.0
C      1  0.5565630000000  0.6178210000000  0.4479970000000 1.0
C      1  0.4458930000000  0.5296450000000  0.5862840000000 1.0
C      1  0.5952150000000  0.5372940000000  0.5546380000000 1.0
C      1  0.5071450000000  0.4869020000000  0.4292060000000 1.0
C      1  0.5456660000000  0.4842440000000  0.6086590000000 1.0
C      1  0.4219800000000  0.4982250000000  0.3872580000000 1.0
C      1  0.4122150000000  0.4547840000000  0.4643850000000 1.0
C      1  0.5050370000000  0.5058660000000  0.5867010000000 1.0
C      1  0.3964820000000  0.4986620000000  0.5182940000000 1.0
C      1  0.6147310000000  0.5687570000000  0.4873280000000 1.0
C      1  0.5563560000000  0.4052250000000  0.5385060000000 1.0
C      1  0.5545220000000  0.5107360000000  0.4838840000000 1.0
C      1  0.4326130000000  0.5743360000000  0.4350540000000 1.0
C      1  0.4782870000000  0.5649190000000  0.5580340000000 1.0
C      1  0.4659140000000  0.5179330000000  0.6056970000000 1.0
C      1  0.5719390000000  0.5900410000000  0.4068940000000 1.0
C      1  0.5392150000000  0.4711590000000  0.5304060000000 1.0
C      1  0.4069720000000  0.5237260000000  0.5302180000000 1.0
C      1  0.4061320000000  0.4841620000000  0.4653510000000 1.0
C      1  0.5192580000000  0.5557860000000  0.3766670000000 1.0
C      1  0.4735740000000  0.4634550000000  0.4809840000000 1.0
C      1  0.5117430000000  0.4103650000000  0.5609640000000 1.0
C      1  0.4376360000000  0.5268680000000  0.4715220000000 1.0
C      1  0.4523820000000  0.5686820000000  0.4524320000000 1.0
C      1  0.5374600000000  0.6119370000000  0.4929650000000 1.0
C      1  0.5240850000000  0.4894260000000  0.4520210000000 1.0
C      1  0.4471680000000  0.4846610000000  0.5454090000000 1.0
C      1  0.4965230000000  0.5395480000000  0.4145860000000 1.0
C      1  0.4059650000000  0.5165900000000  0.3981800000000 1.0
C      1  0.5644040000000  0.4110530000000  0.5124120000000 1.0
C      1  0.4339260000000  0.5296400000000  0.5224720000000 1.0
C      1  0.5053920000000  0.3899830000000  0.5097920000000 1.0
C      1  0.5101920000000  0.5504140000000  0.6041260000000 1.0
C      1  0.5024810000000  0.4593110000000  0.4203690000000 1.0
C      1  0.5253480000000  0.5165580000000  0.5469270000000 1.0
C      1  0.4865040000000  0.4813870000000  0.5193220000000 1.0
C      1  0.4198880000000  0.3727360000000  0.5014170000000 1.0
C      1  0.5035100000000  0.4578200000000  0.6008360000000 1.0
C      1  0.5179180000000  0.6114610000000  0.5148180000000 1.0
C      1  0.4150150000000  0.5430210000000  0.4837330000000 1.0
C      1  0.4984640000000  0.4283610000000  0.5810020000000 1.0
C      1  0.5537820000000  0.4164670000000  0.5852550000000 1.0
C      1  0.4061510000000  0.4407690000000  0.5114610000000 1.0
C      1  0.5297150000000  0.5581730000000  0.5293800000000 1.0
C      1  0.3911750000000  0.5249420000000  0.4435330000000 1.0
C      1  0.4328130000000  0.4394930000000  0.4156230000000 1.0
C      1  0.4180630000000  0.5722980000000  0.5309870000000 1.0
C      1  0.4127610000000  0.4389950000000  0.4394960000000 1.0
C      1  0.5529800000000  0.5719800000000  0.5763090000000 1.0
C      1  0.5338430000000  0.6149450000000  0.4646060000000 1.0
C      1  0.6053450000000  0.4863850000000  0.4838220000000 1.0
C      1  0.4777680000000  0.4192500000000  0.4147650000000 1.0
C      1  0.4694610000000  0.4252090000000  0.5835130000000 1.0
C      1  0.5452460000000  0.5432270000000  0.4488230000000 1.0
C      1  0.4294270000000  0.5692600000000  0.5565420000000 1.0
C      1  0.5562240000000  0.4258910000000  0.4674820000000 1.0
C      1  0.5277640000000  0.4656810000000  0.5048390000000 1.0
C      1  0.6187240000000  0.5094040000000  0.4691450000000 1.0
C      1  0.6226010000000  0.5184900000000  0.5163510000000 1.0
C      1  0.5961820000000  0.4610940000000  0.4743840000000 1.0
C      1  0.4973060000000  0.5114010000000  0.4187650000000 1.0
C      1  0.4273710000000  0.4330480000000  0.5536680000000 1.0
C      1  0.5837500000000  0.4353810000000  0.4769740000000 1.0
C      1  0.4666360000000  0.5552900000000  0.3815340000000 1.0
C      1  0.4659010000000  0.5680560000000  0.5313110000000 1.0
C      1  0.5193590000000  0.5504450000000  0.4548950000000 1.0
C      1  0.4526170000000  0.5562200000000  0.5729740000000 1.0
C      1  0.4411990000000  0.4798630000000  0.3890900000000 1.0
C      1  0.5550050000000  0.5133200000000  0.5119430000000 1.0
C      1  0.5686880000000  0.6080440000000  0.4262900000000 1.0
C      1  0.4415610000000  0.5564860000000  0.3918650000000 1.0
C      1  0.6102100000000  0.5309230000000  0.4513880000000 1.0
C      1  0.5308390000000  0.5293450000000  0.5207190000000 1.0
C      1  0.4684730000000  0.4098270000000  0.5367310000000 1.0
C      1  0.5600130000000  0.5090540000000  0.6083060000000 1.0
C      1  0.5175400000000  0.4156970000000  0.5020020000000 1.0
C      1  0.4633730000000  0.4535460000000  0.4562980000000 1.0
C      1  0.4342840000000  0.4988420000000  0.4609060000000 1.0
C      1  0.5406130000000  0.4671580000000  0.4575390000000 1.0
C      1  0.5463750000000  0.4665140000000  0.4846610000000 1.0
C      1  0.4974850000000  0.3807480000000  0.4823950000000 1.0
C      1  0.4488130000000  0.4642550000000  0.5839110000000 1.0
C      1  0.4421920000000  0.4052530000000  0.4442540000000 1.0
C      1  0.5400540000000  0.4404380000000  0.4480940000000 1.0
C      1  0.5844120000000  0.6071120000000  0.5030750000000 1.0
C      1  0.4497750000000  0.4139170000000  0.4178800000000 1.0
C      1  0.5460740000000  0.5149110000000  0.5648600000000 1.0
C      1  0.5317390000000  0.5645840000000  0.5953930000000 1.0
C      1  0.5438730000000  0.4152780000000  0.4923440000000 1.0
C      1  0.5952550000000  0.5075900000000  0.5570360000000 1.0
C      1  0.5033090000000  0.5595380000000  0.4338060000000 1.0
C      1  0.5001990000000  0.5877450000000  0.4344320000000 1.0
C      1  0.5646320000000  0.5274440000000  0.4401470000000 1.0
C      1  0.4031750000000  0.4781560000000  0.5403520000000 1.0
C      1  0.4516130000000  0.4578550000000  0.4025480000000 1.0
C      1  0.4686650000000  0.4226630000000  0.5108580000000 1.0
C      1  0.4661290000000  0.4743360000000  0.5635330000000 1.0
C      1  0.4789770000000  0.4485190000000  0.4069400000000 1.0
C      1  0.4559820000000  0.4241940000000  0.4619600000000 1.0
C      1  0.5699540000000  0.5641060000000  0.3958110000000 1.0
C      1  0.4996300000000  0.5747750000000  0.4902710000000 1.0
C      1  0.5613050000000  0.4898020000000  0.5280130000000 1.0
C      1  0.6064080000000  0.4937220000000  0.5130410000000 1.0
C      1  0.4945780000000  0.5968700000000  0.5070300000000 1.0
C      1  0.4981410000000  0.3924850000000  0.4566960000000 1.0
C      1  0.4482510000000  0.4669820000000  0.4966530000000 1.0
C      1  0.5299130000000  0.6091850000000  0.5418360000000 1.0
C      1  0.4580450000000  0.5444810000000  0.4630890000000 1.0
C      1  0.5740050000000  0.5498180000000  0.5730880000000 1.0
C      1  0.4677400000000  0.4909060000000  0.6186380000000 1.0
C      1  0.4509800000000  0.4787530000000  0.4464730000000 1.0
C      1  0.5613010000000  0.4349310000000  0.6029190000000 1.0
C      1  0.6114560000000  0.5419490000000  0.5303170000000 1.0
C      1  0.4555160000000  0.4802780000000  0.5197930000000 1.0
C      1  0.4534250000000  0.4202350000000  0.5589490000000 1.0
C      1  0.4267130000000  0.4456350000000  0.4908120000000 1.0
C      1  0.4235950000000  0.5574080000000  0.4144550000000 1.0
C      1  0.5894000000000  0.5451520000000  0.4055180000000 1.0
C      1  0.4143980000000  0.5639240000000  0.5045020000000 1.0
C      1  0.5271280000000  0.5080880000000  0.4737190000000 1.0
C      1  0.4459170000000  0.4206540000000  0.4904780000000 1.0
C      1  0.5591320000000  0.4598470000000  0.6121930000000 1.0
C      1  0.5886340000000  0.4901340000000  0.5351590000000 1.0
C      1  0.6360380000000  0.5199570000000  0.4908140000000 1.0
END
