TITL C-599894-471-1223 12.0254743183698 125000 -78.9828244815883 0 0 15 (C1) n - 1
REM
REM in /home/nfs/bkarasulu/CARBON/AIRSS/Generating-Clusters/TERSOFF/Only-C1/FIRE-HFTN
REM
REM
REM
REM
REM
REM ./C.cell (11c1c37f851c82e70ff6c80c92926a4b)
REM AIRSS Version 0.9.1 bugfix July 2018 build 013d7b7c2542+ Fri, 06 Jul 2018 19:26:36 +0100
REM compiler GCC version 9.2.1 20190827 (Red Hat 9.2.1-1)
REM options -cpp -mtune=generic -march=x86-64 -g -O0 -fpre-include=/usr/include/finclude/math-vector-fortran.h
REM seed -564233432 -962248260 -431749965 -1760740878 -1264641915 -178056378 2113694030 -1605009156 -1244197631 -1247397885 1688833756 1996397865 604031250 2118035629 -1180003150 -2018723091 40484310 -1738615686 -1269333141 779651753 -1179107145 -693138725 1242576530 134768418 -2022039768 878025457 -375974978 -502347975 153214523 -969996213 -575572233 -3092034 459644708
REM
CELL 1.54180   50.00000   50.00000   50.00000   90.00000   90.00000   90.00000
LATT -1
SFAC C  
C      1  0.4350260000000  0.5068940000000  0.5144620000000 1.0
C      1  0.4649670000000  0.4551110000000  0.5403000000000 1.0
C      1  0.4598760000000  0.4365680000000  0.4703340000000 1.0
C      1  0.4595780000000  0.4948770000000  0.5132700000000 1.0
C      1  0.4827480000000  0.5100890000000  0.5096450000000 1.0
C      1  0.4589340000000  0.4225060000000  0.4484020000000 1.0
C      1  0.5526620000000  0.5247400000000  0.4974100000000 1.0
C      1  0.5282240000000  0.5921850000000  0.5049780000000 1.0
C      1  0.5050880000000  0.5238580000000  0.5061440000000 1.0
C      1  0.5976830000000  0.4993120000000  0.4879510000000 1.0
C      1  0.5287370000000  0.5382500000000  0.5024360000000 1.0
C      1  0.4608300000000  0.4509050000000  0.4925920000000 1.0
C      1  0.5753540000000  0.5119220000000  0.4926430000000 1.0
C      1  0.4618310000000  0.4666310000000  0.5156810000000 1.0
C      1  0.5284610000000  0.5661530000000  0.5037530000000 1.0
END
