TITL C-599896-8500-149 -983.867350215131 125000 -1043.37955741899 0 0 170 (C1) n - 1
REM
REM in /home/nfs/bkarasulu/CARBON/AIRSS/Generating-Clusters/TERSOFF/Only-C1/FIRE-HFTN
REM
REM
REM
REM
REM
REM ./C.cell (11c1c37f851c82e70ff6c80c92926a4b)
REM AIRSS Version 0.9.1 bugfix July 2018 build 013d7b7c2542+ Fri, 06 Jul 2018 19:26:36 +0100
REM compiler GCC version 9.2.1 20190827 (Red Hat 9.2.1-1)
REM options -cpp -mtune=generic -march=x86-64 -g -O0 -fpre-include=/usr/include/finclude/math-vector-fortran.h
REM seed 507271144 -891283203 -2084609721 42058569 369802867 78239570 1230835704 -1855978216 -1187441888 1597520982 -1758204329 386727104 -471986143 1861432502 -228457791 1235647201 -590566654 907056583 433488926 781460265 -633456886 -1622890271 -1469521890 863728922 251624084 -1021295892 1201785549 -1769753134 -833774421 -1811382218 -968022241 -932056826 1078027850
REM
CELL 1.54180   50.00000   50.00000   50.00000   90.00000   90.00000   90.00000
LATT -1
SFAC C  
C      1  0.5946160000000  0.5440330000000  0.3957000000000 1.0
C      1  0.5936240000000  0.5091820000000  0.5393100000000 1.0
C      1  0.5552340000000  0.4529430000000  0.5778260000000 1.0
C      1  0.4983700000000  0.3892180000000  0.5491880000000 1.0
C      1  0.4073730000000  0.4310660000000  0.5038970000000 1.0
C      1  0.4243020000000  0.4928940000000  0.4901650000000 1.0
C      1  0.4122900000000  0.4610740000000  0.5843390000000 1.0
C      1  0.4596970000000  0.5671980000000  0.5003940000000 1.0
C      1  0.4131330000000  0.4785750000000  0.4286750000000 1.0
C      1  0.5303250000000  0.5431490000000  0.3544120000000 1.0
C      1  0.4755080000000  0.4641530000000  0.5463320000000 1.0
C      1  0.4648090000000  0.5618400000000  0.5730330000000 1.0
C      1  0.4708070000000  0.5308830000000  0.4724430000000 1.0
C      1  0.5572300000000  0.5926760000000  0.5407560000000 1.0
C      1  0.6081670000000  0.5098840000000  0.4698370000000 1.0
C      1  0.4482160000000  0.3738830000000  0.5336810000000 1.0
C      1  0.5351100000000  0.6137420000000  0.5002750000000 1.0
C      1  0.5715960000000  0.5606880000000  0.4473990000000 1.0
C      1  0.5363920000000  0.4406790000000  0.5188830000000 1.0
C      1  0.4931870000000  0.5289580000000  0.5441440000000 1.0
C      1  0.4494450000000  0.4676630000000  0.5548480000000 1.0
C      1  0.5060020000000  0.4098860000000  0.5679980000000 1.0
C      1  0.4864890000000  0.5562570000000  0.3731970000000 1.0
C      1  0.3890100000000  0.4693800000000  0.5704090000000 1.0
C      1  0.6075290000000  0.5169640000000  0.4412870000000 1.0
C      1  0.5627580000000  0.5820760000000  0.4309920000000 1.0
C      1  0.5303880000000  0.5281780000000  0.3990170000000 1.0
C      1  0.4436450000000  0.5777300000000  0.5590440000000 1.0
C      1  0.5595740000000  0.5347340000000  0.4459440000000 1.0
C      1  0.4839880000000  0.4544710000000  0.5200850000000 1.0
C      1  0.5553150000000  0.5017110000000  0.4991430000000 1.0
C      1  0.4887350000000  0.5796370000000  0.5413960000000 1.0
C      1  0.4774300000000  0.4429260000000  0.4234130000000 1.0
C      1  0.5131510000000  0.5151070000000  0.4522390000000 1.0
C      1  0.4841100000000  0.4972160000000  0.6178220000000 1.0
C      1  0.5978970000000  0.4859320000000  0.4035510000000 1.0
C      1  0.3651790000000  0.4671610000000  0.5282180000000 1.0
C      1  0.4790320000000  0.5245130000000  0.6112840000000 1.0
C      1  0.5695700000000  0.5476790000000  0.5569830000000 1.0
C      1  0.4776560000000  0.4865840000000  0.4020870000000 1.0
C      1  0.4208520000000  0.5400600000000  0.4995950000000 1.0
C      1  0.5334400000000  0.5907080000000  0.3954250000000 1.0
C      1  0.3877340000000  0.4264460000000  0.5444620000000 1.0
C      1  0.6123070000000  0.5264320000000  0.4928580000000 1.0
C      1  0.3580580000000  0.5051900000000  0.5812360000000 1.0
C      1  0.4357060000000  0.3982780000000  0.5894270000000 1.0
C      1  0.4938160000000  0.6052190000000  0.5475200000000 1.0
C      1  0.5434240000000  0.4688290000000  0.4697190000000 1.0
C      1  0.4188120000000  0.5890090000000  0.5065820000000 1.0
C      1  0.5611140000000  0.4628960000000  0.5520690000000 1.0
C      1  0.5866800000000  0.4592900000000  0.5419180000000 1.0
C      1  0.4970360000000  0.4615530000000  0.5639180000000 1.0
C      1  0.5468420000000  0.5266600000000  0.4908020000000 1.0
C      1  0.3886750000000  0.4126270000000  0.5176810000000 1.0
C      1  0.3766180000000  0.4527240000000  0.5497360000000 1.0
C      1  0.5738900000000  0.5194380000000  0.5596560000000 1.0
C      1  0.5383420000000  0.6108040000000  0.5286100000000 1.0
C      1  0.5906920000000  0.5676180000000  0.4666540000000 1.0
C      1  0.6046920000000  0.4980940000000  0.3802790000000 1.0
C      1  0.4586450000000  0.4826770000000  0.6189210000000 1.0
C      1  0.5452960000000  0.3908700000000  0.5377750000000 1.0
C      1  0.5268760000000  0.3990740000000  0.4568740000000 1.0
C      1  0.4168790000000  0.4274950000000  0.5489750000000 1.0
C      1  0.4523860000000  0.5243750000000  0.5990660000000 1.0
C      1  0.4018810000000  0.5169280000000  0.5650080000000 1.0
C      1  0.4410940000000  0.4424590000000  0.4501480000000 1.0
C      1  0.3915510000000  0.4931110000000  0.4272310000000 1.0
C      1  0.5864880000000  0.4449390000000  0.5160240000000 1.0
C      1  0.4405890000000  0.4604230000000  0.5811850000000 1.0
C      1  0.3796270000000  0.5120330000000  0.5033610000000 1.0
C      1  0.4670120000000  0.4296000000000  0.4472110000000 1.0
C      1  0.5045980000000  0.4866760000000  0.5741790000000 1.0
C      1  0.4597180000000  0.4661290000000  0.4140120000000 1.0
C      1  0.5395340000000  0.5462040000000  0.5083440000000 1.0
C      1  0.3826980000000  0.4973980000000  0.5721330000000 1.0
C      1  0.5385600000000  0.5279050000000  0.4640180000000 1.0
C      1  0.5184320000000  0.3863340000000  0.5281030000000 1.0
C      1  0.4698980000000  0.6019910000000  0.3730800000000 1.0
C      1  0.6005810000000  0.4823300000000  0.5335940000000 1.0
C      1  0.5998990000000  0.5914170000000  0.5112590000000 1.0
C      1  0.5681210000000  0.5558990000000  0.3896880000000 1.0
C      1  0.5083480000000  0.4374280000000  0.5258820000000 1.0
C      1  0.5264370000000  0.4040860000000  0.4077460000000 1.0
C      1  0.4067780000000  0.5149260000000  0.4946230000000 1.0
C      1  0.5005400000000  0.5934530000000  0.4331030000000 1.0
C      1  0.5289890000000  0.5340650000000  0.5911880000000 1.0
C      1  0.5004700000000  0.5377400000000  0.4371820000000 1.0
C      1  0.4297140000000  0.4125800000000  0.5684450000000 1.0
C      1  0.3684940000000  0.4874550000000  0.5110800000000 1.0
C      1  0.5353040000000  0.4858870000000  0.5120610000000 1.0
C      1  0.5950190000000  0.4847790000000  0.4781870000000 1.0
C      1  0.5195360000000  0.6003740000000  0.4804570000000 1.0
C      1  0.5041370000000  0.4492280000000  0.4148430000000 1.0
C      1  0.5003850000000  0.5387680000000  0.6013120000000 1.0
C      1  0.4218570000000  0.5360320000000  0.5609840000000 1.0
C      1  0.5202220000000  0.4297880000000  0.4033390000000 1.0
C      1  0.4475140000000  0.4863720000000  0.5084760000000 1.0
C      1  0.6051010000000  0.4694250000000  0.4991790000000 1.0
C      1  0.5514660000000  0.4234020000000  0.5782620000000 1.0
C      1  0.5270280000000  0.4104590000000  0.5875530000000 1.0
C      1  0.3989540000000  0.3859500000000  0.5184810000000 1.0
C      1  0.5480010000000  0.6030030000000  0.4426870000000 1.0
C      1  0.5594590000000  0.4059670000000  0.5559380000000 1.0
C      1  0.5581710000000  0.5789790000000  0.4033510000000 1.0
C      1  0.3673180000000  0.5363370000000  0.5110610000000 1.0
C      1  0.5450860000000  0.4446720000000  0.4558170000000 1.0
C      1  0.5267590000000  0.3896710000000  0.4304410000000 1.0
C      1  0.5054010000000  0.5373990000000  0.4100330000000 1.0
C      1  0.4389640000000  0.5026640000000  0.6118930000000 1.0
C      1  0.4524100000000  0.5377070000000  0.4970610000000 1.0
C      1  0.5422120000000  0.4666770000000  0.5313740000000 1.0
C      1  0.5093310000000  0.3884980000000  0.5009530000000 1.0
C      1  0.4362640000000  0.4635750000000  0.4308400000000 1.0
C      1  0.5479140000000  0.4746430000000  0.5956300000000 1.0
C      1  0.4583350000000  0.4582030000000  0.6044110000000 1.0
C      1  0.5666380000000  0.4848840000000  0.4778500000000 1.0
C      1  0.4353040000000  0.4679280000000  0.5298250000000 1.0
C      1  0.4935030000000  0.5610630000000  0.5832690000000 1.0
C      1  0.4811070000000  0.4121980000000  0.4645460000000 1.0
C      1  0.5199980000000  0.4948370000000  0.4293750000000 1.0
C      1  0.5081190000000  0.5768040000000  0.4903780000000 1.0
C      1  0.5036510000000  0.4779800000000  0.4139410000000 1.0
C      1  0.4652200000000  0.5226650000000  0.5446000000000 1.0
C      1  0.4903020000000  0.5085470000000  0.4712110000000 1.0
C      1  0.5625190000000  0.4135480000000  0.4866540000000 1.0
C      1  0.4789420000000  0.5782300000000  0.4449410000000 1.0
C      1  0.4737150000000  0.4719390000000  0.4998850000000 1.0
C      1  0.5042170000000  0.3984170000000  0.4745280000000 1.0
C      1  0.5147000000000  0.5579490000000  0.5098590000000 1.0
C      1  0.5076160000000  0.4457250000000  0.6183440000000 1.0
C      1  0.4896020000000  0.5125340000000  0.3562590000000 1.0
C      1  0.5213270000000  0.6027020000000  0.4519420000000 1.0
C      1  0.4247030000000  0.4425120000000  0.5242130000000 1.0
C      1  0.4792980000000  0.5506650000000  0.4516830000000 1.0
C      1  0.4937330000000  0.4839260000000  0.4842300000000 1.0
C      1  0.4871420000000  0.5832030000000  0.3831340000000 1.0
C      1  0.6036990000000  0.5249270000000  0.3762920000000 1.0
C      1  0.4450410000000  0.5898930000000  0.4994470000000 1.0
C      1  0.4095700000000  0.5632210000000  0.5189000000000 1.0
C      1  0.5511070000000  0.5693900000000  0.5569780000000 1.0
C      1  0.4228100000000  0.3746040000000  0.5246680000000 1.0
C      1  0.4988750000000  0.5547010000000  0.5325870000000 1.0
C      1  0.6043350000000  0.5267940000000  0.5189630000000 1.0
C      1  0.5244870000000  0.4686110000000  0.6120620000000 1.0
C      1  0.5163940000000  0.6193440000000  0.5440960000000 1.0
C      1  0.5065850000000  0.4354440000000  0.5558200000000 1.0
C      1  0.5470830000000  0.4176700000000  0.4636760000000 1.0
C      1  0.5061260000000  0.5907320000000  0.4039480000000 1.0
C      1  0.6085260000000  0.5403300000000  0.4221910000000 1.0
C      1  0.5624060000000  0.4309900000000  0.5085350000000 1.0
C      1  0.5838580000000  0.5955700000000  0.5320820000000 1.0
C      1  0.5641980000000  0.5128010000000  0.4278310000000 1.0
C      1  0.4510020000000  0.5329740000000  0.5703820000000 1.0
C      1  0.4558940000000  0.5151590000000  0.5185730000000 1.0
C      1  0.5282360000000  0.5638230000000  0.5717600000000 1.0
C      1  0.4782040000000  0.5085790000000  0.3832940000000 1.0
C      1  0.5456120000000  0.5407990000000  0.3785360000000 1.0
C      1  0.4810310000000  0.4417110000000  0.6114140000000 1.0
C      1  0.4722620000000  0.3792820000000  0.5445670000000 1.0
C      1  0.5081140000000  0.5086790000000  0.5566390000000 1.0
C      1  0.5516080000000  0.5082770000000  0.5838990000000 1.0
C      1  0.5017000000000  0.5399590000000  0.3529860000000 1.0
C      1  0.5207770000000  0.4756120000000  0.4878720000000 1.0
C      1  0.5053680000000  0.4874560000000  0.6025560000000 1.0
C      1  0.4218150000000  0.5616520000000  0.5471480000000 1.0
C      1  0.5891000000000  0.4995530000000  0.4265720000000 1.0
C      1  0.3799470000000  0.5589740000000  0.5187910000000 1.0
C      1  0.5410940000000  0.5066640000000  0.4137770000000 1.0
C      1  0.6014960000000  0.5810090000000  0.4868600000000 1.0
C      1  0.4823820000000  0.5357120000000  0.3937730000000 1.0
END
