TITL C-599891-72-27 19998.3446535097 125000 -1175.55285159965 0 0 192 (C1) n - 1
REM
REM in /home/nfs/bkarasulu/CARBON/AIRSS/Generating-Clusters/TERSOFF/Only-C1/FIRE-HFTN
REM
REM
REM
REM
REM
REM ./C.cell (11c1c37f851c82e70ff6c80c92926a4b)
REM AIRSS Version 0.9.1 bugfix July 2018 build 013d7b7c2542+ Fri, 06 Jul 2018 19:26:36 +0100
REM compiler GCC version 9.2.1 20190827 (Red Hat 9.2.1-1)
REM options -cpp -mtune=generic -march=x86-64 -g -O0 -fpre-include=/usr/include/finclude/math-vector-fortran.h
REM seed -1991187862 -666278791 -1311123341 1619022707 1752346719 1553635245 997335171 1342884078 1117940173 588182684 -2117951871 -1353673262 1055970725 1092733995 1904888795 1367032485 -557671511 1719021121 -988601990 -1424481780 1393098772 -1789338572 -2051941055 2052126286 500904496 -728502130 1383295701 372369239 473461049 842184283 97943013 -1016848383 197322806
REM
CELL 1.54180   50.00000   50.00000   50.00000   90.00000   90.00000   90.00000
LATT -1
SFAC C  
C      1  0.4482560000000  0.4778140000000  0.5418260000000 1.0
C      1  0.5049380000000  0.5448030000000  0.4150300000000 1.0
C      1  0.4779150000000  0.4926400000000  0.5065660000000 1.0
C      1  0.4747690000000  0.4682320000000  0.4251940000000 1.0
C      1  0.4557200000000  0.3796910000000  0.4761580000000 1.0
C      1  0.4906540000000  0.5106990000000  0.5234800000000 1.0
C      1  0.5983050000000  0.5149420000000  0.5280270000000 1.0
C      1  0.4757850000000  0.4494980000000  0.6099900000000 1.0
C      1  0.5222360000000  0.4564420000000  0.6125210000000 1.0
C      1  0.3753640000000  0.5874460000000  0.5326800000000 1.0
C      1  0.4430040000000  0.4278440000000  0.5081020000000 1.0
C      1  0.5454170000000  0.4115220000000  0.4246870000000 1.0
C      1  0.5551410000000  0.4710060000000  0.4881660000000 1.0
C      1  0.3982770000000  0.5201080000000  0.4326420000000 1.0
C      1  0.5844630000000  0.5568320000000  0.5017510000000 1.0
C      1  0.5482900000000  0.4667560000000  0.6182260000000 1.0
C      1  0.3987220000000  0.4452920000000  0.5178710000000 1.0
C      1  0.5881550000000  0.4413560000000  0.6022110000000 1.0
C      1  0.4480470000000  0.4476960000000  0.6129690000000 1.0
C      1  0.6048790000000  0.4664640000000  0.5671500000000 1.0
C      1  0.4540230000000  0.5749810000000  0.5694360000000 1.0
C      1  0.4736560000000  0.4091580000000  0.5789880000000 1.0
C      1  0.5109910000000  0.4985490000000  0.4705770000000 1.0
C      1  0.5700420000000  0.4725860000000  0.4636710000000 1.0
C      1  0.5002820000000  0.4482810000000  0.3840120000000 1.0
C      1  0.4884560000000  0.4258270000000  0.5977010000000 1.0
C      1  0.4675800000000  0.4213140000000  0.5217750000000 1.0
C      1  0.4219850000000  0.5196280000000  0.5439250000000 1.0
C      1  0.4425020000000  0.4273930000000  0.4797010000000 1.0
C      1  0.5324600000000  0.5777460000000  0.5647750000000 1.0
C      1  0.4198240000000  0.5644940000000  0.4006710000000 1.0
C      1  0.5307380000000  0.3917600000000  0.4833350000000 1.0
C      1  0.4131680000000  0.4337030000000  0.4251160000000 1.0
C      1  0.4910920000000  0.6071760000000  0.4440310000000 1.0
C      1  0.5482980000000  0.4232670000000  0.5675520000000 1.0
C      1  0.5264920000000  0.5403110000000  0.6139600000000 1.0
C      1  0.5709560000000  0.4650120000000  0.6010080000000 1.0
C      1  0.3792190000000  0.5494180000000  0.5009400000000 1.0
C      1  0.5459140000000  0.5219370000000  0.4235980000000 1.0
C      1  0.6001020000000  0.5070340000000  0.4812740000000 1.0
C      1  0.5713710000000  0.6150350000000  0.3956110000000 1.0
C      1  0.5564470000000  0.5293750000000  0.4487340000000 1.0
C      1  0.4210370000000  0.5215620000000  0.5136760000000 1.0
C      1  0.5639540000000  0.4198070000000  0.5034950000000 1.0
C      1  0.4958650000000  0.4691980000000  0.6147380000000 1.0
C      1  0.4721700000000  0.4150830000000  0.4443590000000 1.0
C      1  0.4779700000000  0.5287760000000  0.5426250000000 1.0
C      1  0.4526420000000  0.5798910000000  0.4416530000000 1.0
C      1  0.4680060000000  0.3756240000000  0.4998680000000 1.0
C      1  0.3917430000000  0.6086060000000  0.5306130000000 1.0
C      1  0.5359820000000  0.5674580000000  0.4892400000000 1.0
C      1  0.4807590000000  0.5783650000000  0.5796990000000 1.0
C      1  0.4615050000000  0.5076550000000  0.4637500000000 1.0
C      1  0.4317280000000  0.4971110000000  0.5003480000000 1.0
C      1  0.4126320000000  0.6011290000000  0.4890670000000 1.0
C      1  0.5340160000000  0.4741990000000  0.4347570000000 1.0
C      1  0.4839070000000  0.4877510000000  0.4093280000000 1.0
C      1  0.4716660000000  0.4470190000000  0.4458790000000 1.0
C      1  0.5124890000000  0.4079680000000  0.4698040000000 1.0
C      1  0.4442300000000  0.5279970000000  0.4221790000000 1.0
C      1  0.5429410000000  0.5186480000000  0.5281310000000 1.0
C      1  0.4232790000000  0.5077480000000  0.4242360000000 1.0
C      1  0.5169780000000  0.4823700000000  0.5575840000000 1.0
C      1  0.4654030000000  0.5493510000000  0.5230810000000 1.0
C      1  0.3829050000000  0.5417810000000  0.5487920000000 1.0
C      1  0.6116950000000  0.4891920000000  0.5230340000000 1.0
C      1  0.5426180000000  0.5507430000000  0.5678970000000 1.0
C      1  0.5635980000000  0.4841360000000  0.3999120000000 1.0
C      1  0.5316530000000  0.3902020000000  0.5313650000000 1.0
C      1  0.4526220000000  0.4048310000000  0.4639430000000 1.0
C      1  0.5565950000000  0.5356640000000  0.5465260000000 1.0
C      1  0.5707090000000  0.5256110000000  0.5975270000000 1.0
C      1  0.4381460000000  0.6250250000000  0.5220180000000 1.0
C      1  0.5551700000000  0.4576350000000  0.4448000000000 1.0
C      1  0.4309530000000  0.4954270000000  0.5551440000000 1.0
C      1  0.4895790000000  0.4844180000000  0.5628680000000 1.0
C      1  0.5307880000000  0.5404460000000  0.4087460000000 1.0
C      1  0.3751780000000  0.5530690000000  0.4715690000000 1.0
C      1  0.4960190000000  0.5948320000000  0.4674110000000 1.0
C      1  0.5108410000000  0.5278160000000  0.4603860000000 1.0
C      1  0.4859790000000  0.5024720000000  0.3871560000000 1.0
C      1  0.4756870000000  0.5222900000000  0.3724800000000 1.0
C      1  0.4642510000000  0.5313840000000  0.4454570000000 1.0
C      1  0.3755060000000  0.5599320000000  0.5272890000000 1.0
C      1  0.4101270000000  0.5797910000000  0.4207690000000 1.0
C      1  0.4617050000000  0.5580850000000  0.4620790000000 1.0
C      1  0.4441380000000  0.4569890000000  0.3967380000000 1.0
C      1  0.4971830000000  0.4525150000000  0.4613530000000 1.0
C      1  0.4768020000000  0.4401790000000  0.5409470000000 1.0
C      1  0.4137460000000  0.6138980000000  0.5139780000000 1.0
C      1  0.3835560000000  0.4836890000000  0.4682900000000 1.0
C      1  0.6085910000000  0.4413100000000  0.5823260000000 1.0
C      1  0.3850580000000  0.4653540000000  0.5330370000000 1.0
C      1  0.6142760000000  0.4495240000000  0.4515500000000 1.0
C      1  0.5829570000000  0.5099440000000  0.5773480000000 1.0
C      1  0.5894980000000  0.5739410000000  0.5240240000000 1.0
C      1  0.5534910000000  0.5944090000000  0.5547120000000 1.0
C      1  0.4291660000000  0.4798210000000  0.4207230000000 1.0
C      1  0.6029250000000  0.4431940000000  0.4272280000000 1.0
C      1  0.5470730000000  0.5408230000000  0.5947240000000 1.0
C      1  0.4990660000000  0.5901060000000  0.5168610000000 1.0
C      1  0.5288800000000  0.4415250000000  0.3894420000000 1.0
C      1  0.5846530000000  0.4820740000000  0.5808640000000 1.0
C      1  0.4699960000000  0.5983820000000  0.4296970000000 1.0
C      1  0.5452020000000  0.3976520000000  0.5070100000000 1.0
C      1  0.4892690000000  0.6128020000000  0.5305580000000 1.0
C      1  0.5894120000000  0.4958970000000  0.4046050000000 1.0
C      1  0.4520100000000  0.4840110000000  0.5144990000000 1.0
C      1  0.4851190000000  0.5652080000000  0.6039100000000 1.0
C      1  0.5656930000000  0.6195250000000  0.4219800000000 1.0
C      1  0.4362130000000  0.4998530000000  0.4728210000000 1.0
C      1  0.4786820000000  0.3618160000000  0.5713740000000 1.0
C      1  0.5616540000000  0.4561580000000  0.3943050000000 1.0
C      1  0.4212430000000  0.4299870000000  0.5269230000000 1.0
C      1  0.4446100000000  0.4494990000000  0.4605760000000 1.0
C      1  0.4241140000000  0.5841080000000  0.4445760000000 1.0
C      1  0.4870940000000  0.5672120000000  0.4781950000000 1.0
C      1  0.4278280000000  0.4185460000000  0.5523850000000 1.0
C      1  0.6194500000000  0.4709740000000  0.5429860000000 1.0
C      1  0.5122360000000  0.4750740000000  0.4521730000000 1.0
C      1  0.6190380000000  0.4619210000000  0.4757900000000 1.0
C      1  0.5333260000000  0.4464380000000  0.5222080000000 1.0
C      1  0.4445050000000  0.4160360000000  0.5756490000000 1.0
C      1  0.5559760000000  0.5273600000000  0.4756460000000 1.0
C      1  0.5329120000000  0.4160560000000  0.4012180000000 1.0
C      1  0.5063140000000  0.4339700000000  0.4804930000000 1.0
C      1  0.3750090000000  0.4886640000000  0.5425960000000 1.0
C      1  0.4929260000000  0.4968760000000  0.6181700000000 1.0
C      1  0.5531430000000  0.4756650000000  0.6438340000000 1.0
C      1  0.4380240000000  0.5590480000000  0.4825040000000 1.0
C      1  0.4299220000000  0.5626650000000  0.5658050000000 1.0
C      1  0.4880920000000  0.3872680000000  0.5664080000000 1.0
C      1  0.5730330000000  0.5841080000000  0.4620580000000 1.0
C      1  0.5826780000000  0.5223580000000  0.5513060000000 1.0
C      1  0.3945430000000  0.4439610000000  0.4896100000000 1.0
C      1  0.5069130000000  0.5073480000000  0.6411400000000 1.0
C      1  0.5102510000000  0.4417100000000  0.5071440000000 1.0
C      1  0.4112460000000  0.5429760000000  0.5568270000000 1.0
C      1  0.4646910000000  0.6247470000000  0.5246640000000 1.0
C      1  0.4570550000000  0.5409650000000  0.3772400000000 1.0
C      1  0.5524810000000  0.6428860000000  0.4298690000000 1.0
C      1  0.4403620000000  0.5449200000000  0.5076240000000 1.0
C      1  0.4933480000000  0.5329380000000  0.4376440000000 1.0
C      1  0.4754270000000  0.3946130000000  0.5174910000000 1.0
C      1  0.3935370000000  0.5238240000000  0.5009380000000 1.0
C      1  0.5266520000000  0.5260920000000  0.6385170000000 1.0
C      1  0.5435490000000  0.4943030000000  0.4170190000000 1.0
C      1  0.4876690000000  0.5170710000000  0.5972570000000 1.0
C      1  0.5544250000000  0.4297210000000  0.4423390000000 1.0
C      1  0.3970990000000  0.4595190000000  0.4659290000000 1.0
C      1  0.4819290000000  0.5686140000000  0.5086500000000 1.0
C      1  0.5763560000000  0.5901220000000  0.5410590000000 1.0
C      1  0.5167770000000  0.4292670000000  0.6029840000000 1.0
C      1  0.5399750000000  0.4394330000000  0.5481490000000 1.0
C      1  0.4826750000000  0.4971240000000  0.4795890000000 1.0
C      1  0.4189740000000  0.4558440000000  0.4449510000000 1.0
C      1  0.5142290000000  0.5517710000000  0.4763410000000 1.0
C      1  0.6412940000000  0.4531660000000  0.5387910000000 1.0
C      1  0.4266610000000  0.4347390000000  0.4010890000000 1.0
C      1  0.6140330000000  0.4837830000000  0.4942990000000 1.0
C      1  0.6458920000000  0.4309000000000  0.5536350000000 1.0
C      1  0.5008420000000  0.6144760000000  0.5561030000000 1.0
C      1  0.5879800000000  0.4947900000000  0.4572760000000 1.0
C      1  0.5054870000000  0.5894750000000  0.5689190000000 1.0
C      1  0.4200470000000  0.5799880000000  0.4727150000000 1.0
C      1  0.4996340000000  0.5418720000000  0.6044550000000 1.0
C      1  0.4973780000000  0.4023360000000  0.4465720000000 1.0
C      1  0.4814320000000  0.5123680000000  0.5691070000000 1.0
C      1  0.5116460000000  0.3893950000000  0.5498450000000 1.0
C      1  0.5849030000000  0.4424690000000  0.4061640000000 1.0
C      1  0.6184100000000  0.5096950000000  0.3611650000000 1.0
C      1  0.4408160000000  0.5456560000000  0.3995590000000 1.0
C      1  0.6051940000000  0.5023220000000  0.3823830000000 1.0
C      1  0.5727620000000  0.6007120000000  0.4414250000000 1.0
C      1  0.4719650000000  0.4512930000000  0.3856510000000 1.0
C      1  0.5342830000000  0.4917310000000  0.4898810000000 1.0
C      1  0.3862780000000  0.5097010000000  0.4769200000000 1.0
C      1  0.5991550000000  0.5018910000000  0.4313520000000 1.0
C      1  0.3719970000000  0.5149190000000  0.5491340000000 1.0
C      1  0.4711020000000  0.4653680000000  0.5527110000000 1.0
C      1  0.4339070000000  0.4297660000000  0.5984620000000 1.0
C      1  0.5335660000000  0.4955620000000  0.5415630000000 1.0
C      1  0.5452810000000  0.5162990000000  0.4999530000000 1.0
C      1  0.5645410000000  0.5687570000000  0.4839080000000 1.0
C      1  0.5559940000000  0.4477950000000  0.5045750000000 1.0
C      1  0.5375260000000  0.4153990000000  0.5907410000000 1.0
C      1  0.5948560000000  0.5291390000000  0.5015830000000 1.0
C      1  0.5394870000000  0.6635860000000  0.4389220000000 1.0
C      1  0.6298920000000  0.4247440000000  0.5746890000000 1.0
C      1  0.3842730000000  0.5296180000000  0.4556130000000 1.0
C      1  0.6226110000000  0.5166500000000  0.4322900000000 1.0
C      1  0.5257730000000  0.5862750000000  0.5082470000000 1.0
END
