TITL C-599894-471-809 0.269612728178682 125000 -708.238658678674 0 0 113 (C1) n - 1
REM
REM in /home/nfs/bkarasulu/CARBON/AIRSS/Generating-Clusters/TERSOFF/Only-C1/FIRE-HFTN
REM
REM
REM
REM
REM
REM ./C.cell (11c1c37f851c82e70ff6c80c92926a4b)
REM AIRSS Version 0.9.1 bugfix July 2018 build 013d7b7c2542+ Fri, 06 Jul 2018 19:26:36 +0100
REM compiler GCC version 9.2.1 20190827 (Red Hat 9.2.1-1)
REM options -cpp -mtune=generic -march=x86-64 -g -O0 -fpre-include=/usr/include/finclude/math-vector-fortran.h
REM seed -613388138 1686155992 -980224570 230469032 -106936447 1333668792 715889929 479098601 2061644241 1966132684 609483022 2052531048 1346802464 -1292027234 908283138 1363900846 -1962200642 232240050 -944529020 -592487076 -224976113 -2044051864 410404220 2095890084 -762670413 720944453 -1850811950 -1633155390 341428642 121840306 251225933 -1970955080 305100049
REM
CELL 1.54180   50.00000   50.00000   50.00000   90.00000   90.00000   90.00000
LATT -1
SFAC C  
C      1  0.4453470000000  0.5856310000000  0.4788440000000 1.0
C      1  0.5790220000000  0.5152260000000  0.4416090000000 1.0
C      1  0.5389430000000  0.4857380000000  0.3878830000000 1.0
C      1  0.5076430000000  0.5491880000000  0.5902830000000 1.0
C      1  0.4204780000000  0.4641020000000  0.4569170000000 1.0
C      1  0.4932810000000  0.4437410000000  0.4635350000000 1.0
C      1  0.5037760000000  0.5685770000000  0.4496810000000 1.0
C      1  0.4665220000000  0.5285990000000  0.4071460000000 1.0
C      1  0.5441210000000  0.4545910000000  0.5773550000000 1.0
C      1  0.5074810000000  0.4246440000000  0.4236380000000 1.0
C      1  0.5839300000000  0.4772710000000  0.5080510000000 1.0
C      1  0.5200110000000  0.5000890000000  0.5967030000000 1.0
C      1  0.4860090000000  0.5462450000000  0.4463130000000 1.0
C      1  0.5215320000000  0.4466760000000  0.5048530000000 1.0
C      1  0.5547280000000  0.5640180000000  0.5395610000000 1.0
C      1  0.4906710000000  0.5331910000000  0.3924370000000 1.0
C      1  0.5208910000000  0.4379230000000  0.5765810000000 1.0
C      1  0.4974080000000  0.4707950000000  0.4715820000000 1.0
C      1  0.4604400000000  0.4544770000000  0.4103000000000 1.0
C      1  0.6010830000000  0.5196810000000  0.5253820000000 1.0
C      1  0.4146170000000  0.4241230000000  0.5296090000000 1.0
C      1  0.4990320000000  0.5773330000000  0.4953410000000 1.0
C      1  0.5556840000000  0.5303320000000  0.5795640000000 1.0
C      1  0.5908580000000  0.4526510000000  0.5198180000000 1.0
C      1  0.4385590000000  0.4274560000000  0.5444440000000 1.0
C      1  0.5181890000000  0.5880380000000  0.5137200000000 1.0
C      1  0.5410130000000  0.4884600000000  0.4874270000000 1.0
C      1  0.5311450000000  0.4616070000000  0.3963590000000 1.0
C      1  0.4430280000000  0.4543840000000  0.5530120000000 1.0
C      1  0.4384950000000  0.4213750000000  0.4379920000000 1.0
C      1  0.4080450000000  0.4720750000000  0.5264080000000 1.0
C      1  0.4921750000000  0.4952940000000  0.6020310000000 1.0
C      1  0.4303000000000  0.5731480000000  0.4583310000000 1.0
C      1  0.4585920000000  0.4270850000000  0.4189480000000 1.0
C      1  0.4221390000000  0.4742250000000  0.5516250000000 1.0
C      1  0.4817790000000  0.4941600000000  0.4596340000000 1.0
C      1  0.4778130000000  0.5473440000000  0.5834730000000 1.0
C      1  0.5468130000000  0.5773320000000  0.5130230000000 1.0
C      1  0.4761800000000  0.5323270000000  0.4907170000000 1.0
C      1  0.4770350000000  0.5589060000000  0.5007160000000 1.0
C      1  0.5279540000000  0.5286200000000  0.5931560000000 1.0
C      1  0.4769170000000  0.5607050000000  0.5568210000000 1.0
C      1  0.4646420000000  0.5022940000000  0.5984170000000 1.0
C      1  0.5309750000000  0.5523410000000  0.4145070000000 1.0
C      1  0.4790320000000  0.5116600000000  0.5421910000000 1.0
C      1  0.4292940000000  0.4790660000000  0.4793790000000 1.0
C      1  0.5390520000000  0.4267060000000  0.4947630000000 1.0
C      1  0.4827140000000  0.4109640000000  0.4168160000000 1.0
C      1  0.4238100000000  0.4360130000000  0.4553130000000 1.0
C      1  0.4401020000000  0.4869900000000  0.5956550000000 1.0
C      1  0.5189540000000  0.5339210000000  0.3964720000000 1.0
C      1  0.4633020000000  0.5467380000000  0.4288130000000 1.0
C      1  0.5126730000000  0.4487670000000  0.5311830000000 1.0
C      1  0.4580710000000  0.5271950000000  0.5842340000000 1.0
C      1  0.4346590000000  0.5587760000000  0.5245120000000 1.0
C      1  0.5580300000000  0.4189280000000  0.5146890000000 1.0
C      1  0.4182780000000  0.4884300000000  0.5055390000000 1.0
C      1  0.4872730000000  0.4658160000000  0.4152190000000 1.0
C      1  0.5192690000000  0.4708300000000  0.4891480000000 1.0
C      1  0.5077350000000  0.4303660000000  0.5524290000000 1.0
C      1  0.5303960000000  0.5633360000000  0.4409220000000 1.0
C      1  0.5286450000000  0.5572960000000  0.5487690000000 1.0
C      1  0.4306640000000  0.4689100000000  0.6136690000000 1.0
C      1  0.4600620000000  0.5019160000000  0.4142390000000 1.0
C      1  0.5422730000000  0.4827060000000  0.5861830000000 1.0
C      1  0.4865710000000  0.5384260000000  0.5399060000000 1.0
C      1  0.5644220000000  0.4440420000000  0.5594100000000 1.0
C      1  0.4948460000000  0.5874960000000  0.4689670000000 1.0
C      1  0.4948110000000  0.5836950000000  0.5583810000000 1.0
C      1  0.5340050000000  0.5119510000000  0.3874480000000 1.0
C      1  0.5100040000000  0.4499020000000  0.4102160000000 1.0
C      1  0.5824230000000  0.4991160000000  0.5263440000000 1.0
C      1  0.5395720000000  0.4269360000000  0.4654100000000 1.0
C      1  0.4868190000000  0.4118460000000  0.5506570000000 1.0
C      1  0.4504420000000  0.5707250000000  0.5035620000000 1.0
C      1  0.5240020000000  0.5315050000000  0.5081940000000 1.0
C      1  0.4332700000000  0.5122090000000  0.5142510000000 1.0
C      1  0.4360360000000  0.5223280000000  0.5632300000000 1.0
C      1  0.4687130000000  0.5996200000000  0.4682940000000 1.0
C      1  0.5113980000000  0.4761970000000  0.5388130000000 1.0
C      1  0.4263770000000  0.4950770000000  0.5707360000000 1.0
C      1  0.5605180000000  0.5021210000000  0.5723910000000 1.0
C      1  0.4821470000000  0.4900050000000  0.4297930000000 1.0
C      1  0.5672830000000  0.4779260000000  0.4850970000000 1.0
C      1  0.4822600000000  0.3848880000000  0.4086820000000 1.0
C      1  0.5526440000000  0.5591510000000  0.4594210000000 1.0
C      1  0.5133030000000  0.5414780000000  0.5316360000000 1.0
C      1  0.4209480000000  0.4767110000000  0.4311550000000 1.0
C      1  0.5136620000000  0.4270400000000  0.4516290000000 1.0
C      1  0.4549190000000  0.4925140000000  0.4761990000000 1.0
C      1  0.5169760000000  0.5698620000000  0.5716510000000 1.0
C      1  0.6180040000000  0.5393750000000  0.5201020000000 1.0
C      1  0.4683180000000  0.4656740000000  0.5549390000000 1.0
C      1  0.5727800000000  0.4676630000000  0.4590330000000 1.0
C      1  0.3996710000000  0.4453310000000  0.5211280000000 1.0
C      1  0.4422420000000  0.4784160000000  0.4123940000000 1.0
C      1  0.6331800000000  0.5597900000000  0.5144060000000 1.0
C      1  0.4603160000000  0.4099840000000  0.5469600000000 1.0
C      1  0.4860700000000  0.4851870000000  0.5461150000000 1.0
C      1  0.5727280000000  0.4354150000000  0.5331780000000 1.0
C      1  0.4394960000000  0.5588890000000  0.4373460000000 1.0
C      1  0.5606500000000  0.4979430000000  0.5443410000000 1.0
C      1  0.4876660000000  0.5247060000000  0.4651250000000 1.0
C      1  0.5049040000000  0.5991410000000  0.5367840000000 1.0
C      1  0.4319870000000  0.5319130000000  0.5354500000000 1.0
C      1  0.5710550000000  0.5390270000000  0.4511090000000 1.0
C      1  0.5696950000000  0.5505300000000  0.5613930000000 1.0
C      1  0.5801350000000  0.4882770000000  0.4411840000000 1.0
C      1  0.5362000000000  0.5153870000000  0.4912720000000 1.0
C      1  0.5611990000000  0.4421210000000  0.4539840000000 1.0
C      1  0.5348430000000  0.4908160000000  0.5358690000000 1.0
C      1  0.5552190000000  0.5703970000000  0.4860320000000 1.0
C      1  0.4556870000000  0.5139070000000  0.4964990000000 1.0
END
