TITL C-599890-3321-1135 3.04935924627184 125000 -118.489135666771 0 0 21 (C1) n - 1
REM
REM in /home/nfs/bkarasulu/CARBON/AIRSS/Generating-Clusters/TERSOFF/Only-C1/FIRE-HFTN
REM
REM
REM
REM
REM
REM ./C.cell (11c1c37f851c82e70ff6c80c92926a4b)
REM AIRSS Version 0.9.1 bugfix July 2018 build 013d7b7c2542+ Fri, 06 Jul 2018 19:26:36 +0100
REM compiler GCC version 9.2.1 20190827 (Red Hat 9.2.1-1)
REM options -cpp -mtune=generic -march=x86-64 -g -O0 -fpre-include=/usr/include/finclude/math-vector-fortran.h
REM seed -1544655252 -623118679 -258103493 1462770041 1965045674 -1080130394 -316408672 -1403786229 -353718447 -81960273 -1771140556 914962116 -1391251372 -1318508531 -451728380 -1304641816 -1268367897 1283473382 1317295318 1123893885 -1104892408 211044207 722170236 -396922381 -1789058472 1363941068 1382781506 -183063914 -2122121078 577471101 1234094923 849554326 2022480482
REM
CELL 1.54180   50.00000   50.00000   50.00000   90.00000   90.00000   90.00000
LATT -1
SFAC C  
C      1  0.4923380000000  0.4426790000000  0.5151480000000 1.0
C      1  0.4829050000000  0.4350110000000  0.4175140000000 1.0
C      1  0.5123590000000  0.5588350000000  0.5576320000000 1.0
C      1  0.4887090000000  0.4368530000000  0.4679960000000 1.0
C      1  0.5083500000000  0.5365480000000  0.5438670000000 1.0
C      1  0.4975420000000  0.4856460000000  0.4539880000000 1.0
C      1  0.4960920000000  0.4685050000000  0.5022930000000 1.0
C      1  0.4921170000000  0.4802500000000  0.4269160000000 1.0
C      1  0.5004010000000  0.4922200000000  0.5159540000000 1.0
C      1  0.4879450000000  0.4240740000000  0.4936480000000 1.0
C      1  0.5043480000000  0.5142850000000  0.5300650000000 1.0
C      1  0.5203760000000  0.6034080000000  0.5851620000000 1.0
C      1  0.4860840000000  0.4610500000000  0.4072780000000 1.0
C      1  0.5063250000000  0.5105900000000  0.4610690000000 1.0
C      1  0.4942470000000  0.4652260000000  0.4733800000000 1.0
C      1  0.5283290000000  0.6476260000000  0.6124710000000 1.0
C      1  0.4835530000000  0.4670590000000  0.3808550000000 1.0
C      1  0.5163670000000  0.5811210000000  0.5713970000000 1.0
C      1  0.5243850000000  0.6257010000000  0.5989300000000 1.0
C      1  0.4928550000000  0.4371730000000  0.5416760000000 1.0
C      1  0.4843710000000  0.4261400000000  0.4427620000000 1.0
END
