TITL C-599892-9790-815 -3.37027742772768e-05 125000 -544.20678948755 0 0 89 (C1) n - 1
REM
REM in /home/nfs/bkarasulu/CARBON/AIRSS/Generating-Clusters/TERSOFF/Only-C1/FIRE-HFTN
REM
REM
REM
REM
REM
REM ./C.cell (11c1c37f851c82e70ff6c80c92926a4b)
REM AIRSS Version 0.9.1 bugfix July 2018 build 013d7b7c2542+ Fri, 06 Jul 2018 19:26:36 +0100
REM compiler GCC version 9.2.1 20190827 (Red Hat 9.2.1-1)
REM options -cpp -mtune=generic -march=x86-64 -g -O0 -fpre-include=/usr/include/finclude/math-vector-fortran.h
REM seed -1561594255 405981151 -2056673585 2009015177 -1521936705 290912635 -1468409408 651125948 1807325322 1783646432 -1611380996 304666727 1343248205 -1953750885 -1782861798 1737642115 -1557434199 106640872 1778327336 -2069122944 1692145453 -239402483 -1901606435 -746981299 -1114017148 -889663357 -342215294 -847869035 -1869422659 386514220 2116921597 180669178 198226351
REM
CELL 1.54180   50.00000   50.00000   50.00000   90.00000   90.00000   90.00000
LATT -1
SFAC C  
C      1  0.5033440000000  0.5927630000000  0.5592670000000 1.0
C      1  0.4743670000000  0.4229640000000  0.5350850000000 1.0
C      1  0.4969970000000  0.5688090000000  0.5733850000000 1.0
C      1  0.4750110000000  0.4514710000000  0.5372080000000 1.0
C      1  0.5652300000000  0.5449870000000  0.5693840000000 1.0
C      1  0.4259820000000  0.4353500000000  0.4535860000000 1.0
C      1  0.5398400000000  0.4240410000000  0.4478470000000 1.0
C      1  0.5404240000000  0.4739830000000  0.5819800000000 1.0
C      1  0.4218150000000  0.5293770000000  0.4158490000000 1.0
C      1  0.4286590000000  0.5555140000000  0.4215450000000 1.0
C      1  0.5211960000000  0.4040450000000  0.5267680000000 1.0
C      1  0.5328610000000  0.4806590000000  0.4495680000000 1.0
C      1  0.5419110000000  0.4746850000000  0.5539700000000 1.0
C      1  0.5050510000000  0.4365170000000  0.4982400000000 1.0
C      1  0.4857240000000  0.5746100000000  0.4650450000000 1.0
C      1  0.5643970000000  0.5767650000000  0.5299690000000 1.0
C      1  0.4521830000000  0.5282790000000  0.4510630000000 1.0
C      1  0.4897700000000  0.5630520000000  0.4910530000000 1.0
C      1  0.4576790000000  0.4169700000000  0.4902630000000 1.0
C      1  0.5139860000000  0.4174320000000  0.4437760000000 1.0
C      1  0.5273760000000  0.5443070000000  0.5450100000000 1.0
C      1  0.4381990000000  0.5767240000000  0.5326610000000 1.0
C      1  0.5426730000000  0.5563680000000  0.4021820000000 1.0
C      1  0.4957600000000  0.4045640000000  0.5402750000000 1.0
C      1  0.4378670000000  0.4172180000000  0.4698870000000 1.0
C      1  0.5431520000000  0.5402690000000  0.4884080000000 1.0
C      1  0.4467480000000  0.5565410000000  0.4437270000000 1.0
C      1  0.5069680000000  0.5793510000000  0.4463440000000 1.0
C      1  0.4323070000000  0.4718250000000  0.4824230000000 1.0
C      1  0.5006240000000  0.4808390000000  0.5145940000000 1.0
C      1  0.4874240000000  0.3676340000000  0.5789290000000 1.0
C      1  0.4346620000000  0.5109360000000  0.4341990000000 1.0
C      1  0.4489670000000  0.5676520000000  0.5554470000000 1.0
C      1  0.4574950000000  0.5768110000000  0.4598450000000 1.0
C      1  0.4379690000000  0.4897040000000  0.5391090000000 1.0
C      1  0.4965430000000  0.4639060000000  0.4221650000000 1.0
C      1  0.5035050000000  0.5952460000000  0.5324580000000 1.0
C      1  0.4256870000000  0.4635230000000  0.4560030000000 1.0
C      1  0.4773600000000  0.5217570000000  0.5188610000000 1.0
C      1  0.4300040000000  0.4384410000000  0.5278020000000 1.0
C      1  0.5325850000000  0.5665010000000  0.4489170000000 1.0
C      1  0.5472260000000  0.5002470000000  0.5425430000000 1.0
C      1  0.5650780000000  0.5310110000000  0.4367670000000 1.0
C      1  0.5323610000000  0.5166280000000  0.4824620000000 1.0
C      1  0.4239680000000  0.4670040000000  0.5276190000000 1.0
C      1  0.4540470000000  0.5108960000000  0.5321920000000 1.0
C      1  0.5535430000000  0.5573270000000  0.5453150000000 1.0
C      1  0.5419100000000  0.5413790000000  0.5879390000000 1.0
C      1  0.5466840000000  0.5513820000000  0.4288080000000 1.0
C      1  0.5252620000000  0.5176130000000  0.5358290000000 1.0
C      1  0.5401440000000  0.4922540000000  0.6016970000000 1.0
C      1  0.5558760000000  0.4680540000000  0.4617110000000 1.0
C      1  0.4602510000000  0.4710870000000  0.4886610000000 1.0
C      1  0.3872870000000  0.4829840000000  0.4988580000000 1.0
C      1  0.5030230000000  0.5973600000000  0.4260050000000 1.0
C      1  0.5884450000000  0.4997770000000  0.5176710000000 1.0
C      1  0.5019310000000  0.5073520000000  0.5237460000000 1.0
C      1  0.4739920000000  0.4693770000000  0.5141280000000 1.0
C      1  0.4899270000000  0.4997480000000  0.4644950000000 1.0
C      1  0.5839570000000  0.5245320000000  0.5624040000000 1.0
C      1  0.5536500000000  0.4395420000000  0.4674670000000 1.0
C      1  0.5764360000000  0.4876230000000  0.4670690000000 1.0
C      1  0.5747480000000  0.5078880000000  0.5408110000000 1.0
C      1  0.4274200000000  0.4841120000000  0.4370990000000 1.0
C      1  0.5349250000000  0.4552980000000  0.5350870000000 1.0
C      1  0.4729940000000  0.5221580000000  0.4695470000000 1.0
C      1  0.5409710000000  0.5189320000000  0.6048740000000 1.0
C      1  0.4996260000000  0.5802520000000  0.5107380000000 1.0
C      1  0.5183560000000  0.4998350000000  0.4651180000000 1.0
C      1  0.4694440000000  0.5626140000000  0.5721700000000 1.0
C      1  0.5430940000000  0.5634370000000  0.4749110000000 1.0
C      1  0.4507690000000  0.4199530000000  0.5182870000000 1.0
C      1  0.5216450000000  0.4738740000000  0.4245580000000 1.0
C      1  0.4418770000000  0.5870480000000  0.4812120000000 1.0
C      1  0.5767240000000  0.5101310000000  0.4492320000000 1.0
C      1  0.5178490000000  0.5496010000000  0.5727190000000 1.0
C      1  0.4849170000000  0.4240900000000  0.4820640000000 1.0
C      1  0.6078470000000  0.5210490000000  0.5749930000000 1.0
C      1  0.4780320000000  0.5368640000000  0.4942770000000 1.0
C      1  0.4829110000000  0.4547280000000  0.4452900000000 1.0
C      1  0.4901590000000  0.4285090000000  0.4543200000000 1.0
C      1  0.4358300000000  0.5848600000000  0.5072640000000 1.0
C      1  0.5880460000000  0.4904860000000  0.4925600000000 1.0
C      1  0.5553260000000  0.4260420000000  0.4927010000000 1.0
C      1  0.5172780000000  0.4576460000000  0.5132670000000 1.0
C      1  0.4128170000000  0.4744490000000  0.5024420000000 1.0
C      1  0.4916080000000  0.3853890000000  0.5603170000000 1.0
C      1  0.4769720000000  0.4744310000000  0.4653960000000 1.0
C      1  0.5425170000000  0.4107580000000  0.5112640000000 1.0
END
