TITL C-599893-4344-273 237.852391547821 125000 -775.407780625447 0 0 129 (C1) n - 1
REM
REM in /home/nfs/bkarasulu/CARBON/AIRSS/Generating-Clusters/TERSOFF/Only-C1/FIRE-HFTN
REM
REM
REM
REM
REM
REM ./C.cell (11c1c37f851c82e70ff6c80c92926a4b)
REM AIRSS Version 0.9.1 bugfix July 2018 build 013d7b7c2542+ Fri, 06 Jul 2018 19:26:36 +0100
REM compiler GCC version 9.2.1 20190827 (Red Hat 9.2.1-1)
REM options -cpp -mtune=generic -march=x86-64 -g -O0 -fpre-include=/usr/include/finclude/math-vector-fortran.h
REM seed -1368374660 1045841730 17531581 260504708 53221930 452396887 -1715451228 1329711827 -249979760 825032997 -345774986 -653599721 -1276295210 -538583299 650101020 385681210 19493697 2068371927 -1077739701 -1820629487 2046542054 1826625849 697911041 1786086276 -1355200286 1812640341 173638206 1988894154 -1467493748 -2141142312 -70877743 -1320542000 -1915048400
REM
CELL 1.54180   50.00000   50.00000   50.00000   90.00000   90.00000   90.00000
LATT -1
SFAC C  
C      1  0.4797670000000  0.5227910000000  0.4021030000000 1.0
C      1  0.5782020000000  0.4668970000000  0.5816720000000 1.0
C      1  0.4151920000000  0.5362920000000  0.4303900000000 1.0
C      1  0.4460670000000  0.5199290000000  0.5243240000000 1.0
C      1  0.4501970000000  0.5271160000000  0.3984740000000 1.0
C      1  0.4459070000000  0.4838910000000  0.4786880000000 1.0
C      1  0.6011330000000  0.5496320000000  0.5400310000000 1.0
C      1  0.5823100000000  0.4805970000000  0.4239130000000 1.0
C      1  0.5387420000000  0.5527450000000  0.5117160000000 1.0
C      1  0.4704730000000  0.3753290000000  0.4790800000000 1.0
C      1  0.4747470000000  0.5626860000000  0.5950830000000 1.0
C      1  0.4481300000000  0.5074590000000  0.4620960000000 1.0
C      1  0.5795230000000  0.5091950000000  0.4266580000000 1.0
C      1  0.4328550000000  0.5638920000000  0.5150400000000 1.0
C      1  0.4074250000000  0.4436300000000  0.5339240000000 1.0
C      1  0.5049780000000  0.5323810000000  0.5379880000000 1.0
C      1  0.4100200000000  0.5147060000000  0.4967910000000 1.0
C      1  0.4249180000000  0.4886590000000  0.4974400000000 1.0
C      1  0.5060190000000  0.4474690000000  0.5711340000000 1.0
C      1  0.4930450000000  0.4121860000000  0.5044840000000 1.0
C      1  0.5010370000000  0.5348330000000  0.4183110000000 1.0
C      1  0.3962300000000  0.4415640000000  0.5095170000000 1.0
C      1  0.4449860000000  0.4325900000000  0.4658730000000 1.0
C      1  0.5351720000000  0.4470980000000  0.4904780000000 1.0
C      1  0.5364660000000  0.4899980000000  0.4241760000000 1.0
C      1  0.4605320000000  0.5962110000000  0.4920710000000 1.0
C      1  0.4275310000000  0.5615960000000  0.4272020000000 1.0
C      1  0.4779500000000  0.5436590000000  0.4678340000000 1.0
C      1  0.4904690000000  0.3942570000000  0.5454520000000 1.0
C      1  0.4508950000000  0.4998580000000  0.4355110000000 1.0
C      1  0.5045410000000  0.4537360000000  0.4208490000000 1.0
C      1  0.5209060000000  0.4339400000000  0.4353660000000 1.0
C      1  0.4986120000000  0.4717550000000  0.4635580000000 1.0
C      1  0.5438070000000  0.5065250000000  0.5307810000000 1.0
C      1  0.5071750000000  0.3955970000000  0.5227540000000 1.0
C      1  0.4921460000000  0.4415460000000  0.5033320000000 1.0
C      1  0.4616030000000  0.5264340000000  0.5675090000000 1.0
C      1  0.4858390000000  0.4688330000000  0.5122100000000 1.0
C      1  0.4498340000000  0.5724490000000  0.5378810000000 1.0
C      1  0.4181030000000  0.4466060000000  0.4608490000000 1.0
C      1  0.5171950000000  0.5354900000000  0.4432030000000 1.0
C      1  0.5082400000000  0.4460560000000  0.4783440000000 1.0
C      1  0.5417640000000  0.5438250000000  0.4570260000000 1.0
C      1  0.5961150000000  0.4781840000000  0.5111090000000 1.0
C      1  0.4591940000000  0.5268940000000  0.4792660000000 1.0
C      1  0.4462680000000  0.4828710000000  0.5542660000000 1.0
C      1  0.5767400000000  0.4409120000000  0.5368800000000 1.0
C      1  0.5548540000000  0.3727950000000  0.5138680000000 1.0
C      1  0.4066620000000  0.4704620000000  0.4448570000000 1.0
C      1  0.3942730000000  0.5138930000000  0.4724600000000 1.0
C      1  0.5187760000000  0.5421000000000  0.5902410000000 1.0
C      1  0.4463540000000  0.5101700000000  0.5505020000000 1.0
C      1  0.4784840000000  0.5818410000000  0.5348930000000 1.0
C      1  0.4536090000000  0.4637490000000  0.5957590000000 1.0
C      1  0.4534550000000  0.5502970000000  0.5809840000000 1.0
C      1  0.5953790000000  0.4782710000000  0.5614420000000 1.0
C      1  0.4001580000000  0.4401320000000  0.4829680000000 1.0
C      1  0.4395230000000  0.5678630000000  0.5638940000000 1.0
C      1  0.5315970000000  0.5998150000000  0.4773860000000 1.0
C      1  0.4295850000000  0.5120820000000  0.4179450000000 1.0
C      1  0.5984260000000  0.5629170000000  0.5166820000000 1.0
C      1  0.5481600000000  0.5877070000000  0.4314820000000 1.0
C      1  0.4704980000000  0.5653770000000  0.4519670000000 1.0
C      1  0.5121020000000  0.4788770000000  0.4363590000000 1.0
C      1  0.5709470000000  0.5471680000000  0.4554260000000 1.0
C      1  0.5533270000000  0.5913390000000  0.4598120000000 1.0
C      1  0.3897010000000  0.4874920000000  0.4619420000000 1.0
C      1  0.4713720000000  0.4821400000000  0.6058790000000 1.0
C      1  0.5419880000000  0.5756540000000  0.5277480000000 1.0
C      1  0.5363440000000  0.5519620000000  0.4841990000000 1.0
C      1  0.5669610000000  0.5307060000000  0.5697270000000 1.0
C      1  0.4702220000000  0.4328290000000  0.4476290000000 1.0
C      1  0.4790090000000  0.4378540000000  0.5634550000000 1.0
C      1  0.4877160000000  0.5274590000000  0.5572660000000 1.0
C      1  0.5571050000000  0.5086860000000  0.5549500000000 1.0
C      1  0.5860010000000  0.4896750000000  0.4873310000000 1.0
C      1  0.5001080000000  0.5788840000000  0.5559360000000 1.0
C      1  0.4704160000000  0.4715200000000  0.4718560000000 1.0
C      1  0.5260400000000  0.5863220000000  0.5466150000000 1.0
C      1  0.5364670000000  0.4559670000000  0.5181390000000 1.0
C      1  0.5477890000000  0.5680220000000  0.4125930000000 1.0
C      1  0.5005300000000  0.4260840000000  0.4561720000000 1.0
C      1  0.5552170000000  0.4522750000000  0.5840960000000 1.0
C      1  0.5901580000000  0.5728620000000  0.4929590000000 1.0
C      1  0.4749950000000  0.4526920000000  0.4253140000000 1.0
C      1  0.4503000000000  0.5727380000000  0.4359750000000 1.0
C      1  0.5013390000000  0.5281670000000  0.4657160000000 1.0
C      1  0.4845980000000  0.5933190000000  0.5076590000000 1.0
C      1  0.5296310000000  0.4820720000000  0.5279650000000 1.0
C      1  0.4663970000000  0.5157840000000  0.5052340000000 1.0
C      1  0.5469170000000  0.5436510000000  0.5846710000000 1.0
C      1  0.4108280000000  0.4864610000000  0.4192580000000 1.0
C      1  0.4241790000000  0.5356320000000  0.5130040000000 1.0
C      1  0.4661050000000  0.4798490000000  0.4206400000000 1.0
C      1  0.6060420000000  0.5049540000000  0.5629410000000 1.0
C      1  0.5539090000000  0.4544590000000  0.4707340000000 1.0
C      1  0.5088380000000  0.5178170000000  0.6047210000000 1.0
C      1  0.5752880000000  0.5731610000000  0.4687740000000 1.0
C      1  0.5354780000000  0.4413900000000  0.5656330000000 1.0
C      1  0.5098120000000  0.5077060000000  0.4847470000000 1.0
C      1  0.5093780000000  0.4848310000000  0.5476260000000 1.0
C      1  0.5293850000000  0.5300800000000  0.5249830000000 1.0
C      1  0.4494370000000  0.4184470000000  0.4932200000000 1.0
C      1  0.5520180000000  0.5147860000000  0.4163510000000 1.0
C      1  0.4494790000000  0.4217990000000  0.5284320000000 1.0
C      1  0.4711870000000  0.3997250000000  0.4908510000000 1.0
C      1  0.4372750000000  0.5820140000000  0.4935940000000 1.0
C      1  0.5001660000000  0.5638510000000  0.5819170000000 1.0
C      1  0.5127610000000  0.5188450000000  0.6322780000000 1.0
C      1  0.4509830000000  0.4554520000000  0.5658400000000 1.0
C      1  0.5477970000000  0.4464100000000  0.4431270000000 1.0
C      1  0.5480810000000  0.4400190000000  0.5387830000000 1.0
C      1  0.4959430000000  0.4929450000000  0.5952900000000 1.0
C      1  0.4329440000000  0.4389550000000  0.5445980000000 1.0
C      1  0.5483550000000  0.5414320000000  0.4065930000000 1.0
C      1  0.5928770000000  0.4647470000000  0.5358810000000 1.0
C      1  0.5567890000000  0.4673890000000  0.4253220000000 1.0
C      1  0.5601250000000  0.4819310000000  0.4781020000000 1.0
C      1  0.4888490000000  0.4974830000000  0.5036840000000 1.0
C      1  0.5314060000000  0.3830850000000  0.5187030000000 1.0
C      1  0.5053940000000  0.4766930000000  0.5739800000000 1.0
C      1  0.5368730000000  0.4983450000000  0.4818830000000 1.0
C      1  0.5095340000000  0.5987510000000  0.4937470000000 1.0
C      1  0.3974120000000  0.5331050000000  0.4521640000000 1.0
C      1  0.5979480000000  0.5099430000000  0.4716550000000 1.0
C      1  0.4812860000000  0.4939530000000  0.4004340000000 1.0
C      1  0.5946280000000  0.5314950000000  0.5609870000000 1.0
C      1  0.4717920000000  0.4152080000000  0.5471570000000 1.0
C      1  0.5869290000000  0.5243800000000  0.4497790000000 1.0
END
