TITL C-599893-4344-434 -0.0080199744557964 125000 -131.327710630437 0 0 23 (C1) n - 1
REM
REM in /home/nfs/bkarasulu/CARBON/AIRSS/Generating-Clusters/TERSOFF/Only-C1/FIRE-HFTN
REM
REM
REM
REM
REM
REM ./C.cell (11c1c37f851c82e70ff6c80c92926a4b)
REM AIRSS Version 0.9.1 bugfix July 2018 build 013d7b7c2542+ Fri, 06 Jul 2018 19:26:36 +0100
REM compiler GCC version 9.2.1 20190827 (Red Hat 9.2.1-1)
REM options -cpp -mtune=generic -march=x86-64 -g -O0 -fpre-include=/usr/include/finclude/math-vector-fortran.h
REM seed -161149016 689052334 -910074194 359625678 -1178928050 1125288267 -324720653 1372610590 -1805131663 1442797750 -1247460017 -360131644 -408782726 -919449089 -1162891557 562076913 -2050943613 802077708 2096599684 2145783401 1836390341 903367707 -79504625 235006452 1118684627 -1240260196 1740010993 -1668685490 -1407020025 -396387487 1468288467 -1800793254 -332652022
REM
CELL 1.54180   50.00000   50.00000   50.00000   90.00000   90.00000   90.00000
LATT -1
SFAC C  
C      1  0.4694980000000  0.5088390000000  0.4639540000000 1.0
C      1  0.5165190000000  0.4441590000000  0.5072670000000 1.0
C      1  0.4755070000000  0.5392780000000  0.5157850000000 1.0
C      1  0.5375000000000  0.5105710000000  0.5512210000000 1.0
C      1  0.4438090000000  0.5035860000000  0.5038890000000 1.0
C      1  0.5020440000000  0.4847670000000  0.5299390000000 1.0
C      1  0.4507600000000  0.5254800000000  0.5183050000000 1.0
C      1  0.5099280000000  0.4200880000000  0.4949220000000 1.0
C      1  0.4961910000000  0.5322790000000  0.5334770000000 1.0
C      1  0.5115870000000  0.5095180000000  0.5394220000000 1.0
C      1  0.5033810000000  0.3977470000000  0.4832090000000 1.0
C      1  0.4763430000000  0.4697180000000  0.4922780000000 1.0
C      1  0.5448780000000  0.5306660000000  0.5681560000000 1.0
C      1  0.4817870000000  0.5475260000000  0.4894330000000 1.0
C      1  0.4975440000000  0.4652010000000  0.5101760000000 1.0
C      1  0.5550570000000  0.4895490000000  0.5447090000000 1.0
C      1  0.5566900000000  0.4661280000000  0.5319630000000 1.0
C      1  0.4602830000000  0.4913220000000  0.4842070000000 1.0
C      1  0.5422230000000  0.4487410000000  0.5177450000000 1.0
C      1  0.4801120000000  0.5351060000000  0.4640240000000 1.0
C      1  0.4961620000000  0.5599750000000  0.4185220000000 1.0
C      1  0.4883350000000  0.5478340000000  0.4407320000000 1.0
C      1  0.5038640000000  0.5719210000000  0.3966680000000 1.0
END
