TITL C-599897-7526-695 0.901622536299343 125000 -252.200121058728 0 0 43 (C1) n - 1
REM
REM in /home/nfs/bkarasulu/CARBON/AIRSS/Generating-Clusters/TERSOFF/Only-C1/FIRE-HFTN
REM
REM
REM
REM
REM
REM ./C.cell (11c1c37f851c82e70ff6c80c92926a4b)
REM AIRSS Version 0.9.1 bugfix July 2018 build 013d7b7c2542+ Fri, 06 Jul 2018 19:26:36 +0100
REM compiler GCC version 9.2.1 20190827 (Red Hat 9.2.1-1)
REM options -cpp -mtune=generic -march=x86-64 -g -O0 -fpre-include=/usr/include/finclude/math-vector-fortran.h
REM seed -150298324 -1998220278 447478913 122390757 -1899890266 -57419025 1035902820 -1759973949 -1664674042 1243857093 514032958 -1610807680 -247443006 -449938171 987330227 -1421907624 -1389339635 -1256937479 302299870 -717050744 -1997406035 -296496682 142923756 -1750703276 698195004 421083471 1678387969 147492218 1972710201 246452038 1817430035 -682298860 -39149035
REM
CELL 1.54180   50.00000   50.00000   50.00000   90.00000   90.00000   90.00000
LATT -1
SFAC C  
C      1  0.4107270000000  0.5490350000000  0.5085430000000 1.0
C      1  0.5616690000000  0.4143640000000  0.4579710000000 1.0
C      1  0.5189580000000  0.5722870000000  0.5069390000000 1.0
C      1  0.3946310000000  0.5463210000000  0.4876770000000 1.0
C      1  0.4761210000000  0.4600430000000  0.5050530000000 1.0
C      1  0.4951830000000  0.5242240000000  0.5223520000000 1.0
C      1  0.4931330000000  0.5043750000000  0.5029710000000 1.0
C      1  0.5679120000000  0.4647100000000  0.5078180000000 1.0
C      1  0.4347350000000  0.4779620000000  0.5308530000000 1.0
C      1  0.4773970000000  0.5330850000000  0.5687370000000 1.0
C      1  0.4869780000000  0.5060000000000  0.4749370000000 1.0
C      1  0.5502290000000  0.5365330000000  0.5201480000000 1.0
C      1  0.4944630000000  0.5306650000000  0.5482610000000 1.0
C      1  0.5337330000000  0.4128370000000  0.4580940000000 1.0
C      1  0.5759120000000  0.4429530000000  0.4948800000000 1.0
C      1  0.4760850000000  0.4567400000000  0.4765190000000 1.0
C      1  0.4950890000000  0.5801800000000  0.5196470000000 1.0
C      1  0.4943610000000  0.5283950000000  0.4601250000000 1.0
C      1  0.4865240000000  0.4337030000000  0.4648730000000 1.0
C      1  0.4522730000000  0.4610560000000  0.5198110000000 1.0
C      1  0.5079210000000  0.4189410000000  0.4592570000000 1.0
C      1  0.4271850000000  0.5022080000000  0.5390850000000 1.0
C      1  0.4425800000000  0.5755900000000  0.5343100000000 1.0
C      1  0.5420200000000  0.5635250000000  0.5213440000000 1.0
C      1  0.5756500000000  0.4126270000000  0.4338460000000 1.0
C      1  0.4971270000000  0.4776610000000  0.5129550000000 1.0
C      1  0.5488900000000  0.4823800000000  0.5181760000000 1.0
C      1  0.4691370000000  0.5792130000000  0.5257410000000 1.0
C      1  0.4768240000000  0.4820350000000  0.4633990000000 1.0
C      1  0.5228280000000  0.4723910000000  0.5223850000000 1.0
C      1  0.4285850000000  0.5509830000000  0.5299390000000 1.0
C      1  0.5178860000000  0.5683970000000  0.4791440000000 1.0
C      1  0.3789320000000  0.5434410000000  0.4670660000000 1.0
C      1  0.5893530000000  0.4110270000000  0.4112290000000 1.0
C      1  0.5535930000000  0.5100480000000  0.5204620000000 1.0
C      1  0.5760310000000  0.4179370000000  0.4822950000000 1.0
C      1  0.5896780000000  0.3969390000000  0.4933450000000 1.0
C      1  0.5072530000000  0.5516820000000  0.4612860000000 1.0
C      1  0.4297140000000  0.5960460000000  0.5472810000000 1.0
C      1  0.4329540000000  0.5285480000000  0.5470680000000 1.0
C      1  0.6028880000000  0.4094580000000  0.3890030000000 1.0
C      1  0.5563100000000  0.5814800000000  0.5362950000000 1.0
C      1  0.4505470000000  0.5319750000000  0.5688800000000 1.0
END
