TITL C-599891-72-1326 -0.000451966750583466 125000 -744.745938242061 0 0 125 (C1) n - 1
REM
REM in /home/nfs/bkarasulu/CARBON/AIRSS/Generating-Clusters/TERSOFF/Only-C1/FIRE-HFTN
REM
REM
REM
REM
REM
REM ./C.cell (11c1c37f851c82e70ff6c80c92926a4b)
REM AIRSS Version 0.9.1 bugfix July 2018 build 013d7b7c2542+ Fri, 06 Jul 2018 19:26:36 +0100
REM compiler GCC version 9.2.1 20190827 (Red Hat 9.2.1-1)
REM options -cpp -mtune=generic -march=x86-64 -g -O0 -fpre-include=/usr/include/finclude/math-vector-fortran.h
REM seed 813654206 509864300 1487705887 -1298846889 -1476903419 1729290429 737740312 -1336863038 553650253 -1994126230 -2049783181 895817024 -653993356 1701591236 -443288601 798951757 1059092413 1774893773 831421604 -1864017875 1599359365 285505260 564585011 1833735705 125204617 -603857590 -1657355566 1461002783 -2072296348 -448898446 515747966 1698857705 316724097
REM
CELL 1.54180   50.00000   50.00000   50.00000   90.00000   90.00000   90.00000
LATT -1
SFAC C  
C      1  0.4882090000000  0.4486590000000  0.5798560000000 1.0
C      1  0.5031970000000  0.4321930000000  0.3914810000000 1.0
C      1  0.5835880000000  0.5107070000000  0.4441350000000 1.0
C      1  0.4564510000000  0.4995830000000  0.5338220000000 1.0
C      1  0.5317230000000  0.5814270000000  0.4746610000000 1.0
C      1  0.4416130000000  0.5171760000000  0.5167260000000 1.0
C      1  0.4658200000000  0.4902190000000  0.5782210000000 1.0
C      1  0.5584740000000  0.5751880000000  0.5536800000000 1.0
C      1  0.4949190000000  0.4189990000000  0.4574680000000 1.0
C      1  0.5036490000000  0.5549250000000  0.4324310000000 1.0
C      1  0.5292840000000  0.4250270000000  0.4005980000000 1.0
C      1  0.5005740000000  0.4708590000000  0.4507840000000 1.0
C      1  0.4704290000000  0.4106220000000  0.5211740000000 1.0
C      1  0.4685830000000  0.4165230000000  0.5485160000000 1.0
C      1  0.5141950000000  0.4532210000000  0.5238860000000 1.0
C      1  0.4684710000000  0.5900050000000  0.4644970000000 1.0
C      1  0.4432170000000  0.4252170000000  0.5587240000000 1.0
C      1  0.4181780000000  0.5300090000000  0.5265440000000 1.0
C      1  0.5311720000000  0.4098240000000  0.4932220000000 1.0
C      1  0.5974600000000  0.4679670000000  0.5296060000000 1.0
C      1  0.4397340000000  0.5470720000000  0.4245880000000 1.0
C      1  0.5401950000000  0.4339020000000  0.5678160000000 1.0
C      1  0.4930430000000  0.5690240000000  0.5884870000000 1.0
C      1  0.5381650000000  0.4648490000000  0.5139920000000 1.0
C      1  0.5441300000000  0.4922100000000  0.4661500000000 1.0
C      1  0.4793210000000  0.5644950000000  0.4707410000000 1.0
C      1  0.4929990000000  0.4261650000000  0.5611110000000 1.0
C      1  0.4968870000000  0.6145730000000  0.5320070000000 1.0
C      1  0.4219960000000  0.5865340000000  0.4729110000000 1.0
C      1  0.5894100000000  0.5764380000000  0.5183400000000 1.0
C      1  0.4546390000000  0.5951100000000  0.5089750000000 1.0
C      1  0.4701320000000  0.5544810000000  0.5943310000000 1.0
C      1  0.4625650000000  0.4623540000000  0.5795070000000 1.0
C      1  0.4934140000000  0.5249290000000  0.5579410000000 1.0
C      1  0.5669560000000  0.5194800000000  0.5955620000000 1.0
C      1  0.5472480000000  0.4028510000000  0.3971990000000 1.0
C      1  0.5348280000000  0.4707880000000  0.4857220000000 1.0
C      1  0.4290360000000  0.4956430000000  0.4271870000000 1.0
C      1  0.5902240000000  0.5362250000000  0.5431010000000 1.0
C      1  0.5669410000000  0.4231170000000  0.5272310000000 1.0
C      1  0.4984900000000  0.4970890000000  0.4992510000000 1.0
C      1  0.4335630000000  0.4682890000000  0.4366170000000 1.0
C      1  0.5868670000000  0.4412420000000  0.5325470000000 1.0
C      1  0.5911890000000  0.4461420000000  0.4745050000000 1.0
C      1  0.5289990000000  0.5403520000000  0.4962610000000 1.0
C      1  0.4255530000000  0.5501560000000  0.5447940000000 1.0
C      1  0.4786790000000  0.5567930000000  0.4976480000000 1.0
C      1  0.5167760000000  0.5035510000000  0.5211590000000 1.0
C      1  0.5831740000000  0.5646110000000  0.5436000000000 1.0
C      1  0.4760930000000  0.4908860000000  0.4440190000000 1.0
C      1  0.4713650000000  0.5066140000000  0.5558640000000 1.0
C      1  0.5672510000000  0.5009240000000  0.5145990000000 1.0
C      1  0.6063610000000  0.5146320000000  0.5535740000000 1.0
C      1  0.4756310000000  0.5722390000000  0.5469210000000 1.0
C      1  0.4482370000000  0.5376260000000  0.5930290000000 1.0
C      1  0.5366220000000  0.5222920000000  0.4729090000000 1.0
C      1  0.4380550000000  0.4512760000000  0.5690140000000 1.0
C      1  0.5231420000000  0.5084940000000  0.3950450000000 1.0
C      1  0.5770810000000  0.4235520000000  0.4770890000000 1.0
C      1  0.5207840000000  0.4203900000000  0.5517430000000 1.0
C      1  0.4125480000000  0.4918740000000  0.4779050000000 1.0
C      1  0.4135730000000  0.5120070000000  0.4476890000000 1.0
C      1  0.4136910000000  0.5629460000000  0.4621190000000 1.0
C      1  0.5279130000000  0.5646050000000  0.4479790000000 1.0
C      1  0.4899830000000  0.5432070000000  0.4090340000000 1.0
C      1  0.5697870000000  0.5334300000000  0.4385300000000 1.0
C      1  0.5433190000000  0.4902840000000  0.5288520000000 1.0
C      1  0.5593720000000  0.5054310000000  0.5748930000000 1.0
C      1  0.3740870000000  0.4721830000000  0.5034170000000 1.0
C      1  0.5758430000000  0.5262720000000  0.5205730000000 1.0
C      1  0.4469320000000  0.4739990000000  0.5249800000000 1.0
C      1  0.5737590000000  0.5710510000000  0.4970320000000 1.0
C      1  0.5134280000000  0.5802350000000  0.5732780000000 1.0
C      1  0.4293550000000  0.5184860000000  0.5862420000000 1.0
C      1  0.5319540000000  0.5861030000000  0.5504760000000 1.0
C      1  0.5109130000000  0.5158450000000  0.5785830000000 1.0
C      1  0.5065470000000  0.5292070000000  0.3909890000000 1.0
C      1  0.5865470000000  0.4815220000000  0.5066810000000 1.0
C      1  0.5878610000000  0.4735240000000  0.4795410000000 1.0
C      1  0.4839330000000  0.5172370000000  0.4591100000000 1.0
C      1  0.5738980000000  0.4902510000000  0.4611520000000 1.0
C      1  0.4872260000000  0.5446200000000  0.4533850000000 1.0
C      1  0.5391380000000  0.4140830000000  0.5224530000000 1.0
C      1  0.4867780000000  0.4406320000000  0.4120940000000 1.0
C      1  0.3487440000000  0.4661410000000  0.5039360000000 1.0
C      1  0.5549850000000  0.3914250000000  0.3738780000000 1.0
C      1  0.4404950000000  0.4881860000000  0.4791910000000 1.0
C      1  0.4624530000000  0.5326990000000  0.4142380000000 1.0
C      1  0.5077330000000  0.4657070000000  0.5919340000000 1.0
C      1  0.4734920000000  0.5992890000000  0.5321450000000 1.0
C      1  0.4937480000000  0.4502320000000  0.5039600000000 1.0
C      1  0.4467790000000  0.5987730000000  0.4811630000000 1.0
C      1  0.4952360000000  0.5490210000000  0.5411370000000 1.0
C      1  0.4537990000000  0.5648650000000  0.5101600000000 1.0
C      1  0.5032630000000  0.4110940000000  0.4835640000000 1.0
C      1  0.4177140000000  0.4711660000000  0.5589260000000 1.0
C      1  0.4013950000000  0.4791230000000  0.5032230000000 1.0
C      1  0.5476540000000  0.5626870000000  0.4913210000000 1.0
C      1  0.4579830000000  0.5045380000000  0.4207790000000 1.0
C      1  0.4853020000000  0.4234990000000  0.5016450000000 1.0
C      1  0.4501180000000  0.5610720000000  0.5386250000000 1.0
C      1  0.4172690000000  0.4965170000000  0.5743150000000 1.0
C      1  0.5451740000000  0.4124890000000  0.4445270000000 1.0
C      1  0.5034960000000  0.4705650000000  0.4831240000000 1.0
C      1  0.5295220000000  0.4322870000000  0.4297530000000 1.0
C      1  0.4523620000000  0.5101360000000  0.4918680000000 1.0
C      1  0.5248090000000  0.6003990000000  0.4960120000000 1.0
C      1  0.5307810000000  0.4926210000000  0.4151330000000 1.0
C      1  0.5504220000000  0.4586870000000  0.5675860000000 1.0
C      1  0.3924440000000  0.5277450000000  0.5181620000000 1.0
C      1  0.5514070000000  0.4130700000000  0.4721480000000 1.0
C      1  0.5030020000000  0.5477050000000  0.5120250000000 1.0
C      1  0.5266880000000  0.4851320000000  0.4417570000000 1.0
C      1  0.4180020000000  0.4718590000000  0.5283640000000 1.0
C      1  0.4229840000000  0.4448400000000  0.4284790000000 1.0
C      1  0.5555710000000  0.3951170000000  0.4238160000000 1.0
C      1  0.5451920000000  0.5405090000000  0.4505240000000 1.0
C      1  0.5502440000000  0.4851850000000  0.5577140000000 1.0
C      1  0.4527730000000  0.4743900000000  0.4576660000000 1.0
C      1  0.5217270000000  0.6014160000000  0.5259160000000 1.0
C      1  0.4793380000000  0.5124780000000  0.4865140000000 1.0
C      1  0.6082450000000  0.4874290000000  0.5483860000000 1.0
C      1  0.5010020000000  0.4419970000000  0.4390100000000 1.0
C      1  0.5133770000000  0.4922780000000  0.5920220000000 1.0
C      1  0.4199110000000  0.5408560000000  0.4452470000000 1.0
END
