TITL C-599893-4344-1348 55283.3293715729 125000 -1149.84150987748 0 0 187 (C1) n - 1
REM
REM in /home/nfs/bkarasulu/CARBON/AIRSS/Generating-Clusters/TERSOFF/Only-C1/FIRE-HFTN
REM
REM
REM
REM
REM
REM ./C.cell (11c1c37f851c82e70ff6c80c92926a4b)
REM AIRSS Version 0.9.1 bugfix July 2018 build 013d7b7c2542+ Fri, 06 Jul 2018 19:26:36 +0100
REM compiler GCC version 9.2.1 20190827 (Red Hat 9.2.1-1)
REM options -cpp -mtune=generic -march=x86-64 -g -O0 -fpre-include=/usr/include/finclude/math-vector-fortran.h
REM seed -1537609374 1704219886 -420497965 1773561298 2015330226 -1279694280 -614861785 -1352736953 -1257614495 612995089 -1232210137 1598248666 -97099153 -2064567441 -563391392 -2017863330 1214702676 -1145937945 -961630573 1062440642 1758612827 865259367 -2114338697 1482879057 -646294820 -1374960268 -1928535890 -1282802113 12419409 463686783 1968711717 -1561953033 -1833196582
REM
CELL 1.54180   50.00000   50.00000   50.00000   90.00000   90.00000   90.00000
LATT -1
SFAC C  
C      1  0.5596930000000  0.5300960000000  0.4112420000000 1.0
C      1  0.4373900000000  0.5134180000000  0.5518610000000 1.0
C      1  0.5593540000000  0.5273920000000  0.5861290000000 1.0
C      1  0.5342250000000  0.5706930000000  0.4891620000000 1.0
C      1  0.4891320000000  0.5695940000000  0.4902870000000 1.0
C      1  0.5679050000000  0.3901970000000  0.5219420000000 1.0
C      1  0.4396250000000  0.5971220000000  0.5108760000000 1.0
C      1  0.5702540000000  0.5181770000000  0.5123020000000 1.0
C      1  0.5240320000000  0.4329590000000  0.5150660000000 1.0
C      1  0.4423890000000  0.4922550000000  0.5990090000000 1.0
C      1  0.4909510000000  0.4733750000000  0.5113070000000 1.0
C      1  0.4439220000000  0.3815490000000  0.4946750000000 1.0
C      1  0.4781070000000  0.3870260000000  0.4428270000000 1.0
C      1  0.5107850000000  0.5856420000000  0.5783390000000 1.0
C      1  0.4173760000000  0.4559560000000  0.5437930000000 1.0
C      1  0.5663790000000  0.4739630000000  0.5926810000000 1.0
C      1  0.4195370000000  0.4151710000000  0.5205720000000 1.0
C      1  0.4558500000000  0.5287600000000  0.5668240000000 1.0
C      1  0.4651530000000  0.6091910000000  0.4663950000000 1.0
C      1  0.5362020000000  0.3971980000000  0.4583100000000 1.0
C      1  0.4856010000000  0.4841100000000  0.4058190000000 1.0
C      1  0.5320910000000  0.5286740000000  0.4166500000000 1.0
C      1  0.5618710000000  0.5443990000000  0.5214760000000 1.0
C      1  0.5179870000000  0.3972240000000  0.5754180000000 1.0
C      1  0.4125440000000  0.4988860000000  0.4066740000000 1.0
C      1  0.5996230000000  0.5021630000000  0.4147290000000 1.0
C      1  0.4106850000000  0.5242130000000  0.5487940000000 1.0
C      1  0.4373010000000  0.5085230000000  0.4876780000000 1.0
C      1  0.5779280000000  0.5824460000000  0.5458550000000 1.0
C      1  0.4460090000000  0.4906760000000  0.5337240000000 1.0
C      1  0.4639080000000  0.4926490000000  0.4821950000000 1.0
C      1  0.4108830000000  0.4438350000000  0.3801940000000 1.0
C      1  0.4938040000000  0.5526030000000  0.6105450000000 1.0
C      1  0.5332360000000  0.5981460000000  0.5665510000000 1.0
C      1  0.5997270000000  0.5874670000000  0.5279330000000 1.0
C      1  0.6059220000000  0.4696210000000  0.4497890000000 1.0
C      1  0.5481690000000  0.4925230000000  0.4753530000000 1.0
C      1  0.4233120000000  0.5787640000000  0.4952360000000 1.0
C      1  0.4167490000000  0.5258120000000  0.4459630000000 1.0
C      1  0.5316510000000  0.5612850000000  0.4623490000000 1.0
C      1  0.4238130000000  0.5027800000000  0.4611130000000 1.0
C      1  0.4722090000000  0.4478910000000  0.5460560000000 1.0
C      1  0.5440390000000  0.6065210000000  0.4331120000000 1.0
C      1  0.4691410000000  0.3755380000000  0.4877860000000 1.0
C      1  0.5159350000000  0.5389570000000  0.5221710000000 1.0
C      1  0.6600830000000  0.4856530000000  0.5507690000000 1.0
C      1  0.5204090000000  0.4637720000000  0.5658130000000 1.0
C      1  0.5918420000000  0.5778540000000  0.4791530000000 1.0
C      1  0.4929780000000  0.4630930000000  0.5586810000000 1.0
C      1  0.5755040000000  0.4318220000000  0.4658970000000 1.0
C      1  0.4507000000000  0.5283850000000  0.4141000000000 1.0
C      1  0.3957510000000  0.4944760000000  0.5182500000000 1.0
C      1  0.4914000000000  0.5047240000000  0.4232990000000 1.0
C      1  0.4198120000000  0.3953550000000  0.5001810000000 1.0
C      1  0.5616640000000  0.6276080000000  0.4397690000000 1.0
C      1  0.4155830000000  0.4429850000000  0.5176270000000 1.0
C      1  0.5573680000000  0.5832310000000  0.4206550000000 1.0
C      1  0.5260250000000  0.3762210000000  0.5037490000000 1.0
C      1  0.6754810000000  0.4646840000000  0.5524840000000 1.0
C      1  0.4464390000000  0.4619450000000  0.5448570000000 1.0
C      1  0.5453410000000  0.5368140000000  0.4601100000000 1.0
C      1  0.5372380000000  0.5546720000000  0.5127290000000 1.0
C      1  0.5190160000000  0.4100300000000  0.4390230000000 1.0
C      1  0.5621850000000  0.4497100000000  0.5799370000000 1.0
C      1  0.5183580000000  0.5094690000000  0.4319060000000 1.0
C      1  0.4693340000000  0.3809350000000  0.5558140000000 1.0
C      1  0.4931980000000  0.4441740000000  0.4249090000000 1.0
C      1  0.5830750000000  0.4535880000000  0.4485820000000 1.0
C      1  0.4532150000000  0.5885350000000  0.4239330000000 1.0
C      1  0.4769300000000  0.4244050000000  0.5289880000000 1.0
C      1  0.4915000000000  0.6144170000000  0.4537890000000 1.0
C      1  0.4887300000000  0.4331550000000  0.4751760000000 1.0
C      1  0.6422060000000  0.5049360000000  0.5474780000000 1.0
C      1  0.4620700000000  0.4463270000000  0.6008330000000 1.0
C      1  0.5086710000000  0.4670770000000  0.6240570000000 1.0
C      1  0.4243900000000  0.4901850000000  0.5096240000000 1.0
C      1  0.5728120000000  0.5327450000000  0.4686890000000 1.0
C      1  0.5939820000000  0.5940730000000  0.5008270000000 1.0
C      1  0.5581410000000  0.5990700000000  0.5566740000000 1.0
C      1  0.4266450000000  0.5765830000000  0.4661360000000 1.0
C      1  0.5716590000000  0.5547470000000  0.5465050000000 1.0
C      1  0.5348750000000  0.4706750000000  0.4871430000000 1.0
C      1  0.4732440000000  0.5430120000000  0.5488680000000 1.0
C      1  0.5400810000000  0.5471040000000  0.5944830000000 1.0
C      1  0.4463950000000  0.5926060000000  0.4513750000000 1.0
C      1  0.4786550000000  0.5179690000000  0.5136300000000 1.0
C      1  0.5786920000000  0.5347420000000  0.5658360000000 1.0
C      1  0.6139160000000  0.4895560000000  0.4336520000000 1.0
C      1  0.4352810000000  0.4441900000000  0.5885130000000 1.0
C      1  0.3724560000000  0.4151040000000  0.4320280000000 1.0
C      1  0.5691940000000  0.5094780000000  0.4856430000000 1.0
C      1  0.5277240000000  0.5104330000000  0.4603640000000 1.0
C      1  0.5057720000000  0.4403270000000  0.6202930000000 1.0
C      1  0.4489260000000  0.5271340000000  0.5962370000000 1.0
C      1  0.5003880000000  0.5063230000000  0.4768000000000 1.0
C      1  0.5398220000000  0.4437760000000  0.5629060000000 1.0
C      1  0.5169180000000  0.5527730000000  0.4138500000000 1.0
C      1  0.6148170000000  0.5386600000000  0.4940470000000 1.0
C      1  0.4654060000000  0.5954790000000  0.5551310000000 1.0
C      1  0.5432080000000  0.4463400000000  0.4985170000000 1.0
C      1  0.4258690000000  0.5469160000000  0.5977040000000 1.0
C      1  0.4627380000000  0.6071060000000  0.4960600000000 1.0
C      1  0.5407510000000  0.3829290000000  0.5274580000000 1.0
C      1  0.4290080000000  0.4218340000000  0.5710290000000 1.0
C      1  0.6219270000000  0.5418770000000  0.5216570000000 1.0
C      1  0.5764310000000  0.6457380000000  0.4522410000000 1.0
C      1  0.4845610000000  0.5980280000000  0.5762100000000 1.0
C      1  0.5226080000000  0.5003290000000  0.3782550000000 1.0
C      1  0.4936750000000  0.4034720000000  0.5901010000000 1.0
C      1  0.5757420000000  0.5009820000000  0.5336430000000 1.0
C      1  0.5940600000000  0.5140870000000  0.5518130000000 1.0
C      1  0.5329290000000  0.4261280000000  0.5418210000000 1.0
C      1  0.5620040000000  0.4110020000000  0.4505560000000 1.0
C      1  0.5894970000000  0.6622950000000  0.4675660000000 1.0
C      1  0.5529140000000  0.4989920000000  0.5868000000000 1.0
C      1  0.5945860000000  0.5496570000000  0.4765180000000 1.0
C      1  0.4185670000000  0.5537360000000  0.5089880000000 1.0
C      1  0.4055170000000  0.4758990000000  0.5621570000000 1.0
C      1  0.5031950000000  0.5229990000000  0.5017970000000 1.0
C      1  0.4785110000000  0.5298780000000  0.4585070000000 1.0
C      1  0.4647190000000  0.4057190000000  0.4279710000000 1.0
C      1  0.4156890000000  0.5527380000000  0.4547380000000 1.0
C      1  0.4861930000000  0.5927850000000  0.5034740000000 1.0
C      1  0.4711420000000  0.5382010000000  0.6125640000000 1.0
C      1  0.5080440000000  0.5099450000000  0.5654660000000 1.0
C      1  0.4197590000000  0.5676420000000  0.5810970000000 1.0
C      1  0.4104740000000  0.5513570000000  0.5367430000000 1.0
C      1  0.4744340000000  0.3841900000000  0.5822300000000 1.0
C      1  0.5718480000000  0.5035410000000  0.4093750000000 1.0
C      1  0.4916630000000  0.4860480000000  0.6116470000000 1.0
C      1  0.4612360000000  0.4022270000000  0.5394420000000 1.0
C      1  0.5330930000000  0.4149000000000  0.4144280000000 1.0
C      1  0.5774140000000  0.4126030000000  0.5101960000000 1.0
C      1  0.4792360000000  0.5538100000000  0.4713040000000 1.0
C      1  0.4239060000000  0.5215530000000  0.4188830000000 1.0
C      1  0.4300540000000  0.4728130000000  0.4426200000000 1.0
C      1  0.4564500000000  0.5426330000000  0.3908210000000 1.0
C      1  0.5667230000000  0.4532280000000  0.4237400000000 1.0
C      1  0.3952720000000  0.4993360000000  0.5469160000000 1.0
C      1  0.4042820000000  0.4499880000000  0.4060410000000 1.0
C      1  0.4147890000000  0.4731990000000  0.4182100000000 1.0
C      1  0.5331210000000  0.4920700000000  0.5643670000000 1.0
C      1  0.4652620000000  0.4345430000000  0.4251310000000 1.0
C      1  0.6199990000000  0.5204600000000  0.5409750000000 1.0
C      1  0.4410730000000  0.5909650000000  0.5403150000000 1.0
C      1  0.5027340000000  0.5359160000000  0.5488870000000 1.0
C      1  0.4715610000000  0.5218150000000  0.4329680000000 1.0
C      1  0.6214790000000  0.5689620000000  0.5308210000000 1.0
C      1  0.5161320000000  0.6112910000000  0.4416960000000 1.0
C      1  0.4622490000000  0.5390980000000  0.5214310000000 1.0
C      1  0.4630430000000  0.4458740000000  0.4697820000000 1.0
C      1  0.5185100000000  0.3821280000000  0.4766750000000 1.0
C      1  0.5160530000000  0.5666150000000  0.4387420000000 1.0
C      1  0.5297010000000  0.3987130000000  0.5494040000000 1.0
C      1  0.4288890000000  0.4616710000000  0.4998630000000 1.0
C      1  0.4880220000000  0.4908340000000  0.5532400000000 1.0
C      1  0.4895970000000  0.3795410000000  0.4684160000000 1.0
C      1  0.4767280000000  0.5618510000000  0.3892070000000 1.0
C      1  0.5050320000000  0.4629210000000  0.4064710000000 1.0
C      1  0.4338800000000  0.4096790000000  0.5449550000000 1.0
C      1  0.3969980000000  0.3893980000000  0.4863370000000 1.0
C      1  0.5074900000000  0.4785760000000  0.4894550000000 1.0
C      1  0.4961410000000  0.4277000000000  0.5055440000000 1.0
C      1  0.5679770000000  0.4329860000000  0.4929930000000 1.0
C      1  0.5037110000000  0.4314750000000  0.4493530000000 1.0
C      1  0.5588130000000  0.4247260000000  0.4227200000000 1.0
C      1  0.4694550000000  0.5873530000000  0.4003710000000 1.0
C      1  0.4227750000000  0.4728010000000  0.5865250000000 1.0
C      1  0.4545590000000  0.4652790000000  0.4871080000000 1.0
C      1  0.5027940000000  0.5502140000000  0.3891010000000 1.0
C      1  0.5296930000000  0.4768080000000  0.3958300000000 1.0
C      1  0.3873580000000  0.4331750000000  0.4206100000000 1.0
C      1  0.4775420000000  0.6104540000000  0.3880810000000 1.0
C      1  0.5675070000000  0.5583670000000  0.4133730000000 1.0
C      1  0.3741470000000  0.4941300000000  0.5017570000000 1.0
C      1  0.5522960000000  0.4884280000000  0.5418280000000 1.0
C      1  0.5564850000000  0.4771110000000  0.4090160000000 1.0
C      1  0.4749980000000  0.4932300000000  0.5270950000000 1.0
C      1  0.5156060000000  0.5623010000000  0.5951450000000 1.0
C      1  0.4773610000000  0.6145640000000  0.5971350000000 1.0
C      1  0.4394120000000  0.5353970000000  0.5033560000000 1.0
C      1  0.5012810000000  0.5069940000000  0.5951310000000 1.0
C      1  0.4211690000000  0.5729720000000  0.5531340000000 1.0
C      1  0.5109960000000  0.5254570000000  0.3749650000000 1.0
C      1  0.4499090000000  0.4501250000000  0.4442980000000 1.0
C      1  0.4653450000000  0.4759230000000  0.6067770000000 1.0
C      1  0.4857060000000  0.4281900000000  0.6037530000000 1.0
END
