TITL C-599893-4344-1317 93669.2284875173 125000 -1168.50637268202 0 0 192 (C1) n - 1
REM
REM in /home/nfs/bkarasulu/CARBON/AIRSS/Generating-Clusters/TERSOFF/Only-C1/FIRE-HFTN
REM
REM
REM
REM
REM
REM ./C.cell (11c1c37f851c82e70ff6c80c92926a4b)
REM AIRSS Version 0.9.1 bugfix July 2018 build 013d7b7c2542+ Fri, 06 Jul 2018 19:26:36 +0100
REM compiler GCC version 9.2.1 20190827 (Red Hat 9.2.1-1)
REM options -cpp -mtune=generic -march=x86-64 -g -O0 -fpre-include=/usr/include/finclude/math-vector-fortran.h
REM seed 1803981853 -1930126411 1052198188 -280771068 483080213 -231496927 -845298907 -1310085525 1198568927 1318189444 81412225 1728042966 -1763487920 -1526178993 -1859683325 1111865291 1247941716 -980476676 926579969 -1401010083 1575649458 575436301 -666259351 -335034434 -1475682089 1591866208 1283368403 -1252863306 1793826267 -850897118 -274628962 683203153 1173962554
REM
CELL 1.54180   50.00000   50.00000   50.00000   90.00000   90.00000   90.00000
LATT -1
SFAC C  
C      1  0.5487500000000  0.4946430000000  0.4154920000000 1.0
C      1  0.4782470000000  0.5564750000000  0.4165740000000 1.0
C      1  0.5977740000000  0.5391690000000  0.4295200000000 1.0
C      1  0.4059520000000  0.3454400000000  0.4821960000000 1.0
C      1  0.5862710000000  0.5816300000000  0.5216980000000 1.0
C      1  0.5237030000000  0.4731730000000  0.4609110000000 1.0
C      1  0.5518970000000  0.5656010000000  0.4762810000000 1.0
C      1  0.5716200000000  0.4980910000000  0.6041850000000 1.0
C      1  0.4866610000000  0.6187490000000  0.4200800000000 1.0
C      1  0.5156430000000  0.4324160000000  0.5676340000000 1.0
C      1  0.6055410000000  0.5589320000000  0.4780970000000 1.0
C      1  0.4419120000000  0.4558320000000  0.5843760000000 1.0
C      1  0.5460950000000  0.5202280000000  0.4661010000000 1.0
C      1  0.5503980000000  0.5491080000000  0.4046590000000 1.0
C      1  0.4960300000000  0.5208210000000  0.4899730000000 1.0
C      1  0.5422290000000  0.4587210000000  0.6041290000000 1.0
C      1  0.5645030000000  0.4189040000000  0.5427070000000 1.0
C      1  0.5102430000000  0.4980260000000  0.4551920000000 1.0
C      1  0.5758070000000  0.5352520000000  0.4086870000000 1.0
C      1  0.5810410000000  0.5821810000000  0.4428540000000 1.0
C      1  0.5686970000000  0.4696590000000  0.5977260000000 1.0
C      1  0.5563180000000  0.5857510000000  0.4557230000000 1.0
C      1  0.4761660000000  0.3800630000000  0.4804490000000 1.0
C      1  0.4815120000000  0.4225570000000  0.4937780000000 1.0
C      1  0.5287640000000  0.4829110000000  0.6134330000000 1.0
C      1  0.5768740000000  0.3711000000000  0.4720670000000 1.0
C      1  0.5035270000000  0.3969100000000  0.5278780000000 1.0
C      1  0.4508130000000  0.4498840000000  0.5315710000000 1.0
C      1  0.4727670000000  0.5061350000000  0.3905770000000 1.0
C      1  0.4653170000000  0.5237930000000  0.6064840000000 1.0
C      1  0.4340670000000  0.5854490000000  0.5749890000000 1.0
C      1  0.4406330000000  0.4840510000000  0.5865090000000 1.0
C      1  0.4414720000000  0.4130030000000  0.4691970000000 1.0
C      1  0.4411000000000  0.4446990000000  0.5058400000000 1.0
C      1  0.5893840000000  0.4625930000000  0.5800190000000 1.0
C      1  0.5180880000000  0.4408670000000  0.5962150000000 1.0
C      1  0.6297800000000  0.5043460000000  0.4500860000000 1.0
C      1  0.6370820000000  0.4840580000000  0.4656780000000 1.0
C      1  0.5983070000000  0.5601870000000  0.4494020000000 1.0
C      1  0.4240500000000  0.4865840000000  0.5124230000000 1.0
C      1  0.3777740000000  0.5025990000000  0.5304690000000 1.0
C      1  0.3873270000000  0.4526510000000  0.5473550000000 1.0
C      1  0.5487830000000  0.3752120000000  0.4741010000000 1.0
C      1  0.4264810000000  0.5330940000000  0.5243720000000 1.0
C      1  0.4249280000000  0.4583780000000  0.4569880000000 1.0
C      1  0.6124210000000  0.5139150000000  0.4306570000000 1.0
C      1  0.4674880000000  0.4042490000000  0.4327010000000 1.0
C      1  0.4992820000000  0.4368700000000  0.4772970000000 1.0
C      1  0.4207630000000  0.5741780000000  0.5024450000000 1.0
C      1  0.5867370000000  0.3458110000000  0.4655150000000 1.0
C      1  0.4919150000000  0.5157890000000  0.4367050000000 1.0
C      1  0.5944750000000  0.5576060000000  0.5056850000000 1.0
C      1  0.4333620000000  0.4321960000000  0.4492420000000 1.0
C      1  0.6257640000000  0.4349120000000  0.4796310000000 1.0
C      1  0.5918920000000  0.5556190000000  0.5621520000000 1.0
C      1  0.4641550000000  0.3547740000000  0.5613450000000 1.0
C      1  0.5308920000000  0.5408710000000  0.4244860000000 1.0
C      1  0.4675450000000  0.4143530000000  0.5614380000000 1.0
C      1  0.5366970000000  0.3743500000000  0.4994620000000 1.0
C      1  0.6253220000000  0.5197950000000  0.6601330000000 1.0
C      1  0.5577030000000  0.5191940000000  0.5898460000000 1.0
C      1  0.4532660000000  0.4248190000000  0.4916870000000 1.0
C      1  0.5011400000000  0.5448840000000  0.4336980000000 1.0
C      1  0.4810130000000  0.5188530000000  0.3670870000000 1.0
C      1  0.5740410000000  0.5361030000000  0.5079840000000 1.0
C      1  0.4539590000000  0.5709540000000  0.5893260000000 1.0
C      1  0.5026220000000  0.5684380000000  0.5171970000000 1.0
C      1  0.4836830000000  0.4780450000000  0.6056990000000 1.0
C      1  0.5171340000000  0.5356430000000  0.6173370000000 1.0
C      1  0.4591840000000  0.5192410000000  0.5339010000000 1.0
C      1  0.4275470000000  0.5762350000000  0.5493710000000 1.0
C      1  0.3932660000000  0.5564740000000  0.4528920000000 1.0
C      1  0.5010350000000  0.5900280000000  0.4576770000000 1.0
C      1  0.5226130000000  0.4853360000000  0.5249510000000 1.0
C      1  0.5074970000000  0.4912480000000  0.5973380000000 1.0
C      1  0.5736980000000  0.5048690000000  0.4038440000000 1.0
C      1  0.5211880000000  0.5504170000000  0.3622460000000 1.0
C      1  0.5442200000000  0.5378880000000  0.6080520000000 1.0
C      1  0.4458630000000  0.5043220000000  0.4008960000000 1.0
C      1  0.5010530000000  0.6073100000000  0.5452540000000 1.0
C      1  0.4381600000000  0.5763630000000  0.4370850000000 1.0
C      1  0.5017290000000  0.6196360000000  0.4958300000000 1.0
C      1  0.4845000000000  0.5584560000000  0.5337000000000 1.0
C      1  0.4283270000000  0.5298770000000  0.4761990000000 1.0
C      1  0.4283040000000  0.5011090000000  0.5669160000000 1.0
C      1  0.5149340000000  0.4590890000000  0.4840750000000 1.0
C      1  0.4902100000000  0.5327570000000  0.6175360000000 1.0
C      1  0.5001340000000  0.5916760000000  0.5709410000000 1.0
C      1  0.4299210000000  0.5304570000000  0.5718830000000 1.0
C      1  0.4426150000000  0.5204010000000  0.4560380000000 1.0
C      1  0.3775400000000  0.5356820000000  0.4944720000000 1.0
C      1  0.4140110000000  0.5753840000000  0.4534060000000 1.0
C      1  0.4487360000000  0.5420900000000  0.5915120000000 1.0
C      1  0.4457040000000  0.3983200000000  0.5510510000000 1.0
C      1  0.4340120000000  0.5887030000000  0.5243460000000 1.0
C      1  0.5250090000000  0.4699520000000  0.4044200000000 1.0
C      1  0.4930360000000  0.6326400000000  0.3989760000000 1.0
C      1  0.4839330000000  0.6127530000000  0.5188800000000 1.0
C      1  0.4332390000000  0.5467370000000  0.4996500000000 1.0
C      1  0.4224630000000  0.5475230000000  0.5494160000000 1.0
C      1  0.4961400000000  0.4137720000000  0.5526970000000 1.0
C      1  0.4809720000000  0.6026070000000  0.4419390000000 1.0
C      1  0.4983650000000  0.5610110000000  0.4600080000000 1.0
C      1  0.3560650000000  0.5516820000000  0.5009220000000 1.0
C      1  0.5307580000000  0.5298770000000  0.5241580000000 1.0
C      1  0.4181880000000  0.4888200000000  0.5419520000000 1.0
C      1  0.4554420000000  0.4504990000000  0.4059590000000 1.0
C      1  0.5516770000000  0.3957710000000  0.5393610000000 1.0
C      1  0.5165820000000  0.3954260000000  0.4360910000000 1.0
C      1  0.5696220000000  0.5988090000000  0.5059680000000 1.0
C      1  0.6074960000000  0.5122110000000  0.6426890000000 1.0
C      1  0.4917800000000  0.5015440000000  0.4106600000000 1.0
C      1  0.5099140000000  0.4984070000000  0.5699220000000 1.0
C      1  0.5298620000000  0.6010600000000  0.5372560000000 1.0
C      1  0.4654110000000  0.4708820000000  0.5394270000000 1.0
C      1  0.4993180000000  0.5358220000000  0.3574900000000 1.0
C      1  0.5956230000000  0.3219660000000  0.4598900000000 1.0
C      1  0.5124630000000  0.4513410000000  0.3848530000000 1.0
C      1  0.3862260000000  0.5084090000000  0.4530490000000 1.0
C      1  0.4551140000000  0.5970310000000  0.4510040000000 1.0
C      1  0.5944710000000  0.3923380000000  0.4768080000000 1.0
C      1  0.4588920000000  0.3917970000000  0.4587430000000 1.0
C      1  0.4575320000000  0.4346270000000  0.5788150000000 1.0
C      1  0.4947620000000  0.4127390000000  0.4348110000000 1.0
C      1  0.5579960000000  0.4461800000000  0.5431720000000 1.0
C      1  0.5934300000000  0.4770480000000  0.5556800000000 1.0
C      1  0.5016300000000  0.4764730000000  0.4186430000000 1.0
C      1  0.5774040000000  0.4658270000000  0.5347040000000 1.0
C      1  0.5222120000000  0.4792750000000  0.5520250000000 1.0
C      1  0.6351870000000  0.4593840000000  0.4753850000000 1.0
C      1  0.4194290000000  0.5889750000000  0.4783510000000 1.0
C      1  0.3840250000000  0.5331600000000  0.4664340000000 1.0
C      1  0.5592730000000  0.5587190000000  0.6181070000000 1.0
C      1  0.5598780000000  0.5386380000000  0.4815220000000 1.0
C      1  0.3903070000000  0.4803230000000  0.5431230000000 1.0
C      1  0.5011220000000  0.5251340000000  0.5628070000000 1.0
C      1  0.5163080000000  0.6090350000000  0.4731230000000 1.0
C      1  0.4201140000000  0.3518050000000  0.5031370000000 1.0
C      1  0.5244980000000  0.5741600000000  0.5725390000000 1.0
C      1  0.5405850000000  0.5567420000000  0.3795610000000 1.0
C      1  0.4493110000000  0.5559810000000  0.4192510000000 1.0
C      1  0.6042210000000  0.5038220000000  0.5563800000000 1.0
C      1  0.4610040000000  0.4950310000000  0.6032200000000 1.0
C      1  0.3998970000000  0.4287850000000  0.5489000000000 1.0
C      1  0.4627180000000  0.4795700000000  0.4819570000000 1.0
C      1  0.5201480000000  0.5148040000000  0.4763280000000 1.0
C      1  0.4197800000000  0.4105690000000  0.5493510000000 1.0
C      1  0.5178170000000  0.5467290000000  0.5711810000000 1.0
C      1  0.4368440000000  0.5312520000000  0.4090410000000 1.0
C      1  0.5807310000000  0.4723920000000  0.5084180000000 1.0
C      1  0.4951260000000  0.4372830000000  0.4488880000000 1.0
C      1  0.4857070000000  0.5462390000000  0.4818780000000 1.0
C      1  0.4354400000000  0.4692000000000  0.4897900000000 1.0
C      1  0.4492720000000  0.4274770000000  0.4245410000000 1.0
C      1  0.5340990000000  0.3822650000000  0.4512610000000 1.0
C      1  0.5067770000000  0.4766300000000  0.5042530000000 1.0
C      1  0.4790300000000  0.5838270000000  0.5879320000000 1.0
C      1  0.5301810000000  0.3864020000000  0.5241400000000 1.0
C      1  0.3941770000000  0.4894900000000  0.4336320000000 1.0
C      1  0.4486540000000  0.3707040000000  0.5453850000000 1.0
C      1  0.4558950000000  0.6048260000000  0.5094050000000 1.0
C      1  0.5995750000000  0.4954880000000  0.4125090000000 1.0
C      1  0.5597010000000  0.5221310000000  0.5603350000000 1.0
C      1  0.6038290000000  0.5308900000000  0.5606910000000 1.0
C      1  0.5255740000000  0.4380600000000  0.3651190000000 1.0
C      1  0.6112500000000  0.4126770000000  0.4797810000000 1.0
C      1  0.4867650000000  0.4627750000000  0.4390340000000 1.0
C      1  0.4620180000000  0.5538380000000  0.4941860000000 1.0
C      1  0.4682480000000  0.4950800000000  0.5258030000000 1.0
C      1  0.4193440000000  0.4757540000000  0.4347260000000 1.0
C      1  0.5258020000000  0.5829550000000  0.5153930000000 1.0
C      1  0.4651130000000  0.5074080000000  0.4470050000000 1.0
C      1  0.4688360000000  0.4796590000000  0.4544060000000 1.0
C      1  0.5467230000000  0.5856220000000  0.5566860000000 1.0
C      1  0.5894640000000  0.5049780000000  0.6246820000000 1.0
C      1  0.4815420000000  0.4485880000000  0.3897370000000 1.0
C      1  0.4881530000000  0.3962380000000  0.5027740000000 1.0
C      1  0.4387840000000  0.4768720000000  0.4116970000000 1.0
C      1  0.5756330000000  0.5761230000000  0.5492620000000 1.0
C      1  0.4349230000000  0.3597320000000  0.5236270000000 1.0
C      1  0.4791430000000  0.5342860000000  0.5463380000000 1.0
C      1  0.4823020000000  0.4939050000000  0.4999790000000 1.0
C      1  0.3770420000000  0.4837990000000  0.4129530000000 1.0
C      1  0.5636190000000  0.6199750000000  0.4875330000000 1.0
C      1  0.4459990000000  0.6032730000000  0.4785910000000 1.0
C      1  0.4926760000000  0.4502960000000  0.6082930000000 1.0
C      1  0.3913830000000  0.5230870000000  0.5158840000000 1.0
C      1  0.5574680000000  0.5284190000000  0.5314470000000 1.0
C      1  0.5449250000000  0.6110260000000  0.4667020000000 1.0
C      1  0.5321010000000  0.4523510000000  0.5540990000000 1.0
C      1  0.5441560000000  0.5169000000000  0.4367920000000 1.0
C      1  0.5477250000000  0.5800920000000  0.4998410000000 1.0
END
