TITL C-599895-9959-1147 0.000407495697710106 125000 -363.481784284125 0 0 61 (C1) n - 1
REM
REM in /home/nfs/bkarasulu/CARBON/AIRSS/Generating-Clusters/TERSOFF/Only-C1/FIRE-HFTN
REM
REM
REM
REM
REM
REM ./C.cell (11c1c37f851c82e70ff6c80c92926a4b)
REM AIRSS Version 0.9.1 bugfix July 2018 build 013d7b7c2542+ Fri, 06 Jul 2018 19:26:36 +0100
REM compiler GCC version 9.2.1 20190827 (Red Hat 9.2.1-1)
REM options -cpp -mtune=generic -march=x86-64 -g -O0 -fpre-include=/usr/include/finclude/math-vector-fortran.h
REM seed 772812595 2130645487 -25149224 -1641365311 1848865154 558936880 1297697923 1158448419 1094266339 -608861722 1008905505 1948741263 -2129633713 -1789715836 -703518609 1463068469 -537067984 216338700 642966252 653870702 1617038222 1277223428 1874068740 1902709606 -1077609291 -835127494 1337003294 -1382693890 1318706230 -1490451533 -397712066 1207925877 327824638
REM
CELL 1.54180   50.00000   50.00000   50.00000   90.00000   90.00000   90.00000
LATT -1
SFAC C  
C      1  0.4348900000000  0.5742150000000  0.5183290000000 1.0
C      1  0.5687690000000  0.4833000000000  0.5201860000000 1.0
C      1  0.4808560000000  0.5896160000000  0.5192130000000 1.0
C      1  0.4724750000000  0.5424590000000  0.5224270000000 1.0
C      1  0.5050600000000  0.5119380000000  0.5537480000000 1.0
C      1  0.5537020000000  0.4475170000000  0.4977500000000 1.0
C      1  0.4522710000000  0.5018200000000  0.4553400000000 1.0
C      1  0.5379590000000  0.5105020000000  0.4942850000000 1.0
C      1  0.5096730000000  0.5319360000000  0.4186200000000 1.0
C      1  0.4543620000000  0.4671480000000  0.4907140000000 1.0
C      1  0.5527460000000  0.4501050000000  0.5484370000000 1.0
C      1  0.4660750000000  0.4823980000000  0.5606320000000 1.0
C      1  0.5117760000000  0.5105450000000  0.5067880000000 1.0
C      1  0.5078180000000  0.5833820000000  0.5131580000000 1.0
C      1  0.4536600000000  0.4142020000000  0.5319750000000 1.0
C      1  0.4807080000000  0.5407060000000  0.4594690000000 1.0
C      1  0.5638270000000  0.5483990000000  0.4759960000000 1.0
C      1  0.4551240000000  0.5282600000000  0.4666750000000 1.0
C      1  0.4338220000000  0.5175810000000  0.5353200000000 1.0
C      1  0.5223240000000  0.5062230000000  0.3777420000000 1.0
C      1  0.5269360000000  0.5304220000000  0.5572730000000 1.0
C      1  0.4168860000000  0.4692320000000  0.4596670000000 1.0
C      1  0.4852600000000  0.4765540000000  0.3896830000000 1.0
C      1  0.5126880000000  0.4224300000000  0.5024920000000 1.0
C      1  0.5590620000000  0.4739750000000  0.5637380000000 1.0
C      1  0.4933400000000  0.5328570000000  0.5042840000000 1.0
C      1  0.4276850000000  0.4957680000000  0.5206360000000 1.0
C      1  0.5250560000000  0.4446420000000  0.5443070000000 1.0
C      1  0.4949020000000  0.4625910000000  0.4651120000000 1.0
C      1  0.4600810000000  0.5259450000000  0.5417600000000 1.0
C      1  0.5225820000000  0.5587230000000  0.5592230000000 1.0
C      1  0.5094270000000  0.4949070000000  0.5305820000000 1.0
C      1  0.5537500000000  0.5344810000000  0.4970990000000 1.0
C      1  0.4852970000000  0.4268780000000  0.4954440000000 1.0
C      1  0.4966650000000  0.5494630000000  0.4809360000000 1.0
C      1  0.5232160000000  0.5254240000000  0.3965010000000 1.0
C      1  0.5109010000000  0.5737780000000  0.4861270000000 1.0
C      1  0.5391110000000  0.4189200000000  0.4616030000000 1.0
C      1  0.5178310000000  0.4211960000000  0.5304740000000 1.0
C      1  0.5530150000000  0.5228180000000  0.5462900000000 1.0
C      1  0.4727150000000  0.4840680000000  0.4120710000000 1.0
C      1  0.4659950000000  0.4108920000000  0.5083120000000 1.0
C      1  0.5353040000000  0.4297260000000  0.4863970000000 1.0
C      1  0.4407520000000  0.4795320000000  0.4683380000000 1.0
C      1  0.4764590000000  0.5091300000000  0.5582620000000 1.0
C      1  0.5661470000000  0.4531590000000  0.5225030000000 1.0
C      1  0.5226810000000  0.5743530000000  0.5354470000000 1.0
C      1  0.4546890000000  0.4634330000000  0.5425400000000 1.0
C      1  0.4713560000000  0.5021810000000  0.4331960000000 1.0
C      1  0.5537850000000  0.4873280000000  0.4961190000000 1.0
C      1  0.5059030000000  0.4851120000000  0.3747850000000 1.0
C      1  0.5613890000000  0.5389190000000  0.5240920000000 1.0
C      1  0.5183090000000  0.5704210000000  0.5835750000000 1.0
C      1  0.4616120000000  0.5690910000000  0.5202590000000 1.0
C      1  0.5105550000000  0.4676790000000  0.5364720000000 1.0
C      1  0.4449570000000  0.4734980000000  0.5171720000000 1.0
C      1  0.4514190000000  0.4360390000000  0.5474480000000 1.0
C      1  0.5238940000000  0.5880530000000  0.4668740000000 1.0
C      1  0.5638140000000  0.4964540000000  0.5461860000000 1.0
C      1  0.4778600000000  0.4519770000000  0.4839490000000 1.0
C      1  0.4888160000000  0.5256950000000  0.4359710000000 1.0
END
