TITL C-599897-7526-1229 1294.81360352098 125000 -939.292900687243 0 0 157 (C1) n - 1
REM
REM in /home/nfs/bkarasulu/CARBON/AIRSS/Generating-Clusters/TERSOFF/Only-C1/FIRE-HFTN
REM
REM
REM
REM
REM
REM ./C.cell (11c1c37f851c82e70ff6c80c92926a4b)
REM AIRSS Version 0.9.1 bugfix July 2018 build 013d7b7c2542+ Fri, 06 Jul 2018 19:26:36 +0100
REM compiler GCC version 9.2.1 20190827 (Red Hat 9.2.1-1)
REM options -cpp -mtune=generic -march=x86-64 -g -O0 -fpre-include=/usr/include/finclude/math-vector-fortran.h
REM seed -278701983 -1637713645 1412424883 1246960014 646462806 1549351216 -1680732303 -418910394 -636024448 -840784966 1437791104 1476316133 1004797216 -1683119754 -404946719 25315628 -1765654922 1389926980 -1508432528 -296732733 2130325607 607772765 1899616721 -755656629 868680451 -625462835 1009253004 1867589276 410237163 -1994515859 -755173814 1755656224 47367740
REM
CELL 1.54180   50.00000   50.00000   50.00000   90.00000   90.00000   90.00000
LATT -1
SFAC C  
C      1  0.4564270000000  0.5742550000000  0.4074290000000 1.0
C      1  0.5711140000000  0.4901330000000  0.4174920000000 1.0
C      1  0.4398790000000  0.5653200000000  0.4643820000000 1.0
C      1  0.5863460000000  0.6172710000000  0.4947230000000 1.0
C      1  0.4343720000000  0.3431690000000  0.4783110000000 1.0
C      1  0.4455780000000  0.5784210000000  0.5522380000000 1.0
C      1  0.4389260000000  0.4241460000000  0.4319350000000 1.0
C      1  0.4875790000000  0.6295120000000  0.5143350000000 1.0
C      1  0.5371100000000  0.5309220000000  0.3998280000000 1.0
C      1  0.6001400000000  0.4146090000000  0.4698740000000 1.0
C      1  0.6100520000000  0.5094140000000  0.4695020000000 1.0
C      1  0.4728350000000  0.5668530000000  0.5131950000000 1.0
C      1  0.4164780000000  0.4329130000000  0.5207340000000 1.0
C      1  0.6152890000000  0.4953230000000  0.5157100000000 1.0
C      1  0.4607580000000  0.4087170000000  0.4369720000000 1.0
C      1  0.4981750000000  0.4654470000000  0.5896010000000 1.0
C      1  0.5512140000000  0.4651940000000  0.4865870000000 1.0
C      1  0.5754500000000  0.4071210000000  0.4765660000000 1.0
C      1  0.4802620000000  0.5369140000000  0.4097210000000 1.0
C      1  0.5126570000000  0.5923300000000  0.5129110000000 1.0
C      1  0.5964700000000  0.5386890000000  0.5075530000000 1.0
C      1  0.3938650000000  0.5502640000000  0.5184960000000 1.0
C      1  0.5753980000000  0.5222010000000  0.4305450000000 1.0
C      1  0.5125420000000  0.5168530000000  0.5795350000000 1.0
C      1  0.5790660000000  0.5737830000000  0.4351370000000 1.0
C      1  0.4453240000000  0.5241220000000  0.5065050000000 1.0
C      1  0.4322170000000  0.4754090000000  0.5507050000000 1.0
C      1  0.3853280000000  0.4761110000000  0.5232340000000 1.0
C      1  0.4866300000000  0.4258600000000  0.5222470000000 1.0
C      1  0.5728440000000  0.4735260000000  0.5920830000000 1.0
C      1  0.5383890000000  0.5086940000000  0.4489860000000 1.0
C      1  0.5612180000000  0.5732800000000  0.5141130000000 1.0
C      1  0.4077650000000  0.5003290000000  0.4418970000000 1.0
C      1  0.4770010000000  0.5260190000000  0.5427770000000 1.0
C      1  0.5168850000000  0.5739550000000  0.5614930000000 1.0
C      1  0.4275590000000  0.5656990000000  0.5711350000000 1.0
C      1  0.5285940000000  0.5550220000000  0.3911260000000 1.0
C      1  0.5333710000000  0.4829610000000  0.6192290000000 1.0
C      1  0.5577600000000  0.5569360000000  0.4338110000000 1.0
C      1  0.5301700000000  0.5118060000000  0.4196030000000 1.0
C      1  0.4498680000000  0.5006030000000  0.4669170000000 1.0
C      1  0.4450890000000  0.5718210000000  0.5230700000000 1.0
C      1  0.6252050000000  0.4590640000000  0.4605510000000 1.0
C      1  0.4952650000000  0.5933650000000  0.5573620000000 1.0
C      1  0.6088220000000  0.5156890000000  0.4973280000000 1.0
C      1  0.4692470000000  0.4725410000000  0.4018050000000 1.0
C      1  0.5119700000000  0.5903540000000  0.4532730000000 1.0
C      1  0.4401970000000  0.4027810000000  0.5534840000000 1.0
C      1  0.5576080000000  0.4344940000000  0.4166480000000 1.0
C      1  0.5416260000000  0.4829380000000  0.4631890000000 1.0
C      1  0.6175580000000  0.4337950000000  0.4637860000000 1.0
C      1  0.4909740000000  0.5276270000000  0.4868150000000 1.0
C      1  0.4044350000000  0.4585070000000  0.5125360000000 1.0
C      1  0.5239310000000  0.5078360000000  0.5211880000000 1.0
C      1  0.5752860000000  0.4398900000000  0.5552920000000 1.0
C      1  0.4633340000000  0.5056110000000  0.5854910000000 1.0
C      1  0.5052050000000  0.4914590000000  0.5125460000000 1.0
C      1  0.5364380000000  0.4173260000000  0.4226700000000 1.0
C      1  0.5509880000000  0.4313100000000  0.5973190000000 1.0
C      1  0.5358970000000  0.4393680000000  0.4813570000000 1.0
C      1  0.5115250000000  0.3916170000000  0.5541670000000 1.0
C      1  0.4590410000000  0.5329960000000  0.4307220000000 1.0
C      1  0.5982210000000  0.6396410000000  0.4869080000000 1.0
C      1  0.5520850000000  0.4910990000000  0.5994470000000 1.0
C      1  0.5332490000000  0.4097820000000  0.5590770000000 1.0
C      1  0.4883900000000  0.4059400000000  0.4455100000000 1.0
C      1  0.5125600000000  0.5708850000000  0.4084800000000 1.0
C      1  0.4718470000000  0.5624520000000  0.5927290000000 1.0
C      1  0.4256600000000  0.4467200000000  0.4443750000000 1.0
C      1  0.4887740000000  0.5490100000000  0.5307780000000 1.0
C      1  0.5356990000000  0.5307070000000  0.4660510000000 1.0
C      1  0.4119230000000  0.5467000000000  0.4263830000000 1.0
C      1  0.3793650000000  0.5281100000000  0.5236350000000 1.0
C      1  0.5753970000000  0.5496080000000  0.5223590000000 1.0
C      1  0.5025440000000  0.5164420000000  0.6075010000000 1.0
C      1  0.5396390000000  0.4511770000000  0.5310910000000 1.0
C      1  0.4874510000000  0.4550960000000  0.4794610000000 1.0
C      1  0.4607220000000  0.5031360000000  0.4389680000000 1.0
C      1  0.5147300000000  0.5374570000000  0.4806520000000 1.0
C      1  0.5347320000000  0.5750070000000  0.5819800000000 1.0
C      1  0.4244930000000  0.4208290000000  0.4948950000000 1.0
C      1  0.4933620000000  0.4263760000000  0.4026030000000 1.0
C      1  0.5712390000000  0.4467570000000  0.5833030000000 1.0
C      1  0.4379070000000  0.5529550000000  0.4176730000000 1.0
C      1  0.4067230000000  0.5298920000000  0.4484140000000 1.0
C      1  0.5505400000000  0.4155830000000  0.4811660000000 1.0
C      1  0.5184220000000  0.5550270000000  0.5370810000000 1.0
C      1  0.5610160000000  0.5334340000000  0.5406880000000 1.0
C      1  0.4897070000000  0.4974440000000  0.4446470000000 1.0
C      1  0.4251570000000  0.3937410000000  0.4891390000000 1.0
C      1  0.4833250000000  0.5175220000000  0.3898360000000 1.0
C      1  0.6005300000000  0.5892620000000  0.4337790000000 1.0
C      1  0.4990730000000  0.6095500000000  0.5326220000000 1.0
C      1  0.4314710000000  0.4435040000000  0.4746620000000 1.0
C      1  0.4168880000000  0.5560940000000  0.4765210000000 1.0
C      1  0.4931910000000  0.5997310000000  0.4732550000000 1.0
C      1  0.4872550000000  0.4443450000000  0.5424830000000 1.0
C      1  0.5632250000000  0.5250120000000  0.5671230000000 1.0
C      1  0.4901260000000  0.4749630000000  0.4987620000000 1.0
C      1  0.5562570000000  0.4636890000000  0.4150770000000 1.0
C      1  0.4876980000000  0.6259060000000  0.4862410000000 1.0
C      1  0.5747140000000  0.5949610000000  0.5029870000000 1.0
C      1  0.4561500000000  0.4797210000000  0.5948080000000 1.0
C      1  0.6103760000000  0.6612600000000  0.4788770000000 1.0
C      1  0.6222580000000  0.6035370000000  0.4318660000000 1.0
C      1  0.4904460000000  0.5821640000000  0.4961920000000 1.0
C      1  0.5261470000000  0.5742600000000  0.4338430000000 1.0
C      1  0.5230000000000  0.4651290000000  0.4481760000000 1.0
C      1  0.4906130000000  0.4911260000000  0.3956340000000 1.0
C      1  0.4621100000000  0.3918040000000  0.5643080000000 1.0
C      1  0.4416310000000  0.5241160000000  0.5885610000000 1.0
C      1  0.4845360000000  0.5653490000000  0.4064740000000 1.0
C      1  0.4921170000000  0.4025050000000  0.4739630000000 1.0
C      1  0.4237540000000  0.4746600000000  0.4329740000000 1.0
C      1  0.5838370000000  0.4579520000000  0.5321210000000 1.0
C      1  0.4593110000000  0.5457080000000  0.4589340000000 1.0
C      1  0.4262830000000  0.4913470000000  0.4809060000000 1.0
C      1  0.4493550000000  0.4824990000000  0.4203720000000 1.0
C      1  0.6229400000000  0.4855200000000  0.4620570000000 1.0
C      1  0.4973870000000  0.4174020000000  0.5905060000000 1.0
C      1  0.4896900000000  0.4099430000000  0.5002140000000 1.0
C      1  0.5055970000000  0.4860410000000  0.6115470000000 1.0
C      1  0.4325680000000  0.5031680000000  0.5480110000000 1.0
C      1  0.4615380000000  0.4459890000000  0.4750890000000 1.0
C      1  0.5275070000000  0.4193760000000  0.5867710000000 1.0
C      1  0.4547960000000  0.4519670000000  0.5860930000000 1.0
C      1  0.5331430000000  0.5741520000000  0.5183450000000 1.0
C      1  0.5278280000000  0.4673280000000  0.4206660000000 1.0
C      1  0.4163550000000  0.5613350000000  0.5053770000000 1.0
C      1  0.4886970000000  0.3964920000000  0.5714200000000 1.0
C      1  0.4524760000000  0.5169650000000  0.5324190000000 1.0
C      1  0.4625140000000  0.5252090000000  0.4815460000000 1.0
C      1  0.5604230000000  0.4624490000000  0.5140390000000 1.0
C      1  0.4089340000000  0.5449440000000  0.5643460000000 1.0
C      1  0.5118180000000  0.4473480000000  0.4671250000000 1.0
C      1  0.4711770000000  0.5821310000000  0.5685750000000 1.0
C      1  0.6065700000000  0.4736810000000  0.5286380000000 1.0
C      1  0.5017760000000  0.4628070000000  0.5600290000000 1.0
C      1  0.4756600000000  0.4456750000000  0.3967290000000 1.0
C      1  0.5262020000000  0.4688120000000  0.5482150000000 1.0
C      1  0.4860050000000  0.5138440000000  0.5666130000000 1.0
C      1  0.4296890000000  0.4277720000000  0.5459410000000 1.0
C      1  0.5340460000000  0.5304430000000  0.5330350000000 1.0
C      1  0.4175610000000  0.4662210000000  0.4880190000000 1.0
C      1  0.4444960000000  0.5523780000000  0.5920130000000 1.0
C      1  0.4207690000000  0.5191390000000  0.5683550000000 1.0
C      1  0.5949050000000  0.5227880000000  0.4499860000000 1.0
C      1  0.5499370000000  0.4276790000000  0.5447360000000 1.0
C      1  0.4382130000000  0.4500780000000  0.5620770000000 1.0
C      1  0.5075290000000  0.4141370000000  0.4243640000000 1.0
C      1  0.5424140000000  0.5116990000000  0.5812920000000 1.0
C      1  0.4206930000000  0.5122050000000  0.4987280000000 1.0
C      1  0.5158480000000  0.4891030000000  0.4082290000000 1.0
C      1  0.4814630000000  0.4412240000000  0.5943450000000 1.0
C      1  0.3765680000000  0.5014330000000  0.5257450000000 1.0
C      1  0.4290610000000  0.3680610000000  0.4839450000000 1.0
C      1  0.4894220000000  0.5438820000000  0.6087000000000 1.0
END
