TITL C-599894-471-1314 0.935072303527853 125000 -969.561108326698 0 0 158 (C1) n - 1
REM
REM in /home/nfs/bkarasulu/CARBON/AIRSS/Generating-Clusters/TERSOFF/Only-C1/FIRE-HFTN
REM
REM
REM
REM
REM
REM ./C.cell (11c1c37f851c82e70ff6c80c92926a4b)
REM AIRSS Version 0.9.1 bugfix July 2018 build 013d7b7c2542+ Fri, 06 Jul 2018 19:26:36 +0100
REM compiler GCC version 9.2.1 20190827 (Red Hat 9.2.1-1)
REM options -cpp -mtune=generic -march=x86-64 -g -O0 -fpre-include=/usr/include/finclude/math-vector-fortran.h
REM seed 1614268603 826755073 -41966279 1080502816 410790042 1037505849 2010971686 -1436250197 -239860965 877810072 -1413105414 -392615184 2113292907 -1164934293 -1230750248 -1494326626 -1436698025 445351689 -1635716660 -1925835233 382931286 346738435 -908750215 1875449020 -1080473606 152346359 986247806 889990983 286515170 764525172 2090564169 1974165927 -2023262256
REM
CELL 1.54180   50.00000   50.00000   50.00000   90.00000   90.00000   90.00000
LATT -1
SFAC C  
C      1  0.5915250000000  0.5121570000000  0.4967970000000 1.0
C      1  0.5039090000000  0.4113900000000  0.5189160000000 1.0
C      1  0.4583350000000  0.4652540000000  0.5398750000000 1.0
C      1  0.5856830000000  0.4565240000000  0.5163540000000 1.0
C      1  0.5386250000000  0.5718820000000  0.5727590000000 1.0
C      1  0.4996260000000  0.4926960000000  0.5269420000000 1.0
C      1  0.5115920000000  0.4769160000000  0.5059250000000 1.0
C      1  0.4825590000000  0.6831120000000  0.5090250000000 1.0
C      1  0.5170490000000  0.4859830000000  0.5497340000000 1.0
C      1  0.4750220000000  0.5365420000000  0.5448690000000 1.0
C      1  0.4966430000000  0.5464670000000  0.5593950000000 1.0
C      1  0.5434300000000  0.5196030000000  0.5334370000000 1.0
C      1  0.5029160000000  0.6141230000000  0.5063970000000 1.0
C      1  0.5035270000000  0.4899360000000  0.6185400000000 1.0
C      1  0.4424690000000  0.4020890000000  0.5061310000000 1.0
C      1  0.4226220000000  0.5214970000000  0.5434420000000 1.0
C      1  0.4184120000000  0.4182630000000  0.5063520000000 1.0
C      1  0.5818120000000  0.4096750000000  0.5084670000000 1.0
C      1  0.4799840000000  0.4198710000000  0.5309320000000 1.0
C      1  0.5979700000000  0.4940370000000  0.4270470000000 1.0
C      1  0.4794530000000  0.3950410000000  0.4226620000000 1.0
C      1  0.4746160000000  0.4783880000000  0.4464470000000 1.0
C      1  0.4945210000000  0.5247780000000  0.4553140000000 1.0
C      1  0.5845180000000  0.5386720000000  0.4918010000000 1.0
C      1  0.6299300000000  0.4662020000000  0.5007000000000 1.0
C      1  0.5033010000000  0.4860390000000  0.4809760000000 1.0
C      1  0.3867220000000  0.4723710000000  0.5244810000000 1.0
C      1  0.5130350000000  0.4639220000000  0.4275970000000 1.0
C      1  0.4930370000000  0.5644980000000  0.4922160000000 1.0
C      1  0.4816650000000  0.3783370000000  0.4908950000000 1.0
C      1  0.4340560000000  0.5543560000000  0.4386420000000 1.0
C      1  0.5575730000000  0.4588140000000  0.3983310000000 1.0
C      1  0.5409630000000  0.4764530000000  0.3866680000000 1.0
C      1  0.4127930000000  0.5825010000000  0.5048960000000 1.0
C      1  0.6245580000000  0.4501450000000  0.5473230000000 1.0
C      1  0.5824780000000  0.4371600000000  0.4682850000000 1.0
C      1  0.4872090000000  0.4354820000000  0.4685030000000 1.0
C      1  0.4633020000000  0.5192750000000  0.4220520000000 1.0
C      1  0.5587520000000  0.5434680000000  0.4779980000000 1.0
C      1  0.4446010000000  0.4311310000000  0.4255960000000 1.0
C      1  0.5961210000000  0.5570870000000  0.5688830000000 1.0
C      1  0.4356870000000  0.5947450000000  0.5177380000000 1.0
C      1  0.4046100000000  0.4426060000000  0.4607960000000 1.0
C      1  0.4685840000000  0.5660770000000  0.5040960000000 1.0
C      1  0.5462540000000  0.4209210000000  0.5366980000000 1.0
C      1  0.4698810000000  0.5068740000000  0.4493180000000 1.0
C      1  0.4781810000000  0.6286900000000  0.5095850000000 1.0
C      1  0.5703960000000  0.4444940000000  0.4171720000000 1.0
C      1  0.4345270000000  0.5095150000000  0.5914600000000 1.0
C      1  0.4835270000000  0.4636580000000  0.4236580000000 1.0
C      1  0.5290150000000  0.5695190000000  0.4307790000000 1.0
C      1  0.5440940000000  0.5561580000000  0.5963680000000 1.0
C      1  0.5206890000000  0.5127220000000  0.6182400000000 1.0
C      1  0.4816150000000  0.4657340000000  0.4719640000000 1.0
C      1  0.5329820000000  0.5400080000000  0.4234790000000 1.0
C      1  0.5975080000000  0.5743540000000  0.5253800000000 1.0
C      1  0.4550550000000  0.4062860000000  0.5323620000000 1.0
C      1  0.4653610000000  0.4610860000000  0.6214830000000 1.0
C      1  0.5030540000000  0.3866340000000  0.5053660000000 1.0
C      1  0.4459710000000  0.4256030000000  0.5782980000000 1.0
C      1  0.5704300000000  0.4797790000000  0.5273680000000 1.0
C      1  0.4525440000000  0.5551720000000  0.5456450000000 1.0
C      1  0.4670660000000  0.4152170000000  0.4644020000000 1.0
C      1  0.4615790000000  0.5025790000000  0.5993400000000 1.0
C      1  0.3967460000000  0.4503360000000  0.5364330000000 1.0
C      1  0.4750110000000  0.4931680000000  0.5744570000000 1.0
C      1  0.5087520000000  0.4837370000000  0.3518760000000 1.0
C      1  0.5362540000000  0.5887530000000  0.4769600000000 1.0
C      1  0.5304120000000  0.5321000000000  0.5117880000000 1.0
C      1  0.4803350000000  0.6567140000000  0.5093770000000 1.0
C      1  0.5060970000000  0.4677550000000  0.5980260000000 1.0
C      1  0.5362100000000  0.5256780000000  0.4841020000000 1.0
C      1  0.5674740000000  0.4053280000000  0.5309320000000 1.0
C      1  0.4848210000000  0.4473580000000  0.6032430000000 1.0
C      1  0.5284530000000  0.6006220000000  0.5032260000000 1.0
C      1  0.4919720000000  0.5742890000000  0.4632140000000 1.0
C      1  0.5976600000000  0.4947870000000  0.4749330000000 1.0
C      1  0.5197610000000  0.5627210000000  0.3852530000000 1.0
C      1  0.4206940000000  0.5327230000000  0.5997330000000 1.0
C      1  0.6131060000000  0.4980850000000  0.4062210000000 1.0
C      1  0.4514740000000  0.6181200000000  0.5128780000000 1.0
C      1  0.4536060000000  0.4860500000000  0.5567850000000 1.0
C      1  0.4609250000000  0.4109610000000  0.4367400000000 1.0
C      1  0.4743450000000  0.4255280000000  0.5870530000000 1.0
C      1  0.6325440000000  0.4436200000000  0.5717230000000 1.0
C      1  0.6032740000000  0.5130370000000  0.5455200000000 1.0
C      1  0.4737860000000  0.4894180000000  0.6217300000000 1.0
C      1  0.5439490000000  0.5166850000000  0.4351630000000 1.0
C      1  0.5535920000000  0.4918250000000  0.4462470000000 1.0
C      1  0.4209610000000  0.4912910000000  0.4139150000000 1.0
C      1  0.5790730000000  0.4372720000000  0.4416100000000 1.0
C      1  0.4102580000000  0.5315530000000  0.4938370000000 1.0
C      1  0.4285270000000  0.5216200000000  0.5149600000000 1.0
C      1  0.4587100000000  0.4664660000000  0.4902770000000 1.0
C      1  0.4073430000000  0.5021770000000  0.4345080000000 1.0
C      1  0.4360130000000  0.4182230000000  0.5519320000000 1.0
C      1  0.5818730000000  0.4354350000000  0.4964750000000 1.0
C      1  0.4556660000000  0.5114690000000  0.4762990000000 1.0
C      1  0.4798240000000  0.5126300000000  0.3999140000000 1.0
C      1  0.6401410000000  0.4372800000000  0.5958410000000 1.0
C      1  0.4598560000000  0.5468760000000  0.4303100000000 1.0
C      1  0.4774570000000  0.5141140000000  0.5249740000000 1.0
C      1  0.4135310000000  0.4275400000000  0.5343720000000 1.0
C      1  0.5059720000000  0.3933990000000  0.4277060000000 1.0
C      1  0.3844320000000  0.4920620000000  0.5061880000000 1.0
C      1  0.4293260000000  0.4367660000000  0.5985930000000 1.0
C      1  0.4705180000000  0.5951540000000  0.4606590000000 1.0
C      1  0.5258870000000  0.4296450000000  0.5192670000000 1.0
C      1  0.5192200000000  0.5821440000000  0.4548830000000 1.0
C      1  0.5065830000000  0.5130290000000  0.3900750000000 1.0
C      1  0.5854710000000  0.5825270000000  0.4801270000000 1.0
C      1  0.5969050000000  0.5642980000000  0.4993480000000 1.0
C      1  0.4603390000000  0.3962130000000  0.4846490000000 1.0
C      1  0.6142900000000  0.4575320000000  0.5226170000000 1.0
C      1  0.5824680000000  0.4922730000000  0.4506300000000 1.0
C      1  0.4530220000000  0.5738320000000  0.5252500000000 1.0
C      1  0.4837510000000  0.5506640000000  0.4472030000000 1.0
C      1  0.5348910000000  0.4687330000000  0.4487900000000 1.0
C      1  0.5838910000000  0.5745650000000  0.5501540000000 1.0
C      1  0.4135460000000  0.5604070000000  0.4855190000000 1.0
C      1  0.4898630000000  0.4031250000000  0.5833990000000 1.0
C      1  0.5127190000000  0.5538290000000  0.5092550000000 1.0
C      1  0.5243920000000  0.5818050000000  0.4046900000000 1.0
C      1  0.4302800000000  0.5013970000000  0.5627380000000 1.0
C      1  0.4271980000000  0.5475430000000  0.5553350000000 1.0
C      1  0.4171820000000  0.5522920000000  0.5811830000000 1.0
C      1  0.5436920000000  0.5947120000000  0.5276250000000 1.0
C      1  0.5346530000000  0.5345970000000  0.6102260000000 1.0
C      1  0.5895590000000  0.5021410000000  0.5234710000000 1.0
C      1  0.5205460000000  0.4069040000000  0.4459480000000 1.0
C      1  0.3953160000000  0.4945290000000  0.4589200000000 1.0
C      1  0.4576870000000  0.4537740000000  0.4126720000000 1.0
C      1  0.4391230000000  0.4738610000000  0.4041890000000 1.0
C      1  0.4550090000000  0.5142930000000  0.5050360000000 1.0
C      1  0.4434980000000  0.5928630000000  0.4626760000000 1.0
C      1  0.4768300000000  0.4470050000000  0.5352160000000 1.0
C      1  0.5446750000000  0.4906890000000  0.5382930000000 1.0
C      1  0.4333290000000  0.4601410000000  0.4930570000000 1.0
C      1  0.4847690000000  0.7090860000000  0.5086740000000 1.0
C      1  0.3942120000000  0.5085520000000  0.4844530000000 1.0
C      1  0.4164760000000  0.4386270000000  0.4864820000000 1.0
C      1  0.5215450000000  0.5362130000000  0.3962800000000 1.0
C      1  0.5145950000000  0.4280830000000  0.4633400000000 1.0
C      1  0.4270180000000  0.5693860000000  0.4612440000000 1.0
C      1  0.6213420000000  0.4796660000000  0.4789320000000 1.0
C      1  0.5019890000000  0.4819240000000  0.5731800000000 1.0
C      1  0.5272870000000  0.4528940000000  0.5015040000000 1.0
C      1  0.5188740000000  0.4910310000000  0.3763500000000 1.0
C      1  0.4388390000000  0.4513920000000  0.6195030000000 1.0
C      1  0.5134060000000  0.5117810000000  0.4718130000000 1.0
C      1  0.5593720000000  0.5728570000000  0.4744370000000 1.0
C      1  0.5321320000000  0.4493320000000  0.4718460000000 1.0
C      1  0.4188770000000  0.4339020000000  0.4377530000000 1.0
C      1  0.6053800000000  0.5321210000000  0.5642580000000 1.0
C      1  0.5559670000000  0.5826750000000  0.5514620000000 1.0
C      1  0.5547910000000  0.5338230000000  0.5534690000000 1.0
C      1  0.3891360000000  0.4664450000000  0.4591830000000 1.0
C      1  0.5119230000000  0.5675620000000  0.5648080000000 1.0
END
