TITL C-599891-72-400 -0.12241803597899 125000 -565.024628193206 0 0 94 (C1) n - 1
REM
REM in /home/nfs/bkarasulu/CARBON/AIRSS/Generating-Clusters/TERSOFF/Only-C1/FIRE-HFTN
REM
REM
REM
REM
REM
REM ./C.cell (11c1c37f851c82e70ff6c80c92926a4b)
REM AIRSS Version 0.9.1 bugfix July 2018 build 013d7b7c2542+ Fri, 06 Jul 2018 19:26:36 +0100
REM compiler GCC version 9.2.1 20190827 (Red Hat 9.2.1-1)
REM options -cpp -mtune=generic -march=x86-64 -g -O0 -fpre-include=/usr/include/finclude/math-vector-fortran.h
REM seed 1984895598 -1505657330 -2125130052 158929042 1013599447 -699293524 -637074424 279532338 -982932604 -30940925 49350497 1859895649 517631179 -695471923 -1919917965 -1949847115 308690016 575635195 -1005859167 64473361 1136886423 -868906608 -325776279 1250902013 1867248760 1409192517 -1001151888 1053614935 1975559986 746121476 -694264225 -311012510 989143313
REM
CELL 1.54180   50.00000   50.00000   50.00000   90.00000   90.00000   90.00000
LATT -1
SFAC C  
C      1  0.4255400000000  0.5840990000000  0.5045700000000 1.0
C      1  0.4141390000000  0.5012840000000  0.4588050000000 1.0
C      1  0.5205580000000  0.5453780000000  0.5653150000000 1.0
C      1  0.5250050000000  0.4655580000000  0.5009070000000 1.0
C      1  0.4364070000000  0.5619790000000  0.4916000000000 1.0
C      1  0.4716540000000  0.4924130000000  0.5902830000000 1.0
C      1  0.5248230000000  0.4685680000000  0.4178640000000 1.0
C      1  0.4205240000000  0.4633270000000  0.5204680000000 1.0
C      1  0.5431010000000  0.5253010000000  0.4972400000000 1.0
C      1  0.4912280000000  0.5437990000000  0.5690680000000 1.0
C      1  0.5493560000000  0.4819940000000  0.4243650000000 1.0
C      1  0.4310650000000  0.5272390000000  0.5250300000000 1.0
C      1  0.5714800000000  0.4199220000000  0.5341560000000 1.0
C      1  0.4558900000000  0.5181960000000  0.5362680000000 1.0
C      1  0.4767460000000  0.4720850000000  0.4136960000000 1.0
C      1  0.4092640000000  0.5328360000000  0.5407580000000 1.0
C      1  0.6128240000000  0.5161660000000  0.4790320000000 1.0
C      1  0.4417820000000  0.4641290000000  0.4703530000000 1.0
C      1  0.5545180000000  0.4396870000000  0.4526640000000 1.0
C      1  0.5911510000000  0.4889280000000  0.5192590000000 1.0
C      1  0.5042310000000  0.5709730000000  0.4671970000000 1.0
C      1  0.5585420000000  0.5183930000000  0.5459260000000 1.0
C      1  0.4855620000000  0.5246870000000  0.4252810000000 1.0
C      1  0.4488660000000  0.5471720000000  0.5946860000000 1.0
C      1  0.5802460000000  0.4990160000000  0.5447650000000 1.0
C      1  0.5002070000000  0.4589880000000  0.5149980000000 1.0
C      1  0.4793060000000  0.4825720000000  0.5632430000000 1.0
C      1  0.5063440000000  0.4318270000000  0.5256960000000 1.0
C      1  0.5060980000000  0.4318770000000  0.4475550000000 1.0
C      1  0.5273530000000  0.4087270000000  0.4834370000000 1.0
C      1  0.5313250000000  0.5623650000000  0.4688440000000 1.0
C      1  0.4843350000000  0.5278400000000  0.4864760000000 1.0
C      1  0.4163580000000  0.5197430000000  0.4779840000000 1.0
C      1  0.5125930000000  0.4123190000000  0.5057690000000 1.0
C      1  0.5489190000000  0.4649590000000  0.5161890000000 1.0
C      1  0.4823850000000  0.5542800000000  0.4759330000000 1.0
C      1  0.5121720000000  0.4617930000000  0.4451370000000 1.0
C      1  0.4652040000000  0.4902950000000  0.5376730000000 1.0
C      1  0.4123480000000  0.4872520000000  0.5671240000000 1.0
C      1  0.5884810000000  0.5327090000000  0.4365350000000 1.0
C      1  0.4701870000000  0.5431870000000  0.4139570000000 1.0
C      1  0.6066030000000  0.5261540000000  0.4550770000000 1.0
C      1  0.5399420000000  0.5221670000000  0.5698470000000 1.0
C      1  0.5248380000000  0.5110620000000  0.4515700000000 1.0
C      1  0.5618040000000  0.4680590000000  0.4477220000000 1.0
C      1  0.4137350000000  0.4723050000000  0.5448440000000 1.0
C      1  0.4161280000000  0.5081680000000  0.5836010000000 1.0
C      1  0.5428300000000  0.5079170000000  0.4748760000000 1.0
C      1  0.5150160000000  0.5058390000000  0.5319370000000 1.0
C      1  0.4296320000000  0.4674870000000  0.4239130000000 1.0
C      1  0.4054610000000  0.6236180000000  0.5328100000000 1.0
C      1  0.5219080000000  0.4678170000000  0.4732420000000 1.0
C      1  0.4282810000000  0.5354690000000  0.4979010000000 1.0
C      1  0.4315890000000  0.4598420000000  0.4962750000000 1.0
C      1  0.6074800000000  0.5035090000000  0.5018900000000 1.0
C      1  0.4745530000000  0.5376630000000  0.5463410000000 1.0
C      1  0.4855570000000  0.4785210000000  0.4435670000000 1.0
C      1  0.5394640000000  0.5535200000000  0.4946200000000 1.0
C      1  0.5780190000000  0.4638570000000  0.5109410000000 1.0
C      1  0.5291890000000  0.5641870000000  0.5452060000000 1.0
C      1  0.5219290000000  0.4292900000000  0.5506820000000 1.0
C      1  0.5628180000000  0.4872900000000  0.4695180000000 1.0
C      1  0.5479720000000  0.4176150000000  0.5476940000000 1.0
C      1  0.4486150000000  0.5728590000000  0.4457080000000 1.0
C      1  0.5399520000000  0.5160420000000  0.5234820000000 1.0
C      1  0.4994360000000  0.5965290000000  0.4583290000000 1.0
C      1  0.5267240000000  0.4962730000000  0.5772690000000 1.0
C      1  0.4972750000000  0.5067180000000  0.4435780000000 1.0
C      1  0.5130140000000  0.4464760000000  0.5721950000000 1.0
C      1  0.4270200000000  0.5313360000000  0.5919530000000 1.0
C      1  0.4764480000000  0.5397440000000  0.5936290000000 1.0
C      1  0.4820350000000  0.5020630000000  0.4944690000000 1.0
C      1  0.5062800000000  0.4953370000000  0.5566430000000 1.0
C      1  0.4154380000000  0.6041720000000  0.5186000000000 1.0
C      1  0.5492340000000  0.4646950000000  0.5450860000000 1.0
C      1  0.4543770000000  0.5634800000000  0.4212780000000 1.0
C      1  0.4253430000000  0.4770450000000  0.4504370000000 1.0
C      1  0.5470800000000  0.5563060000000  0.4458720000000 1.0
C      1  0.4678730000000  0.4585730000000  0.4608750000000 1.0
C      1  0.4770010000000  0.4319350000000  0.4492880000000 1.0
C      1  0.5451290000000  0.5108060000000  0.4292210000000 1.0
C      1  0.5357350000000  0.5674570000000  0.5191570000000 1.0
C      1  0.4797910000000  0.5138430000000  0.6046040000000 1.0
C      1  0.5607480000000  0.5348700000000  0.4323750000000 1.0
C      1  0.5281040000000  0.4681200000000  0.5858040000000 1.0
C      1  0.4798590000000  0.4808260000000  0.5140740000000 1.0
C      1  0.5858280000000  0.4371330000000  0.5183950000000 1.0
C      1  0.4534200000000  0.4550840000000  0.4138110000000 1.0
C      1  0.4559910000000  0.5648090000000  0.4716000000000 1.0
C      1  0.5698700000000  0.4762350000000  0.5589960000000 1.0
C      1  0.5312000000000  0.4222690000000  0.4588810000000 1.0
C      1  0.4604920000000  0.4293870000000  0.4254690000000 1.0
C      1  0.4854310000000  0.4537190000000  0.5688400000000 1.0
C      1  0.5023890000000  0.4706410000000  0.3999000000000 1.0
END
