TITL C-599895-9959-1205 -0.110993637263923 125000 -948.021135400596 0 0 155 (C1) n - 1
REM
REM in /home/nfs/bkarasulu/CARBON/AIRSS/Generating-Clusters/TERSOFF/Only-C1/FIRE-HFTN
REM
REM
REM
REM
REM
REM ./C.cell (11c1c37f851c82e70ff6c80c92926a4b)
REM AIRSS Version 0.9.1 bugfix July 2018 build 013d7b7c2542+ Fri, 06 Jul 2018 19:26:36 +0100
REM compiler GCC version 9.2.1 20190827 (Red Hat 9.2.1-1)
REM options -cpp -mtune=generic -march=x86-64 -g -O0 -fpre-include=/usr/include/finclude/math-vector-fortran.h
REM seed 517046728 1147606661 -1831129844 1568361000 864780396 -1035331006 940776387 2110203759 -1984882303 -837654470 -405937822 1245836845 -509755439 -837908109 190524557 1307451103 -607210391 551096707 -1283990221 1851325994 -1552216975 -1678376760 1203838904 -2113034404 -2029311848 1079402548 -148156551 -1952383210 1087866184 -1361033381 1320689486 1604039040 2050817769
REM
CELL 1.54180   50.00000   50.00000   50.00000   90.00000   90.00000   90.00000
LATT -1
SFAC C  
C      1  0.4891420000000  0.4803820000000  0.4616700000000 1.0
C      1  0.5766120000000  0.5410570000000  0.6143900000000 1.0
C      1  0.4854070000000  0.5923820000000  0.5433220000000 1.0
C      1  0.5115260000000  0.5938090000000  0.5021060000000 1.0
C      1  0.4919680000000  0.4584850000000  0.3965900000000 1.0
C      1  0.5861260000000  0.4740930000000  0.4765320000000 1.0
C      1  0.5691120000000  0.5158540000000  0.5486440000000 1.0
C      1  0.4086920000000  0.4981700000000  0.5290970000000 1.0
C      1  0.4190710000000  0.4461650000000  0.4252330000000 1.0
C      1  0.4544330000000  0.4357560000000  0.5857240000000 1.0
C      1  0.4455110000000  0.5622190000000  0.4239760000000 1.0
C      1  0.4975120000000  0.3956310000000  0.5050110000000 1.0
C      1  0.5437420000000  0.4833580000000  0.5058240000000 1.0
C      1  0.4676770000000  0.4065090000000  0.5441560000000 1.0
C      1  0.5634580000000  0.5798300000000  0.4989890000000 1.0
C      1  0.5550350000000  0.4975020000000  0.4059300000000 1.0
C      1  0.4976650000000  0.6303280000000  0.4522760000000 1.0
C      1  0.5674460000000  0.4271510000000  0.5430000000000 1.0
C      1  0.4784650000000  0.4983300000000  0.4820650000000 1.0
C      1  0.5268140000000  0.4228150000000  0.4234650000000 1.0
C      1  0.4497800000000  0.4629040000000  0.5321020000000 1.0
C      1  0.4940800000000  0.4033880000000  0.5332500000000 1.0
C      1  0.6144690000000  0.4929550000000  0.5441120000000 1.0
C      1  0.4384360000000  0.4058910000000  0.4543970000000 1.0
C      1  0.4717470000000  0.4561280000000  0.5110580000000 1.0
C      1  0.5870410000000  0.5362180000000  0.5574050000000 1.0
C      1  0.4509450000000  0.5843280000000  0.4852140000000 1.0
C      1  0.4604780000000  0.4839230000000  0.5770730000000 1.0
C      1  0.5150030000000  0.5655750000000  0.4282550000000 1.0
C      1  0.4196300000000  0.4701730000000  0.5969240000000 1.0
C      1  0.4489950000000  0.5822710000000  0.5142110000000 1.0
C      1  0.4055380000000  0.4930230000000  0.5943600000000 1.0
C      1  0.6182700000000  0.5024840000000  0.5712720000000 1.0
C      1  0.4976180000000  0.5786740000000  0.5213830000000 1.0
C      1  0.4949970000000  0.4490410000000  0.4994750000000 1.0
C      1  0.5183400000000  0.4967700000000  0.5938400000000 1.0
C      1  0.4937330000000  0.5007050000000  0.5071460000000 1.0
C      1  0.4336580000000  0.4521830000000  0.4746670000000 1.0
C      1  0.4074540000000  0.5090410000000  0.3873510000000 1.0
C      1  0.5496540000000  0.5851960000000  0.4745280000000 1.0
C      1  0.4546500000000  0.5136060000000  0.4768410000000 1.0
C      1  0.5088320000000  0.4590170000000  0.6309590000000 1.0
C      1  0.5045510000000  0.6038160000000  0.4544310000000 1.0
C      1  0.5657900000000  0.5639280000000  0.5223630000000 1.0
C      1  0.4205630000000  0.5157080000000  0.5108440000000 1.0
C      1  0.5484410000000  0.4685590000000  0.5297040000000 1.0
C      1  0.4573170000000  0.5088330000000  0.5899700000000 1.0
C      1  0.4059580000000  0.4395240000000  0.5175850000000 1.0
C      1  0.4526830000000  0.3969880000000  0.4773950000000 1.0
C      1  0.5099660000000  0.5242970000000  0.5969200000000 1.0
C      1  0.4121040000000  0.5495290000000  0.5438530000000 1.0
C      1  0.5821030000000  0.4474880000000  0.4672320000000 1.0
C      1  0.4131520000000  0.5779830000000  0.5497290000000 1.0
C      1  0.5468230000000  0.3950890000000  0.4969320000000 1.0
C      1  0.5088700000000  0.5369580000000  0.4665830000000 1.0
C      1  0.5684800000000  0.5250720000000  0.4485800000000 1.0
C      1  0.5593990000000  0.5726730000000  0.4506230000000 1.0
C      1  0.5952780000000  0.4031620000000  0.4880580000000 1.0
C      1  0.5166540000000  0.4761200000000  0.4582380000000 1.0
C      1  0.5684540000000  0.5121060000000  0.4237680000000 1.0
C      1  0.6201030000000  0.5135850000000  0.5244220000000 1.0
C      1  0.4278610000000  0.5197110000000  0.3725590000000 1.0
C      1  0.4688260000000  0.4829150000000  0.5494080000000 1.0
C      1  0.4979060000000  0.5218870000000  0.4173780000000 1.0
C      1  0.4405700000000  0.6060250000000  0.4712690000000 1.0
C      1  0.4122590000000  0.5196520000000  0.4354640000000 1.0
C      1  0.5391030000000  0.4632120000000  0.4525350000000 1.0
C      1  0.6147370000000  0.5493930000000  0.4900230000000 1.0
C      1  0.5143290000000  0.4777160000000  0.6136650000000 1.0
C      1  0.4290990000000  0.6260120000000  0.4591000000000 1.0
C      1  0.4643670000000  0.5358710000000  0.5838690000000 1.0
C      1  0.3873220000000  0.4531370000000  0.5033860000000 1.0
C      1  0.5208290000000  0.4617110000000  0.3942450000000 1.0
C      1  0.5407530000000  0.5542420000000  0.5330140000000 1.0
C      1  0.4183740000000  0.5384960000000  0.5702300000000 1.0
C      1  0.4272430000000  0.4763950000000  0.4812730000000 1.0
C      1  0.5216630000000  0.5023030000000  0.5013390000000 1.0
C      1  0.5224920000000  0.5955010000000  0.4760780000000 1.0
C      1  0.4597690000000  0.4908720000000  0.4269040000000 1.0
C      1  0.4138630000000  0.4719450000000  0.4191320000000 1.0
C      1  0.4952510000000  0.4187150000000  0.4618520000000 1.0
C      1  0.5548100000000  0.5129750000000  0.4700610000000 1.0
C      1  0.3805340000000  0.4946310000000  0.4711610000000 1.0
C      1  0.6111620000000  0.4850610000000  0.4757100000000 1.0
C      1  0.4783140000000  0.4755480000000  0.3784060000000 1.0
C      1  0.4456410000000  0.4104010000000  0.5262460000000 1.0
C      1  0.5978470000000  0.4693390000000  0.5394790000000 1.0
C      1  0.4633100000000  0.5606030000000  0.4723280000000 1.0
C      1  0.5227650000000  0.4087080000000  0.4963580000000 1.0
C      1  0.5430220000000  0.5136960000000  0.5570370000000 1.0
C      1  0.5000230000000  0.4271810000000  0.4349700000000 1.0
C      1  0.5222280000000  0.5410760000000  0.6161950000000 1.0
C      1  0.5502460000000  0.5424150000000  0.6173290000000 1.0
C      1  0.5291880000000  0.4684600000000  0.5516770000000 1.0
C      1  0.4320440000000  0.5026100000000  0.4888400000000 1.0
C      1  0.5421310000000  0.5731030000000  0.4282570000000 1.0
C      1  0.5629550000000  0.3947210000000  0.4395510000000 1.0
C      1  0.6111280000000  0.5399410000000  0.5161490000000 1.0
C      1  0.5634550000000  0.4891630000000  0.4844580000000 1.0
C      1  0.4985510000000  0.5265520000000  0.5498930000000 1.0
C      1  0.5165210000000  0.4182030000000  0.5461220000000 1.0
C      1  0.4948270000000  0.5848500000000  0.4346150000000 1.0
C      1  0.4434520000000  0.5538000000000  0.5767300000000 1.0
C      1  0.3783860000000  0.4729250000000  0.4871940000000 1.0
C      1  0.4855810000000  0.5037070000000  0.5353350000000 1.0
C      1  0.5087580000000  0.5392750000000  0.4372350000000 1.0
C      1  0.6027040000000  0.5542430000000  0.4666610000000 1.0
C      1  0.4678710000000  0.5784230000000  0.4256780000000 1.0
C      1  0.6024370000000  0.5381620000000  0.6036850000000 1.0
C      1  0.6337150000000  0.4888850000000  0.5892350000000 1.0
C      1  0.4295000000000  0.5396090000000  0.5225730000000 1.0
C      1  0.5730670000000  0.3906530000000  0.4961850000000 1.0
C      1  0.5987600000000  0.4266100000000  0.4756150000000 1.0
C      1  0.5127830000000  0.4455080000000  0.5540820000000 1.0
C      1  0.5111070000000  0.4319990000000  0.4832970000000 1.0
C      1  0.4059580000000  0.5179600000000  0.5844530000000 1.0
C      1  0.5731500000000  0.4544540000000  0.5362110000000 1.0
C      1  0.4570760000000  0.5918670000000  0.5410140000000 1.0
C      1  0.3929540000000  0.5131010000000  0.4557180000000 1.0
C      1  0.4991340000000  0.6040250000000  0.5636920000000 1.0
C      1  0.5784540000000  0.5514730000000  0.4528370000000 1.0
C      1  0.4548600000000  0.5529300000000  0.5178410000000 1.0
C      1  0.4846250000000  0.5542070000000  0.5113200000000 1.0
C      1  0.5742810000000  0.5076790000000  0.5231730000000 1.0
C      1  0.4241240000000  0.4788660000000  0.5387200000000 1.0
C      1  0.5069560000000  0.5555850000000  0.6336460000000 1.0
C      1  0.4708560000000  0.5145120000000  0.4207270000000 1.0
C      1  0.4634520000000  0.4155610000000  0.5706030000000 1.0
C      1  0.4890390000000  0.5006270000000  0.3749660000000 1.0
C      1  0.3821990000000  0.5069810000000  0.3769130000000 1.0
C      1  0.5446860000000  0.4121340000000  0.5459940000000 1.0
C      1  0.6046740000000  0.5271940000000  0.5776540000000 1.0
C      1  0.4331800000000  0.5403170000000  0.4390700000000 1.0
C      1  0.4453890000000  0.4621630000000  0.5882600000000 1.0
C      1  0.4845340000000  0.4492440000000  0.4231730000000 1.0
C      1  0.4409140000000  0.3950970000000  0.5030080000000 1.0
C      1  0.4890860000000  0.5509840000000  0.4826810000000 1.0
C      1  0.5309770000000  0.4909860000000  0.5690420000000 1.0
C      1  0.5907660000000  0.5522960000000  0.5332110000000 1.0
C      1  0.4810830000000  0.3984900000000  0.4787120000000 1.0
C      1  0.4327460000000  0.4355010000000  0.5274410000000 1.0
C      1  0.4122330000000  0.5000980000000  0.4139330000000 1.0
C      1  0.5333950000000  0.4373600000000  0.3998450000000 1.0
C      1  0.5090410000000  0.5088110000000  0.3942110000000 1.0
C      1  0.5260450000000  0.5330490000000  0.5448180000000 1.0
C      1  0.4403620000000  0.5807180000000  0.5618470000000 1.0
C      1  0.6244890000000  0.5462280000000  0.6176460000000 1.0
C      1  0.4491310000000  0.5377930000000  0.4628810000000 1.0
C      1  0.5300800000000  0.4890260000000  0.3966860000000 1.0
C      1  0.5286450000000  0.5208210000000  0.4794630000000 1.0
C      1  0.5496460000000  0.4184680000000  0.4400520000000 1.0
C      1  0.4275650000000  0.4231740000000  0.4366620000000 1.0
C      1  0.4915820000000  0.5341230000000  0.5767780000000 1.0
C      1  0.4736930000000  0.4702420000000  0.4398170000000 1.0
C      1  0.5580470000000  0.4423640000000  0.4531580000000 1.0
END
