TITL C-599890-3321-660 -0.00121675865748224 125000 -738.864583988122 0 0 119 (C1) n - 1
REM
REM in /home/nfs/bkarasulu/CARBON/AIRSS/Generating-Clusters/TERSOFF/Only-C1/FIRE-HFTN
REM
REM
REM
REM
REM
REM ./C.cell (11c1c37f851c82e70ff6c80c92926a4b)
REM AIRSS Version 0.9.1 bugfix July 2018 build 013d7b7c2542+ Fri, 06 Jul 2018 19:26:36 +0100
REM compiler GCC version 9.2.1 20190827 (Red Hat 9.2.1-1)
REM options -cpp -mtune=generic -march=x86-64 -g -O0 -fpre-include=/usr/include/finclude/math-vector-fortran.h
REM seed -554108169 513900763 973428178 -1015365217 1330792453 -528894082 -150273701 1388349243 2137141967 2135211329 -1764886423 516338327 -1940309184 -1110610094 -2021994347 1557639365 -1134556851 -470450018 1937590666 -209289034 1191250033 -1899500093 453484601 -1890929995 1234301577 -923585636 -1742963596 349077768 661129031 -795876350 -1949408078 1075097291 972149441
REM
CELL 1.54180   50.00000   50.00000   50.00000   90.00000   90.00000   90.00000
LATT -1
SFAC C  
C      1  0.4784450000000  0.5503160000000  0.5184280000000 1.0
C      1  0.5620690000000  0.5621900000000  0.4889430000000 1.0
C      1  0.5003820000000  0.5775570000000  0.5646090000000 1.0
C      1  0.5178610000000  0.5017200000000  0.4744680000000 1.0
C      1  0.4601680000000  0.5462340000000  0.4977240000000 1.0
C      1  0.4060410000000  0.4667460000000  0.4854640000000 1.0
C      1  0.5494920000000  0.4213500000000  0.5074470000000 1.0
C      1  0.5321740000000  0.4908930000000  0.4971690000000 1.0
C      1  0.5984690000000  0.4791860000000  0.5505910000000 1.0
C      1  0.5497110000000  0.3773790000000  0.4233410000000 1.0
C      1  0.4340220000000  0.5812110000000  0.4006770000000 1.0
C      1  0.5090950000000  0.4310670000000  0.4811610000000 1.0
C      1  0.5166130000000  0.3977440000000  0.5404730000000 1.0
C      1  0.4786900000000  0.5787550000000  0.4595490000000 1.0
C      1  0.4459250000000  0.4548990000000  0.5520110000000 1.0
C      1  0.4927430000000  0.3917800000000  0.5256540000000 1.0
C      1  0.4163360000000  0.5009620000000  0.4442940000000 1.0
C      1  0.5870580000000  0.5035800000000  0.5415950000000 1.0
C      1  0.5159940000000  0.4407730000000  0.5657820000000 1.0
C      1  0.4440100000000  0.5094750000000  0.4395760000000 1.0
C      1  0.4829970000000  0.3988640000000  0.4996310000000 1.0
C      1  0.5182440000000  0.5324790000000  0.5425240000000 1.0
C      1  0.4514410000000  0.6176430000000  0.4706290000000 1.0
C      1  0.4473100000000  0.5719650000000  0.4210960000000 1.0
C      1  0.5118750000000  0.5301840000000  0.5718200000000 1.0
C      1  0.4205170000000  0.4493580000000  0.5048300000000 1.0
C      1  0.5276190000000  0.5968950000000  0.5293020000000 1.0
C      1  0.5592970000000  0.5028480000000  0.5801380000000 1.0
C      1  0.5371360000000  0.5328220000000  0.5206220000000 1.0
C      1  0.5255050000000  0.4657730000000  0.5086840000000 1.0
C      1  0.4608310000000  0.5615900000000  0.4432040000000 1.0
C      1  0.4669320000000  0.4861720000000  0.4990270000000 1.0
C      1  0.4718350000000  0.5305230000000  0.4759170000000 1.0
C      1  0.5678580000000  0.5469910000000  0.5622120000000 1.0
C      1  0.5092080000000  0.4722530000000  0.3758510000000 1.0
C      1  0.5354040000000  0.4875790000000  0.5809850000000 1.0
C      1  0.5272720000000  0.5819670000000  0.5537290000000 1.0
C      1  0.5336330000000  0.4823140000000  0.3722320000000 1.0
C      1  0.5397310000000  0.3966310000000  0.4400080000000 1.0
C      1  0.5735270000000  0.5297290000000  0.4168610000000 1.0
C      1  0.4529040000000  0.4777390000000  0.5690070000000 1.0
C      1  0.4578380000000  0.5332110000000  0.4507910000000 1.0
C      1  0.4168420000000  0.5300610000000  0.5645810000000 1.0
C      1  0.5506520000000  0.5678550000000  0.5618450000000 1.0
C      1  0.5671370000000  0.5141730000000  0.3962810000000 1.0
C      1  0.5009460000000  0.5251870000000  0.4769690000000 1.0
C      1  0.5160090000000  0.5497260000000  0.4791190000000 1.0
C      1  0.5737710000000  0.5191940000000  0.5620330000000 1.0
C      1  0.5487300000000  0.5081060000000  0.5126730000000 1.0
C      1  0.4338920000000  0.5549910000000  0.5041320000000 1.0
C      1  0.4659930000000  0.4534280000000  0.3983780000000 1.0
C      1  0.4845930000000  0.4923500000000  0.4136040000000 1.0
C      1  0.4903720000000  0.4923300000000  0.5978480000000 1.0
C      1  0.4680640000000  0.4781010000000  0.5928230000000 1.0
C      1  0.4844510000000  0.6031950000000  0.5033960000000 1.0
C      1  0.5236370000000  0.4923160000000  0.4481280000000 1.0
C      1  0.4921620000000  0.5520620000000  0.5769910000000 1.0
C      1  0.5372880000000  0.5513620000000  0.4981550000000 1.0
C      1  0.5712790000000  0.5544030000000  0.4635750000000 1.0
C      1  0.5486120000000  0.4235150000000  0.4378740000000 1.0
C      1  0.5126400000000  0.6038630000000  0.5077800000000 1.0
C      1  0.4694170000000  0.4397890000000  0.5474620000000 1.0
C      1  0.5123450000000  0.5040990000000  0.5847710000000 1.0
C      1  0.4467930000000  0.5718810000000  0.5846270000000 1.0
C      1  0.4132620000000  0.5564230000000  0.5530030000000 1.0
C      1  0.5752330000000  0.4192190000000  0.4966820000000 1.0
C      1  0.4591160000000  0.4890410000000  0.4267180000000 1.0
C      1  0.4357210000000  0.5008410000000  0.5313450000000 1.0
C      1  0.4366420000000  0.4435300000000  0.4386030000000 1.0
C      1  0.4221310000000  0.4583210000000  0.5338160000000 1.0
C      1  0.6092430000000  0.6103630000000  0.5326690000000 1.0
C      1  0.5412670000000  0.4710750000000  0.4426050000000 1.0
C      1  0.4369900000000  0.4297270000000  0.4898420000000 1.0
C      1  0.5036510000000  0.4669540000000  0.5266590000000 1.0
C      1  0.4312880000000  0.4303540000000  0.4614650000000 1.0
C      1  0.4235680000000  0.5094110000000  0.4877350000000 1.0
C      1  0.4629210000000  0.5483740000000  0.5804470000000 1.0
C      1  0.5176220000000  0.4122490000000  0.5650990000000 1.0
C      1  0.5765310000000  0.5033850000000  0.5151540000000 1.0
C      1  0.4827020000000  0.4419790000000  0.4825640000000 1.0
C      1  0.4800200000000  0.5937790000000  0.5526650000000 1.0
C      1  0.5398170000000  0.4014530000000  0.5247780000000 1.0
C      1  0.4963610000000  0.4493320000000  0.5472060000000 1.0
C      1  0.4551330000000  0.5039980000000  0.5540640000000 1.0
C      1  0.4917900000000  0.5310900000000  0.5325610000000 1.0
C      1  0.4013510000000  0.5057140000000  0.5585600000000 1.0
C      1  0.4732150000000  0.4679000000000  0.4790880000000 1.0
C      1  0.5838850000000  0.4813960000000  0.4686970000000 1.0
C      1  0.4798860000000  0.5069880000000  0.5389510000000 1.0
C      1  0.5635450000000  0.4495970000000  0.5712110000000 1.0
C      1  0.5368500000000  0.4589940000000  0.5745140000000 1.0
C      1  0.4123970000000  0.4861830000000  0.5399820000000 1.0
C      1  0.5305680000000  0.4404850000000  0.4972340000000 1.0
C      1  0.5938570000000  0.5951590000000  0.5181210000000 1.0
C      1  0.5320370000000  0.4461340000000  0.4308320000000 1.0
C      1  0.4170160000000  0.5588840000000  0.5249090000000 1.0
C      1  0.4238320000000  0.5765070000000  0.5704360000000 1.0
C      1  0.5890370000000  0.4938030000000  0.4918660000000 1.0
C      1  0.4643020000000  0.4220260000000  0.4944790000000 1.0
C      1  0.3970920000000  0.5029090000000  0.4249970000000 1.0
C      1  0.5717290000000  0.4359270000000  0.4511030000000 1.0
C      1  0.4872210000000  0.4720670000000  0.3927320000000 1.0
C      1  0.5678160000000  0.4649000000000  0.4528720000000 1.0
C      1  0.4460890000000  0.5265150000000  0.5708040000000 1.0
C      1  0.4500570000000  0.4611950000000  0.4215070000000 1.0
C      1  0.5048760000000  0.4021810000000  0.4793800000000 1.0
C      1  0.5539060000000  0.4975910000000  0.3802460000000 1.0
C      1  0.4708760000000  0.6020110000000  0.5284900000000 1.0
C      1  0.4108110000000  0.4910840000000  0.4707700000000 1.0
C      1  0.5874840000000  0.4573520000000  0.5618790000000 1.0
C      1  0.5203250000000  0.3899060000000  0.4596600000000 1.0
C      1  0.5745870000000  0.5432920000000  0.4396820000000 1.0
C      1  0.5056320000000  0.5701960000000  0.4628870000000 1.0
C      1  0.4848640000000  0.4865310000000  0.5208240000000 1.0
C      1  0.4711950000000  0.5999890000000  0.4778130000000 1.0
C      1  0.5774000000000  0.5794140000000  0.5045850000000 1.0
C      1  0.4433250000000  0.5005630000000  0.5047450000000 1.0
C      1  0.5070360000000  0.5013800000000  0.4273410000000 1.0
C      1  0.5850530000000  0.4229900000000  0.4720200000000 1.0
END
