TITL C-599894-471-1335 0.0493330109917481 125000 -533.78632043287 0 0 87 (C1) n - 1
REM
REM in /home/nfs/bkarasulu/CARBON/AIRSS/Generating-Clusters/TERSOFF/Only-C1/FIRE-HFTN
REM
REM
REM
REM
REM
REM ./C.cell (11c1c37f851c82e70ff6c80c92926a4b)
REM AIRSS Version 0.9.1 bugfix July 2018 build 013d7b7c2542+ Fri, 06 Jul 2018 19:26:36 +0100
REM compiler GCC version 9.2.1 20190827 (Red Hat 9.2.1-1)
REM options -cpp -mtune=generic -march=x86-64 -g -O0 -fpre-include=/usr/include/finclude/math-vector-fortran.h
REM seed 1564370346 -2101423721 -1106750785 -1246605522 2015526502 -1144036997 1360406529 -369716808 707065696 -1373211085 -1383950568 1647498384 -422008554 -16902995 585560192 -1047744383 1328397725 914343711 2123972473 1432990974 1657692566 1007287761 -1699912568 -627283334 -330544735 2060496677 1405920188 -1132698609 379040746 -1357276591 -685037773 -1613518248 -1019374119
REM
CELL 1.54180   50.00000   50.00000   50.00000   90.00000   90.00000   90.00000
LATT -1
SFAC C  
C      1  0.5205440000000  0.5006630000000  0.4202880000000 1.0
C      1  0.4975220000000  0.4874270000000  0.5477690000000 1.0
C      1  0.4434510000000  0.4493550000000  0.5495090000000 1.0
C      1  0.3937480000000  0.4668660000000  0.5005560000000 1.0
C      1  0.5199890000000  0.4807170000000  0.5019980000000 1.0
C      1  0.5886100000000  0.4775080000000  0.5268080000000 1.0
C      1  0.4517070000000  0.5764950000000  0.4731470000000 1.0
C      1  0.5121490000000  0.4316900000000  0.5458670000000 1.0
C      1  0.4778140000000  0.4805770000000  0.4090260000000 1.0
C      1  0.4168200000000  0.4505690000000  0.5069140000000 1.0
C      1  0.5045940000000  0.5154460000000  0.5510510000000 1.0
C      1  0.5371450000000  0.5763420000000  0.5265500000000 1.0
C      1  0.4494680000000  0.5525610000000  0.4585940000000 1.0
C      1  0.5910570000000  0.4541590000000  0.5426180000000 1.0
C      1  0.4844830000000  0.5290780000000  0.5341980000000 1.0
C      1  0.5257820000000  0.5957530000000  0.4483800000000 1.0
C      1  0.5528650000000  0.4934650000000  0.5579510000000 1.0
C      1  0.5420800000000  0.5030940000000  0.5043830000000 1.0
C      1  0.4832580000000  0.4036740000000  0.5220870000000 1.0
C      1  0.5420290000000  0.5551730000000  0.5086760000000 1.0
C      1  0.5279160000000  0.5567350000000  0.4838810000000 1.0
C      1  0.4490100000000  0.5773340000000  0.5016170000000 1.0
C      1  0.5076010000000  0.6148970000000  0.4389250000000 1.0
C      1  0.5083110000000  0.4899390000000  0.4753420000000 1.0
C      1  0.4278690000000  0.4635660000000  0.5311910000000 1.0
C      1  0.5326160000000  0.4521170000000  0.5038790000000 1.0
C      1  0.4614670000000  0.5990220000000  0.4595800000000 1.0
C      1  0.4312680000000  0.5604710000000  0.5153800000000 1.0
C      1  0.4946760000000  0.4811530000000  0.5199450000000 1.0
C      1  0.5969000000000  0.5350130000000  0.5096670000000 1.0
C      1  0.5014890000000  0.4704050000000  0.5695390000000 1.0
C      1  0.5393830000000  0.4800580000000  0.4263380000000 1.0
C      1  0.5293620000000  0.4539660000000  0.4206340000000 1.0
C      1  0.5696100000000  0.5035430000000  0.4608550000000 1.0
C      1  0.3832320000000  0.5530300000000  0.5699420000000 1.0
C      1  0.4693940000000  0.4909910000000  0.5103840000000 1.0
C      1  0.5629650000000  0.4814980000000  0.4431530000000 1.0
C      1  0.5739920000000  0.4567160000000  0.4537240000000 1.0
C      1  0.4752890000000  0.4735880000000  0.6163540000000 1.0
C      1  0.4920310000000  0.5429320000000  0.5108130000000 1.0
C      1  0.5046880000000  0.5405870000000  0.4855440000000 1.0
C      1  0.4884100000000  0.4719160000000  0.5939020000000 1.0
C      1  0.5536880000000  0.4405560000000  0.4887520000000 1.0
C      1  0.5036560000000  0.5163890000000  0.4712010000000 1.0
C      1  0.4908580000000  0.5982260000000  0.5277200000000 1.0
C      1  0.5006650000000  0.4143850000000  0.5018740000000 1.0
C      1  0.5715420000000  0.4481580000000  0.5605070000000 1.0
C      1  0.4572330000000  0.5274380000000  0.4489100000000 1.0
C      1  0.4335870000000  0.5151620000000  0.5337360000000 1.0
C      1  0.4504600000000  0.5046230000000  0.4640900000000 1.0
C      1  0.5781960000000  0.4542220000000  0.4819440000000 1.0
C      1  0.5876830000000  0.5254410000000  0.4603830000000 1.0
C      1  0.4221680000000  0.5412820000000  0.5338430000000 1.0
C      1  0.5319490000000  0.5137780000000  0.5604120000000 1.0
C      1  0.4310700000000  0.4344910000000  0.4892250000000 1.0
C      1  0.5165430000000  0.5924910000000  0.5324050000000 1.0
C      1  0.5124050000000  0.4350180000000  0.4324810000000 1.0
C      1  0.5154600000000  0.6351600000000  0.4224240000000 1.0
C      1  0.5648990000000  0.4960840000000  0.4881480000000 1.0
C      1  0.4988780000000  0.4165940000000  0.4738920000000 1.0
C      1  0.4749750000000  0.4257590000000  0.4595800000000 1.0
C      1  0.4625410000000  0.4318350000000  0.5561540000000 1.0
C      1  0.5483010000000  0.4643120000000  0.5633560000000 1.0
C      1  0.4809550000000  0.6122170000000  0.4472470000000 1.0
C      1  0.5993070000000  0.5364040000000  0.4825630000000 1.0
C      1  0.3939710000000  0.4902750000000  0.5153020000000 1.0
C      1  0.4834690000000  0.4371610000000  0.4342350000000 1.0
C      1  0.5220830000000  0.4520270000000  0.5632910000000 1.0
C      1  0.5767790000000  0.5000370000000  0.5412990000000 1.0
C      1  0.4024230000000  0.5478930000000  0.5524160000000 1.0
C      1  0.4922820000000  0.5035680000000  0.4169690000000 1.0
C      1  0.4713530000000  0.4560770000000  0.4177240000000 1.0
C      1  0.5179000000000  0.4324160000000  0.5174510000000 1.0
C      1  0.4854920000000  0.4185070000000  0.5470540000000 1.0
C      1  0.5765740000000  0.5251370000000  0.5270800000000 1.0
C      1  0.5499740000000  0.5290440000000  0.5161830000000 1.0
C      1  0.5216640000000  0.4217380000000  0.4562480000000 1.0
C      1  0.4611200000000  0.5125600000000  0.5282300000000 1.0
C      1  0.5471380000000  0.4281630000000  0.4649240000000 1.0
C      1  0.5325620000000  0.5751180000000  0.4636660000000 1.0
C      1  0.4672240000000  0.5929270000000  0.5165060000000 1.0
C      1  0.4177190000000  0.4916350000000  0.5321020000000 1.0
C      1  0.4764040000000  0.5239780000000  0.4283550000000 1.0
C      1  0.5829400000000  0.4762730000000  0.4989160000000 1.0
C      1  0.4499430000000  0.4275580000000  0.4717170000000 1.0
C      1  0.3642960000000  0.5579440000000  0.5871730000000 1.0
C      1  0.4570780000000  0.4898500000000  0.4853520000000 1.0
END
