TITL C-599897-7526-405 0.481802710565458 125000 -404.243021456348 0 0 67 (C1) n - 1
REM
REM in /home/nfs/bkarasulu/CARBON/AIRSS/Generating-Clusters/TERSOFF/Only-C1/FIRE-HFTN
REM
REM
REM
REM
REM
REM ./C.cell (11c1c37f851c82e70ff6c80c92926a4b)
REM AIRSS Version 0.9.1 bugfix July 2018 build 013d7b7c2542+ Fri, 06 Jul 2018 19:26:36 +0100
REM compiler GCC version 9.2.1 20190827 (Red Hat 9.2.1-1)
REM options -cpp -mtune=generic -march=x86-64 -g -O0 -fpre-include=/usr/include/finclude/math-vector-fortran.h
REM seed 572232943 -1635766124 -6869476 615877231 1358955768 -698239696 -110513120 2112231654 -2054128836 463859690 1744186668 -1618207116 940997234 1411183406 665051712 -1004905886 -465981270 1751742512 -1802413971 -69232954 -1291365457 420516469 1155987938 -1561063315 230329651 -2025565294 -1591015293 2120588856 -1406452018 1879043777 -1782424377 929422552 -1391476196
REM
CELL 1.54180   50.00000   50.00000   50.00000   90.00000   90.00000   90.00000
LATT -1
SFAC C  
C      1  0.5164900000000  0.5226220000000  0.4444860000000 1.0
C      1  0.5436020000000  0.4852340000000  0.5279510000000 1.0
C      1  0.5866770000000  0.5307250000000  0.5420710000000 1.0
C      1  0.5839730000000  0.5066990000000  0.4543770000000 1.0
C      1  0.4174420000000  0.5176020000000  0.4104820000000 1.0
C      1  0.5653460000000  0.5443520000000  0.5556310000000 1.0
C      1  0.6357540000000  0.5149160000000  0.4576740000000 1.0
C      1  0.6100890000000  0.5110670000000  0.4552180000000 1.0
C      1  0.5206830000000  0.4761170000000  0.4350000000000 1.0
C      1  0.5194540000000  0.4486670000000  0.5016970000000 1.0
C      1  0.4446670000000  0.4248070000000  0.4864240000000 1.0
C      1  0.5652060000000  0.5632840000000  0.5116550000000 1.0
C      1  0.4744270000000  0.5770700000000  0.4382970000000 1.0
C      1  0.5790420000000  0.4433250000000  0.4697230000000 1.0
C      1  0.4982610000000  0.5692180000000  0.4286710000000 1.0
C      1  0.4907520000000  0.4632290000000  0.5732400000000 1.0
C      1  0.5376670000000  0.5309960000000  0.4900610000000 1.0
C      1  0.3507140000000  0.4569650000000  0.4710360000000 1.0
C      1  0.5074100000000  0.5535090000000  0.5550740000000 1.0
C      1  0.5038320000000  0.5287540000000  0.5683180000000 1.0
C      1  0.4646830000000  0.4142870000000  0.5024110000000 1.0
C      1  0.4049520000000  0.5315590000000  0.3923600000000 1.0
C      1  0.4887180000000  0.5282720000000  0.5082020000000 1.0
C      1  0.5707160000000  0.4910040000000  0.5207460000000 1.0
C      1  0.5232170000000  0.5556730000000  0.5319990000000 1.0
C      1  0.5106120000000  0.4304820000000  0.5213550000000 1.0
C      1  0.4030250000000  0.4450200000000  0.4729610000000 1.0
C      1  0.5617360000000  0.4520390000000  0.4512530000000 1.0
C      1  0.5643460000000  0.5367630000000  0.5002730000000 1.0
C      1  0.4481630000000  0.4421270000000  0.4632910000000 1.0
C      1  0.5126800000000  0.5468440000000  0.4312020000000 1.0
C      1  0.4313180000000  0.5036210000000  0.4301490000000 1.0
C      1  0.4734090000000  0.5258720000000  0.4833530000000 1.0
C      1  0.4878560000000  0.4153360000000  0.5155820000000 1.0
C      1  0.4569720000000  0.5627790000000  0.4529640000000 1.0
C      1  0.4224980000000  0.4785360000000  0.4394130000000 1.0
C      1  0.4548860000000  0.5138750000000  0.4416810000000 1.0
C      1  0.5569110000000  0.5002540000000  0.4557370000000 1.0
C      1  0.4690760000000  0.4751520000000  0.5624950000000 1.0
C      1  0.4160840000000  0.4265230000000  0.4909900000000 1.0
C      1  0.4786660000000  0.5047590000000  0.5243480000000 1.0
C      1  0.5510510000000  0.5619010000000  0.5366510000000 1.0
C      1  0.4238410000000  0.4561430000000  0.4557680000000 1.0
C      1  0.5509020000000  0.5274580000000  0.5732160000000 1.0
C      1  0.4590930000000  0.5307410000000  0.5887870000000 1.0
C      1  0.4703830000000  0.5008910000000  0.5511160000000 1.0
C      1  0.5370160000000  0.5193490000000  0.4640470000000 1.0
C      1  0.5869110000000  0.4698520000000  0.5119530000000 1.0
C      1  0.5274920000000  0.5118830000000  0.5682390000000 1.0
C      1  0.4743770000000  0.4845260000000  0.5039380000000 1.0
C      1  0.4749470000000  0.4957860000000  0.4778850000000 1.0
C      1  0.5201620000000  0.4372180000000  0.5472410000000 1.0
C      1  0.4581410000000  0.5360180000000  0.4608770000000 1.0
C      1  0.5469270000000  0.4751040000000  0.4456890000000 1.0
C      1  0.4770880000000  0.5206110000000  0.5702480000000 1.0
C      1  0.5304140000000  0.4862540000000  0.5540800000000 1.0
C      1  0.3760450000000  0.4509490000000  0.4721670000000 1.0
C      1  0.4765980000000  0.4953020000000  0.4490060000000 1.0
C      1  0.5292260000000  0.4730900000000  0.5068220000000 1.0
C      1  0.5027300000000  0.4977920000000  0.4384850000000 1.0
C      1  0.4419450000000  0.5403070000000  0.6065600000000 1.0
C      1  0.5156470000000  0.5391290000000  0.5086690000000 1.0
C      1  0.4078990000000  0.5592840000000  0.6418450000000 1.0
C      1  0.5164950000000  0.4615370000000  0.5617290000000 1.0
C      1  0.4247810000000  0.5498740000000  0.6243490000000 1.0
C      1  0.5784610000000  0.5180060000000  0.5176530000000 1.0
C      1  0.5894200000000  0.4510600000000  0.4931290000000 1.0
END
