TITL C-599890-3321-60 -7.27634411595648 125000 -1071.62798465658 0 0 173 (C1) n - 1
REM
REM in /home/nfs/bkarasulu/CARBON/AIRSS/Generating-Clusters/TERSOFF/Only-C1/FIRE-HFTN
REM
REM
REM
REM
REM
REM ./C.cell (11c1c37f851c82e70ff6c80c92926a4b)
REM AIRSS Version 0.9.1 bugfix July 2018 build 013d7b7c2542+ Fri, 06 Jul 2018 19:26:36 +0100
REM compiler GCC version 9.2.1 20190827 (Red Hat 9.2.1-1)
REM options -cpp -mtune=generic -march=x86-64 -g -O0 -fpre-include=/usr/include/finclude/math-vector-fortran.h
REM seed -983389283 614553205 1612820938 1266041423 -131389124 1349740231 1249073177 -1927331376 930645399 1430377924 -1394643257 -508094374 -2118335226 286115807 1648186565 278630518 -508026758 1155620385 -1264616478 1718744694 -1070729480 -361859119 -1861584672 -1113683807 375137650 -1234422865 -1250415419 -935314558 -1704374648 961743740 -1355767181 -765960195 1520084014
REM
CELL 1.54180   50.00000   50.00000   50.00000   90.00000   90.00000   90.00000
LATT -1
SFAC C  
C      1  0.5472840000000  0.6187230000000  0.5269830000000 1.0
C      1  0.4083920000000  0.5470670000000  0.5006980000000 1.0
C      1  0.4011230000000  0.4765220000000  0.5473180000000 1.0
C      1  0.4687990000000  0.5331510000000  0.5118450000000 1.0
C      1  0.5139350000000  0.5424790000000  0.4193090000000 1.0
C      1  0.5312390000000  0.5098420000000  0.5768730000000 1.0
C      1  0.4676830000000  0.5032030000000  0.3695770000000 1.0
C      1  0.4995850000000  0.4564810000000  0.5754470000000 1.0
C      1  0.5329830000000  0.5385900000000  0.5726300000000 1.0
C      1  0.5077640000000  0.5497190000000  0.5816100000000 1.0
C      1  0.4462860000000  0.4088640000000  0.5990000000000 1.0
C      1  0.4422300000000  0.4636420000000  0.5125070000000 1.0
C      1  0.4931040000000  0.5847390000000  0.4144740000000 1.0
C      1  0.4486400000000  0.4983540000000  0.5487130000000 1.0
C      1  0.5843270000000  0.4521650000000  0.5406120000000 1.0
C      1  0.5327480000000  0.5943390000000  0.4890570000000 1.0
C      1  0.5256210000000  0.4147570000000  0.4883160000000 1.0
C      1  0.5222780000000  0.4819090000000  0.4322570000000 1.0
C      1  0.5799620000000  0.5040610000000  0.4521390000000 1.0
C      1  0.5609440000000  0.5774230000000  0.5434760000000 1.0
C      1  0.3937460000000  0.5035900000000  0.4717490000000 1.0
C      1  0.5260450000000  0.3880930000000  0.4988360000000 1.0
C      1  0.5174410000000  0.6192450000000  0.5236410000000 1.0
C      1  0.5049730000000  0.5285270000000  0.4442300000000 1.0
C      1  0.5849980000000  0.5652490000000  0.4628200000000 1.0
C      1  0.5635920000000  0.4585870000000  0.4271710000000 1.0
C      1  0.5257430000000  0.5375440000000  0.4634030000000 1.0
C      1  0.4349090000000  0.4707610000000  0.5846300000000 1.0
C      1  0.5563240000000  0.6057750000000  0.5509720000000 1.0
C      1  0.5504900000000  0.5530940000000  0.5022630000000 1.0
C      1  0.4571540000000  0.5058020000000  0.5053910000000 1.0
C      1  0.5200120000000  0.5888430000000  0.4649610000000 1.0
C      1  0.5803950000000  0.4541480000000  0.4508330000000 1.0
C      1  0.5555010000000  0.4996290000000  0.4027750000000 1.0
C      1  0.4418900000000  0.5068390000000  0.4162370000000 1.0
C      1  0.5015070000000  0.5017830000000  0.4958130000000 1.0
C      1  0.5968900000000  0.4780950000000  0.5264070000000 1.0
C      1  0.5447800000000  0.5112920000000  0.6275040000000 1.0
C      1  0.4780110000000  0.5595490000000  0.4718400000000 1.0
C      1  0.5571750000000  0.4668510000000  0.5821140000000 1.0
C      1  0.5561540000000  0.4700240000000  0.4995580000000 1.0
C      1  0.4670300000000  0.5294840000000  0.3805760000000 1.0
C      1  0.5633530000000  0.5659910000000  0.4423860000000 1.0
C      1  0.5359720000000  0.4670230000000  0.5203230000000 1.0
C      1  0.5355120000000  0.5789860000000  0.4423100000000 1.0
C      1  0.5006070000000  0.4419560000000  0.3991590000000 1.0
C      1  0.4521780000000  0.5148560000000  0.6002570000000 1.0
C      1  0.5278410000000  0.4357890000000  0.4481110000000 1.0
C      1  0.4432030000000  0.5776430000000  0.5575310000000 1.0
C      1  0.4148490000000  0.4279300000000  0.5252740000000 1.0
C      1  0.4711590000000  0.6129640000000  0.5095510000000 1.0
C      1  0.4733260000000  0.5392370000000  0.5411000000000 1.0
C      1  0.4418120000000  0.4119030000000  0.4501230000000 1.0
C      1  0.4753450000000  0.4656820000000  0.4000970000000 1.0
C      1  0.5973840000000  0.5341700000000  0.5360180000000 1.0
C      1  0.5536100000000  0.4658700000000  0.6100250000000 1.0
C      1  0.4025460000000  0.5272630000000  0.5236380000000 1.0
C      1  0.5398580000000  0.5357160000000  0.5221330000000 1.0
C      1  0.5577360000000  0.6053040000000  0.5795200000000 1.0
C      1  0.5469170000000  0.4274080000000  0.5595240000000 1.0
C      1  0.4914810000000  0.6311900000000  0.5203190000000 1.0
C      1  0.4268000000000  0.4576590000000  0.4886110000000 1.0
C      1  0.5296710000000  0.3948640000000  0.5280310000000 1.0
C      1  0.4860290000000  0.6571870000000  0.5265340000000 1.0
C      1  0.5532410000000  0.4131130000000  0.5343380000000 1.0
C      1  0.5183630000000  0.3729000000000  0.4745320000000 1.0
C      1  0.4609010000000  0.3681590000000  0.3999730000000 1.0
C      1  0.5581470000000  0.6003040000000  0.5032400000000 1.0
C      1  0.4880000000000  0.4634520000000  0.4691550000000 1.0
C      1  0.5700390000000  0.4450010000000  0.4965730000000 1.0
C      1  0.5301770000000  0.5079920000000  0.3890130000000 1.0
C      1  0.4655960000000  0.4483360000000  0.5162160000000 1.0
C      1  0.4461330000000  0.5755370000000  0.5088240000000 1.0
C      1  0.4122670000000  0.4476580000000  0.5470900000000 1.0
C      1  0.4514100000000  0.4985210000000  0.4770160000000 1.0
C      1  0.4537860000000  0.4063870000000  0.5017420000000 1.0
C      1  0.5025650000000  0.3879800000000  0.4212330000000 1.0
C      1  0.4317320000000  0.5159450000000  0.4415700000000 1.0
C      1  0.5881190000000  0.5462220000000  0.5613200000000 1.0
C      1  0.5842820000000  0.5149360000000  0.5942130000000 1.0
C      1  0.5022760000000  0.4280740000000  0.4420200000000 1.0
C      1  0.4314830000000  0.4450770000000  0.5701780000000 1.0
C      1  0.4884910000000  0.4639540000000  0.5252830000000 1.0
C      1  0.4370580000000  0.4923150000000  0.5223280000000 1.0
C      1  0.5117040000000  0.4998060000000  0.5970930000000 1.0
C      1  0.4471740000000  0.5587530000000  0.4216700000000 1.0
C      1  0.5004850000000  0.4171350000000  0.4158360000000 1.0
C      1  0.5698230000000  0.5727340000000  0.5145860000000 1.0
C      1  0.4432750000000  0.4628360000000  0.4413570000000 1.0
C      1  0.5040130000000  0.5438570000000  0.6108270000000 1.0
C      1  0.4049410000000  0.5417500000000  0.5488330000000 1.0
C      1  0.4759530000000  0.4245250000000  0.5031850000000 1.0
C      1  0.4690990000000  0.6040040000000  0.4794460000000 1.0
C      1  0.5689570000000  0.5142060000000  0.4255780000000 1.0
C      1  0.4871290000000  0.3711160000000  0.4046930000000 1.0
C      1  0.4780650000000  0.5365560000000  0.4550210000000 1.0
C      1  0.4803510000000  0.3982360000000  0.5497290000000 1.0
C      1  0.5176530000000  0.5193010000000  0.6191090000000 1.0
C      1  0.4884170000000  0.4691210000000  0.5531420000000 1.0
C      1  0.5610210000000  0.5795580000000  0.5896090000000 1.0
C      1  0.4812290000000  0.4405580000000  0.4544590000000 1.0
C      1  0.4546310000000  0.4369260000000  0.4456660000000 1.0
C      1  0.4530180000000  0.4061390000000  0.5507190000000 1.0
C      1  0.5801260000000  0.5035590000000  0.5679280000000 1.0
C      1  0.4832540000000  0.5514650000000  0.5650810000000 1.0
C      1  0.4561310000000  0.5183700000000  0.4574850000000 1.0
C      1  0.4777350000000  0.5500330000000  0.6198250000000 1.0
C      1  0.4526080000000  0.4779170000000  0.4173170000000 1.0
C      1  0.4385850000000  0.3792240000000  0.4098160000000 1.0
C      1  0.5485890000000  0.5390240000000  0.4776640000000 1.0
C      1  0.5143830000000  0.4850140000000  0.3801520000000 1.0
C      1  0.4370250000000  0.4743240000000  0.4674720000000 1.0
C      1  0.5477130000000  0.4828340000000  0.6303590000000 1.0
C      1  0.4929840000000  0.5407260000000  0.3779610000000 1.0
C      1  0.4667340000000  0.5786600000000  0.4146720000000 1.0
C      1  0.4823540000000  0.4893320000000  0.5133010000000 1.0
C      1  0.4318370000000  0.3966770000000  0.4288860000000 1.0
C      1  0.5423550000000  0.4882980000000  0.5384770000000 1.0
C      1  0.5427080000000  0.4235880000000  0.4677300000000 1.0
C      1  0.4090530000000  0.5228130000000  0.4572450000000 1.0
C      1  0.4622310000000  0.5567510000000  0.4957540000000 1.0
C      1  0.4189000000000  0.5666240000000  0.5456590000000 1.0
C      1  0.4908470000000  0.5856830000000  0.4686800000000 1.0
C      1  0.4317940000000  0.5678440000000  0.4529480000000 1.0
C      1  0.6020350000000  0.4783190000000  0.4940420000000 1.0
C      1  0.4437400000000  0.5931620000000  0.4650720000000 1.0
C      1  0.5261060000000  0.4592070000000  0.3896730000000 1.0
C      1  0.4925050000000  0.4774070000000  0.5959710000000 1.0
C      1  0.4563800000000  0.5437550000000  0.6014420000000 1.0
C      1  0.4501150000000  0.5329160000000  0.4040710000000 1.0
C      1  0.5078200000000  0.4049630000000  0.5484510000000 1.0
C      1  0.5049530000000  0.4294520000000  0.5001670000000 1.0
C      1  0.5133620000000  0.5431970000000  0.5223710000000 1.0
C      1  0.5076240000000  0.5702940000000  0.5254470000000 1.0
C      1  0.5948310000000  0.5527080000000  0.5124440000000 1.0
C      1  0.5726080000000  0.5206970000000  0.4770170000000 1.0
C      1  0.5690060000000  0.4350920000000  0.4704070000000 1.0
C      1  0.5613030000000  0.5583140000000  0.5674960000000 1.0
C      1  0.4439250000000  0.4006610000000  0.4760700000000 1.0
C      1  0.4066480000000  0.4964580000000  0.5227560000000 1.0
C      1  0.5179110000000  0.4284110000000  0.5653600000000 1.0
C      1  0.5918720000000  0.4785650000000  0.4635050000000 1.0
C      1  0.4136810000000  0.5485240000000  0.4706570000000 1.0
C      1  0.5150730000000  0.5317680000000  0.3935070000000 1.0
C      1  0.4375330000000  0.4086300000000  0.5261960000000 1.0
C      1  0.5077800000000  0.4995670000000  0.4468920000000 1.0
C      1  0.4087720000000  0.4376780000000  0.4984570000000 1.0
C      1  0.5004310000000  0.4885090000000  0.4713670000000 1.0
C      1  0.5578470000000  0.4700330000000  0.4014450000000 1.0
C      1  0.4741280000000  0.4931120000000  0.5547610000000 1.0
C      1  0.4437440000000  0.4198260000000  0.5741110000000 1.0
C      1  0.5668900000000  0.4471290000000  0.5647860000000 1.0
C      1  0.5168040000000  0.5707920000000  0.4216930000000 1.0
C      1  0.4581360000000  0.4862200000000  0.5965450000000 1.0
C      1  0.5497790000000  0.5099980000000  0.5214580000000 1.0
C      1  0.4581520000000  0.5614640000000  0.5771820000000 1.0
C      1  0.5623100000000  0.4991600000000  0.4973030000000 1.0
C      1  0.4573750000000  0.5936500000000  0.5278580000000 1.0
C      1  0.5131200000000  0.4521880000000  0.5154720000000 1.0
C      1  0.3929020000000  0.4911590000000  0.4960120000000 1.0
C      1  0.5370490000000  0.4593320000000  0.4380520000000 1.0
C      1  0.5665810000000  0.5430780000000  0.4247440000000 1.0
C      1  0.4108820000000  0.4857610000000  0.5742280000000 1.0
C      1  0.5950800000000  0.5044570000000  0.5419200000000 1.0
C      1  0.5117520000000  0.3774730000000  0.4476850000000 1.0
C      1  0.5143130000000  0.5930470000000  0.5115790000000 1.0
C      1  0.5736690000000  0.4311870000000  0.5213350000000 1.0
C      1  0.5936020000000  0.5439830000000  0.4832630000000 1.0
C      1  0.4981210000000  0.5286680000000  0.5041470000000 1.0
C      1  0.5519390000000  0.4916040000000  0.5664340000000 1.0
C      1  0.4199790000000  0.5689690000000  0.5159630000000 1.0
C      1  0.5685010000000  0.5222740000000  0.6153920000000 1.0
C      1  0.4855050000000  0.4840200000000  0.3798290000000 1.0
END
