TITL C-599894-471-846 -0.077032643373242 125000 -709.705751715265 0 0 117 (C1) n - 1
REM
REM in /home/nfs/bkarasulu/CARBON/AIRSS/Generating-Clusters/TERSOFF/Only-C1/FIRE-HFTN
REM
REM
REM
REM
REM
REM ./C.cell (11c1c37f851c82e70ff6c80c92926a4b)
REM AIRSS Version 0.9.1 bugfix July 2018 build 013d7b7c2542+ Fri, 06 Jul 2018 19:26:36 +0100
REM compiler GCC version 9.2.1 20190827 (Red Hat 9.2.1-1)
REM options -cpp -mtune=generic -march=x86-64 -g -O0 -fpre-include=/usr/include/finclude/math-vector-fortran.h
REM seed 2106877954 1378850349 -897694392 1106884885 673341275 2036996357 748925654 2286025 429544528 539509166 579644848 -614269959 1180873660 1403456373 1403396354 1452801041 1028314001 -525980547 1231597914 -1141101428 2127125697 671024229 2095641073 -1738061344 1803368851 -1548759655 1254427589 969341059 1381520905 -1651243296 -1398878050 -1377387224 -1692965040
REM
CELL 1.54180   50.00000   50.00000   50.00000   90.00000   90.00000   90.00000
LATT -1
SFAC C  
C      1  0.3888920000000  0.5468330000000  0.5220220000000 1.0
C      1  0.4834550000000  0.4243090000000  0.4304220000000 1.0
C      1  0.4857220000000  0.5578560000000  0.5749460000000 1.0
C      1  0.4340010000000  0.4094150000000  0.4635240000000 1.0
C      1  0.5754110000000  0.5289690000000  0.4601080000000 1.0
C      1  0.3850630000000  0.5014840000000  0.5542690000000 1.0
C      1  0.5021450000000  0.4812260000000  0.4127410000000 1.0
C      1  0.4837550000000  0.4627720000000  0.5090000000000 1.0
C      1  0.5822030000000  0.4164150000000  0.4795450000000 1.0
C      1  0.4999430000000  0.4454000000000  0.4930620000000 1.0
C      1  0.4105540000000  0.4533360000000  0.4525570000000 1.0
C      1  0.5526650000000  0.4701830000000  0.4448720000000 1.0
C      1  0.4261510000000  0.5054090000000  0.4995510000000 1.0
C      1  0.3999630000000  0.4582380000000  0.4988510000000 1.0
C      1  0.5088560000000  0.5479100000000  0.5357390000000 1.0
C      1  0.5018140000000  0.5202330000000  0.5340170000000 1.0
C      1  0.5981510000000  0.4672730000000  0.4552460000000 1.0
C      1  0.4967030000000  0.5039840000000  0.5581360000000 1.0
C      1  0.5947660000000  0.5131380000000  0.4771730000000 1.0
C      1  0.4914220000000  0.5056000000000  0.4244520000000 1.0
C      1  0.4118100000000  0.4980510000000  0.4757320000000 1.0
C      1  0.4346170000000  0.4454230000000  0.5587870000000 1.0
C      1  0.4133320000000  0.4649890000000  0.5223130000000 1.0
C      1  0.4234120000000  0.5671420000000  0.4604830000000 1.0
C      1  0.4403400000000  0.4970430000000  0.5464420000000 1.0
C      1  0.5171240000000  0.3873920000000  0.4231300000000 1.0
C      1  0.4599340000000  0.4400950000000  0.5460100000000 1.0
C      1  0.4295090000000  0.4885080000000  0.5215930000000 1.0
C      1  0.4217150000000  0.4290980000000  0.4503320000000 1.0
C      1  0.4102630000000  0.4573150000000  0.5495440000000 1.0
C      1  0.4405520000000  0.5911460000000  0.5021660000000 1.0
C      1  0.4729280000000  0.4954950000000  0.4715540000000 1.0
C      1  0.3864610000000  0.5241380000000  0.5394540000000 1.0
C      1  0.4209520000000  0.5872110000000  0.4419270000000 1.0
C      1  0.4113820000000  0.5516220000000  0.5050100000000 1.0
C      1  0.5609090000000  0.5176640000000  0.4379170000000 1.0
C      1  0.4448260000000  0.5299460000000  0.5814950000000 1.0
C      1  0.5103760000000  0.5125180000000  0.5828870000000 1.0
C      1  0.5862840000000  0.5051060000000  0.5483350000000 1.0
C      1  0.4823890000000  0.5895740000000  0.5354090000000 1.0
C      1  0.4082760000000  0.5192870000000  0.4574840000000 1.0
C      1  0.4836550000000  0.4890650000000  0.4978340000000 1.0
C      1  0.5424930000000  0.3888010000000  0.4336010000000 1.0
C      1  0.5315730000000  0.6338020000000  0.4258280000000 1.0
C      1  0.5268970000000  0.4730660000000  0.5531760000000 1.0
C      1  0.5532470000000  0.4494610000000  0.5838820000000 1.0
C      1  0.5524970000000  0.4312290000000  0.5637200000000 1.0
C      1  0.4800730000000  0.4595400000000  0.5378310000000 1.0
C      1  0.5023320000000  0.5463540000000  0.4806490000000 1.0
C      1  0.5531920000000  0.5280490000000  0.5909460000000 1.0
C      1  0.5102740000000  0.5279490000000  0.4254060000000 1.0
C      1  0.6214470000000  0.4757900000000  0.4951480000000 1.0
C      1  0.5056510000000  0.4549920000000  0.4661730000000 1.0
C      1  0.5981400000000  0.4608660000000  0.5399300000000 1.0
C      1  0.5416930000000  0.4952900000000  0.5402770000000 1.0
C      1  0.5182340000000  0.4282710000000  0.5058790000000 1.0
C      1  0.6002690000000  0.5236430000000  0.5041670000000 1.0
C      1  0.3923450000000  0.4761900000000  0.5617670000000 1.0
C      1  0.4552860000000  0.4016720000000  0.5102260000000 1.0
C      1  0.4708250000000  0.5077890000000  0.4453250000000 1.0
C      1  0.5646870000000  0.5548760000000  0.4699580000000 1.0
C      1  0.5388190000000  0.5029200000000  0.5906160000000 1.0
C      1  0.6036410000000  0.5059250000000  0.5261900000000 1.0
C      1  0.5698420000000  0.4261740000000  0.4556770000000 1.0
C      1  0.5509310000000  0.6226160000000  0.4426260000000 1.0
C      1  0.4519020000000  0.5289840000000  0.4427650000000 1.0
C      1  0.5924280000000  0.4237350000000  0.5037530000000 1.0
C      1  0.4272160000000  0.5397510000000  0.4515740000000 1.0
C      1  0.5732890000000  0.6368370000000  0.4493970000000 1.0
C      1  0.5521170000000  0.4154810000000  0.4363760000000 1.0
C      1  0.5139840000000  0.5205480000000  0.4836560000000 1.0
C      1  0.5415830000000  0.4403500000000  0.5153790000000 1.0
C      1  0.5074750000000  0.5053510000000  0.5079530000000 1.0
C      1  0.5790400000000  0.5653590000000  0.4920910000000 1.0
C      1  0.5640050000000  0.4912010000000  0.4284490000000 1.0
C      1  0.5846400000000  0.4787480000000  0.5613610000000 1.0
C      1  0.4610780000000  0.4152550000000  0.5324360000000 1.0
C      1  0.4437040000000  0.4690720000000  0.6158140000000 1.0
C      1  0.5618150000000  0.4765130000000  0.5813970000000 1.0
C      1  0.5044540000000  0.5546600000000  0.4332980000000 1.0
C      1  0.5591060000000  0.4325500000000  0.5362530000000 1.0
C      1  0.4219030000000  0.5735130000000  0.4888720000000 1.0
C      1  0.5279220000000  0.4331150000000  0.4175590000000 1.0
C      1  0.5239470000000  0.5039680000000  0.4630180000000 1.0
C      1  0.4457810000000  0.3998060000000  0.4854100000000 1.0
C      1  0.5272210000000  0.4749290000000  0.4592680000000 1.0
C      1  0.5341660000000  0.4910290000000  0.5131090000000 1.0
C      1  0.5418780000000  0.5704970000000  0.4609650000000 1.0
C      1  0.4864780000000  0.4447960000000  0.4477720000000 1.0
C      1  0.5471570000000  0.5967210000000  0.4524130000000 1.0
C      1  0.4322810000000  0.5320890000000  0.5040590000000 1.0
C      1  0.5574800000000  0.5372100000000  0.5655700000000 1.0
C      1  0.5327470000000  0.5191850000000  0.4403310000000 1.0
C      1  0.4982440000000  0.4754880000000  0.5535970000000 1.0
C      1  0.5739720000000  0.4535790000000  0.4522650000000 1.0
C      1  0.5959980000000  0.5512410000000  0.5075050000000 1.0
C      1  0.5450120000000  0.4666140000000  0.5041950000000 1.0
C      1  0.3487950000000  0.5830590000000  0.5207590000000 1.0
C      1  0.4618630000000  0.5959580000000  0.5185260000000 1.0
C      1  0.5865030000000  0.4367420000000  0.5286710000000 1.0
C      1  0.6070830000000  0.4868480000000  0.4730030000000 1.0
C      1  0.4778430000000  0.5497530000000  0.4946940000000 1.0
C      1  0.3678770000000  0.5653350000000  0.5216770000000 1.0
C      1  0.4043990000000  0.4706800000000  0.4736580000000 1.0
C      1  0.5131390000000  0.6436150000000  0.4102350000000 1.0
C      1  0.4417830000000  0.4838090000000  0.5943970000000 1.0
C      1  0.5189910000000  0.4596010000000  0.4104040000000 1.0
C      1  0.5142500000000  0.5617980000000  0.4595660000000 1.0
C      1  0.4592100000000  0.5494010000000  0.5677490000000 1.0
C      1  0.4414760000000  0.5029970000000  0.5741620000000 1.0
C      1  0.4569900000000  0.5424330000000  0.5127850000000 1.0
C      1  0.5060990000000  0.4131810000000  0.4180150000000 1.0
C      1  0.5605460000000  0.5162020000000  0.5467860000000 1.0
C      1  0.6127890000000  0.4788900000000  0.5215580000000 1.0
C      1  0.5011980000000  0.5391300000000  0.5903600000000 1.0
C      1  0.4968740000000  0.5694290000000  0.5501890000000 1.0
C      1  0.4552050000000  0.5498890000000  0.5398780000000 1.0
END
