TITL C-599897-7526-1430 372.249024931317 125000 -793.466993781023 0 0 129 (C1) n - 1
REM
REM in /home/nfs/bkarasulu/CARBON/AIRSS/Generating-Clusters/TERSOFF/Only-C1/FIRE-HFTN
REM
REM
REM
REM
REM
REM ./C.cell (11c1c37f851c82e70ff6c80c92926a4b)
REM AIRSS Version 0.9.1 bugfix July 2018 build 013d7b7c2542+ Fri, 06 Jul 2018 19:26:36 +0100
REM compiler GCC version 9.2.1 20190827 (Red Hat 9.2.1-1)
REM options -cpp -mtune=generic -march=x86-64 -g -O0 -fpre-include=/usr/include/finclude/math-vector-fortran.h
REM seed 1630167162 1394255562 -293318171 -59271141 743391815 1637866523 2132332024 -1757122251 -768203108 -1433001285 483831968 1186316990 -341689945 1748107264 -1500705160 -1824920904 -1221589436 -1461544109 -1523680930 684150009 417826706 1532486121 2058633688 1437692413 1816934289 -1063258468 -1719072878 770114926 1110385580 2030970377 -80274154 -1723860745 540940530
REM
CELL 1.54180   50.00000   50.00000   50.00000   90.00000   90.00000   90.00000
LATT -1
SFAC C  
C      1  0.4280820000000  0.4151830000000  0.5011710000000 1.0
C      1  0.4998250000000  0.4612490000000  0.6028470000000 1.0
C      1  0.4786880000000  0.5857490000000  0.4375700000000 1.0
C      1  0.4199670000000  0.4678950000000  0.5537360000000 1.0
C      1  0.5023910000000  0.3973050000000  0.4830910000000 1.0
C      1  0.4540290000000  0.4774220000000  0.4230100000000 1.0
C      1  0.5646360000000  0.5809390000000  0.5620670000000 1.0
C      1  0.5587510000000  0.4747380000000  0.4437310000000 1.0
C      1  0.4808450000000  0.5445170000000  0.4101960000000 1.0
C      1  0.4866380000000  0.6015650000000  0.5328760000000 1.0
C      1  0.4821180000000  0.4707830000000  0.4280680000000 1.0
C      1  0.4536090000000  0.4235790000000  0.4634490000000 1.0
C      1  0.4784500000000  0.4375130000000  0.4677800000000 1.0
C      1  0.5255040000000  0.5687420000000  0.5867730000000 1.0
C      1  0.5950010000000  0.5040620000000  0.4372940000000 1.0
C      1  0.4659300000000  0.4671780000000  0.5704430000000 1.0
C      1  0.5608060000000  0.4309450000000  0.5332220000000 1.0
C      1  0.4086420000000  0.5348140000000  0.5467990000000 1.0
C      1  0.4693250000000  0.4437140000000  0.5287180000000 1.0
C      1  0.5646520000000  0.5334610000000  0.5773970000000 1.0
C      1  0.5286030000000  0.4782290000000  0.3552240000000 1.0
C      1  0.5495030000000  0.4955740000000  0.5474210000000 1.0
C      1  0.4648470000000  0.5108700000000  0.4640640000000 1.0
C      1  0.5173850000000  0.4617110000000  0.4629870000000 1.0
C      1  0.5287380000000  0.4746580000000  0.5531510000000 1.0
C      1  0.5698650000000  0.4779880000000  0.5339380000000 1.0
C      1  0.4671990000000  0.5907040000000  0.4616310000000 1.0
C      1  0.3884810000000  0.5045480000000  0.5076660000000 1.0
C      1  0.4567730000000  0.4209920000000  0.5405860000000 1.0
C      1  0.4715680000000  0.4851110000000  0.4721350000000 1.0
C      1  0.4966790000000  0.5202410000000  0.6009050000000 1.0
C      1  0.4976720000000  0.5660440000000  0.5933570000000 1.0
C      1  0.5270630000000  0.4707640000000  0.4032390000000 1.0
C      1  0.4988130000000  0.5279560000000  0.5245470000000 1.0
C      1  0.5220280000000  0.3984010000000  0.5260310000000 1.0
C      1  0.3937980000000  0.4537090000000  0.4941140000000 1.0
C      1  0.4535510000000  0.5234130000000  0.5845420000000 1.0
C      1  0.4742690000000  0.5388130000000  0.5171050000000 1.0
C      1  0.3914400000000  0.5192490000000  0.5323480000000 1.0
C      1  0.5671520000000  0.4523570000000  0.5513570000000 1.0
C      1  0.4401780000000  0.4885120000000  0.5090230000000 1.0
C      1  0.4727600000000  0.5056780000000  0.5973890000000 1.0
C      1  0.4977330000000  0.4335470000000  0.5940750000000 1.0
C      1  0.5577650000000  0.5614080000000  0.4595800000000 1.0
C      1  0.5852630000000  0.5232270000000  0.4209500000000 1.0
C      1  0.4935000000000  0.5700430000000  0.4184390000000 1.0
C      1  0.5510560000000  0.5863410000000  0.4716740000000 1.0
C      1  0.5517120000000  0.5605500000000  0.5784490000000 1.0
C      1  0.5238110000000  0.4612110000000  0.3768400000000 1.0
C      1  0.3897620000000  0.5289540000000  0.4448910000000 1.0
C      1  0.5734070000000  0.5275860000000  0.5162200000000 1.0
C      1  0.4897290000000  0.4143850000000  0.5763280000000 1.0
C      1  0.4027930000000  0.5101790000000  0.4598650000000 1.0
C      1  0.5926460000000  0.5290680000000  0.5367710000000 1.0
C      1  0.4594520000000  0.5275180000000  0.3998430000000 1.0
C      1  0.5975510000000  0.5832400000000  0.5030350000000 1.0
C      1  0.4521710000000  0.4046440000000  0.4872850000000 1.0
C      1  0.5015920000000  0.4195210000000  0.4658480000000 1.0
C      1  0.4384120000000  0.4621110000000  0.5721250000000 1.0
C      1  0.5595240000000  0.5848840000000  0.5344750000000 1.0
C      1  0.5115620000000  0.5107160000000  0.5054140000000 1.0
C      1  0.5820970000000  0.4860330000000  0.4549760000000 1.0
C      1  0.5429530000000  0.4099940000000  0.5410300000000 1.0
C      1  0.4811090000000  0.4621320000000  0.5467120000000 1.0
C      1  0.4249570000000  0.4775590000000  0.5294930000000 1.0
C      1  0.5574300000000  0.6059880000000  0.4910510000000 1.0
C      1  0.5076970000000  0.4101810000000  0.3698470000000 1.0
C      1  0.4797090000000  0.5327270000000  0.4556900000000 1.0
C      1  0.5227350000000  0.5679090000000  0.4226070000000 1.0
C      1  0.4603080000000  0.4749150000000  0.4956010000000 1.0
C      1  0.5792880000000  0.5459510000000  0.4733980000000 1.0
C      1  0.5175400000000  0.5217560000000  0.4799690000000 1.0
C      1  0.4126660000000  0.4864800000000  0.4480570000000 1.0
C      1  0.4510550000000  0.5343110000000  0.5048350000000 1.0
C      1  0.5518030000000  0.4677100000000  0.4172320000000 1.0
C      1  0.4526160000000  0.5490650000000  0.5703320000000 1.0
C      1  0.5478760000000  0.4795920000000  0.5929420000000 1.0
C      1  0.4624150000000  0.5930200000000  0.4896250000000 1.0
C      1  0.5780610000000  0.5206370000000  0.4890400000000 1.0
C      1  0.5488330000000  0.5404660000000  0.5203610000000 1.0
C      1  0.5477550000000  0.5569900000000  0.4326870000000 1.0
C      1  0.4309000000000  0.4419190000000  0.4595630000000 1.0
C      1  0.4324520000000  0.4665590000000  0.4418760000000 1.0
C      1  0.5994530000000  0.5637130000000  0.4841780000000 1.0
C      1  0.5740140000000  0.5962040000000  0.5125620000000 1.0
C      1  0.4316530000000  0.4143980000000  0.5293640000000 1.0
C      1  0.4698510000000  0.4499580000000  0.5019180000000 1.0
C      1  0.5545240000000  0.5057540000000  0.5764000000000 1.0
C      1  0.5059250000000  0.4724840000000  0.5379810000000 1.0
C      1  0.5897490000000  0.5341030000000  0.5632060000000 1.0
C      1  0.5603080000000  0.4411210000000  0.5050660000000 1.0
C      1  0.4992520000000  0.5424780000000  0.4734090000000 1.0
C      1  0.5108800000000  0.5207830000000  0.5764140000000 1.0
C      1  0.4913600000000  0.5278740000000  0.4305380000000 1.0
C      1  0.4791030000000  0.5897240000000  0.5555560000000 1.0
C      1  0.5793080000000  0.4916550000000  0.4835550000000 1.0
C      1  0.4070750000000  0.5141300000000  0.4876620000000 1.0
C      1  0.5488090000000  0.6317940000000  0.4896480000000 1.0
C      1  0.5328420000000  0.4950550000000  0.3357790000000 1.0
C      1  0.5427670000000  0.4252180000000  0.4884110000000 1.0
C      1  0.5409160000000  0.5655500000000  0.5252160000000 1.0
C      1  0.3827020000000  0.4766450000000  0.5038230000000 1.0
C      1  0.5255220000000  0.5069290000000  0.4564350000000 1.0
C      1  0.4753610000000  0.5687800000000  0.5742270000000 1.0
C      1  0.4926360000000  0.3944760000000  0.5288250000000 1.0
C      1  0.5360480000000  0.4813070000000  0.4591340000000 1.0
C      1  0.4506540000000  0.5021450000000  0.4071860000000 1.0
C      1  0.4782140000000  0.4051970000000  0.5516040000000 1.0
C      1  0.4942750000000  0.5456040000000  0.6126990000000 1.0
C      1  0.5092920000000  0.4837850000000  0.5123590000000 1.0
C      1  0.4404370000000  0.5831040000000  0.5051060000000 1.0
C      1  0.5651270000000  0.5407190000000  0.4173030000000 1.0
C      1  0.5709610000000  0.4707630000000  0.5045260000000 1.0
C      1  0.5255780000000  0.4352960000000  0.4678520000000 1.0
C      1  0.4780580000000  0.4779110000000  0.5933500000000 1.0
C      1  0.4309770000000  0.5529860000000  0.5500550000000 1.0
C      1  0.4872930000000  0.4641780000000  0.4570190000000 1.0
C      1  0.4786800000000  0.3945040000000  0.5007110000000 1.0
C      1  0.5114170000000  0.5087370000000  0.4309440000000 1.0
C      1  0.5250400000000  0.4735420000000  0.6096510000000 1.0
C      1  0.4146020000000  0.4365240000000  0.4846960000000 1.0
C      1  0.5076910000000  0.5277990000000  0.5509060000000 1.0
C      1  0.4330660000000  0.5141190000000  0.4988450000000 1.0
C      1  0.5056120000000  0.4839440000000  0.4169380000000 1.0
C      1  0.4827160000000  0.6034990000000  0.5064030000000 1.0
C      1  0.5459360000000  0.4589710000000  0.5708790000000 1.0
C      1  0.5156730000000  0.4348470000000  0.3725270000000 1.0
C      1  0.5275510000000  0.4010420000000  0.4979580000000 1.0
C      1  0.4331380000000  0.5727470000000  0.5291540000000 1.0
END
