TITL C-599893-4344-908 32431.9183854978 125000 -1156.35718857376 0 0 189 (C1) n - 1
REM
REM in /home/nfs/bkarasulu/CARBON/AIRSS/Generating-Clusters/TERSOFF/Only-C1/FIRE-HFTN
REM
REM
REM
REM
REM
REM ./C.cell (11c1c37f851c82e70ff6c80c92926a4b)
REM AIRSS Version 0.9.1 bugfix July 2018 build 013d7b7c2542+ Fri, 06 Jul 2018 19:26:36 +0100
REM compiler GCC version 9.2.1 20190827 (Red Hat 9.2.1-1)
REM options -cpp -mtune=generic -march=x86-64 -g -O0 -fpre-include=/usr/include/finclude/math-vector-fortran.h
REM seed -1969453312 -427650387 202490967 1020928450 -889555925 392811000 645217025 2101938840 -1305105809 -388547597 534562618 -1796978343 1590485132 1065929269 400865499 2092296170 2030456193 19414975 -731302323 714420293 -1845092152 -736701719 -1831152991 -853331282 786480785 -1886788934 -632484435 1855530966 1114631922 1450470572 2016174681 -1998032090 -2032356959
REM
CELL 1.54180   50.00000   50.00000   50.00000   90.00000   90.00000   90.00000
LATT -1
SFAC C  
C      1  0.5357780000000  0.5382910000000  0.5029170000000 1.0
C      1  0.5175180000000  0.5218060000000  0.5187770000000 1.0
C      1  0.4136660000000  0.5941760000000  0.5676120000000 1.0
C      1  0.5730070000000  0.5378520000000  0.5924760000000 1.0
C      1  0.5879130000000  0.4470170000000  0.5634540000000 1.0
C      1  0.5464650000000  0.4829660000000  0.5621380000000 1.0
C      1  0.4210870000000  0.4303730000000  0.5546430000000 1.0
C      1  0.4623040000000  0.4007850000000  0.5447000000000 1.0
C      1  0.4499940000000  0.6871870000000  0.4582000000000 1.0
C      1  0.4500830000000  0.4488630000000  0.5091340000000 1.0
C      1  0.5249940000000  0.5026820000000  0.4443790000000 1.0
C      1  0.4801350000000  0.4483440000000  0.4669990000000 1.0
C      1  0.5458340000000  0.4204150000000  0.5707610000000 1.0
C      1  0.4340130000000  0.4096390000000  0.5411600000000 1.0
C      1  0.4898640000000  0.4954890000000  0.3863240000000 1.0
C      1  0.5208010000000  0.3794890000000  0.5600130000000 1.0
C      1  0.5218460000000  0.4739680000000  0.4524000000000 1.0
C      1  0.4352290000000  0.4679840000000  0.4130670000000 1.0
C      1  0.3987510000000  0.4893670000000  0.4477170000000 1.0
C      1  0.5771290000000  0.5024680000000  0.4520180000000 1.0
C      1  0.4665680000000  0.5840130000000  0.4664810000000 1.0
C      1  0.4179620000000  0.5356460000000  0.5232520000000 1.0
C      1  0.5761420000000  0.4855170000000  0.4746880000000 1.0
C      1  0.4784660000000  0.4847070000000  0.4374540000000 1.0
C      1  0.4122370000000  0.5625350000000  0.5305970000000 1.0
C      1  0.5808250000000  0.5094490000000  0.5222980000000 1.0
C      1  0.4091370000000  0.5054290000000  0.5584160000000 1.0
C      1  0.4576020000000  0.5101180000000  0.5438490000000 1.0
C      1  0.5266210000000  0.4727170000000  0.5456260000000 1.0
C      1  0.5274140000000  0.4061850000000  0.5536480000000 1.0
C      1  0.4422560000000  0.5660990000000  0.4264000000000 1.0
C      1  0.5754730000000  0.5082490000000  0.4239630000000 1.0
C      1  0.6634000000000  0.5153710000000  0.5608370000000 1.0
C      1  0.5273030000000  0.3972680000000  0.4426490000000 1.0
C      1  0.4403530000000  0.5739930000000  0.4544080000000 1.0
C      1  0.5482210000000  0.5282140000000  0.5582010000000 1.0
C      1  0.6119320000000  0.5010600000000  0.3750840000000 1.0
C      1  0.4353510000000  0.5291780000000  0.5023550000000 1.0
C      1  0.4922510000000  0.5723130000000  0.4551810000000 1.0
C      1  0.5850020000000  0.5056800000000  0.5771550000000 1.0
C      1  0.4925730000000  0.5454460000000  0.4422490000000 1.0
C      1  0.4844430000000  0.6283640000000  0.5298630000000 1.0
C      1  0.4291420000000  0.4241770000000  0.4498280000000 1.0
C      1  0.4219400000000  0.4512010000000  0.4542450000000 1.0
C      1  0.5525100000000  0.4771880000000  0.3886830000000 1.0
C      1  0.4725650000000  0.6243940000000  0.5030730000000 1.0
C      1  0.4260720000000  0.5176020000000  0.4143400000000 1.0
C      1  0.4566540000000  0.6668920000000  0.4731460000000 1.0
C      1  0.5320100000000  0.3084350000000  0.5693920000000 1.0
C      1  0.5390510000000  0.4426940000000  0.5877940000000 1.0
C      1  0.5001680000000  0.4781330000000  0.5532920000000 1.0
C      1  0.5457420000000  0.2857720000000  0.5700720000000 1.0
C      1  0.3935980000000  0.4320980000000  0.4971670000000 1.0
C      1  0.4722390000000  0.4601150000000  0.6348910000000 1.0
C      1  0.4610500000000  0.5369580000000  0.5048880000000 1.0
C      1  0.4445500000000  0.5176690000000  0.6025200000000 1.0
C      1  0.5043600000000  0.4236230000000  0.4021290000000 1.0
C      1  0.5189540000000  0.3312790000000  0.5663170000000 1.0
C      1  0.5952180000000  0.5276450000000  0.4156740000000 1.0
C      1  0.5552520000000  0.5015980000000  0.4033850000000 1.0
C      1  0.5195870000000  0.4788190000000  0.5002550000000 1.0
C      1  0.4907460000000  0.4881020000000  0.5993210000000 1.0
C      1  0.5179080000000  0.5870850000000  0.5307020000000 1.0
C      1  0.5465740000000  0.5516330000000  0.5440760000000 1.0
C      1  0.5005150000000  0.5403730000000  0.6147770000000 1.0
C      1  0.4833880000000  0.4149570000000  0.5262900000000 1.0
C      1  0.5681160000000  0.5767400000000  0.4659810000000 1.0
C      1  0.5279490000000  0.4626290000000  0.3875100000000 1.0
C      1  0.5303880000000  0.4303790000000  0.4809450000000 1.0
C      1  0.4442620000000  0.4889710000000  0.6067280000000 1.0
C      1  0.3994390000000  0.5764090000000  0.5095960000000 1.0
C      1  0.5853970000000  0.4541460000000  0.5360250000000 1.0
C      1  0.5092060000000  0.5620490000000  0.5717800000000 1.0
C      1  0.5937250000000  0.5521350000000  0.4296600000000 1.0
C      1  0.4179410000000  0.4571340000000  0.5460500000000 1.0
C      1  0.5484090000000  0.6064560000000  0.4952200000000 1.0
C      1  0.4205460000000  0.5703350000000  0.5563610000000 1.0
C      1  0.4079160000000  0.5151380000000  0.4374150000000 1.0
C      1  0.5821480000000  0.4684400000000  0.5833670000000 1.0
C      1  0.5361580000000  0.5221590000000  0.3959740000000 1.0
C      1  0.4453850000000  0.5200350000000  0.3352870000000 1.0
C      1  0.4291420000000  0.5172890000000  0.4782490000000 1.0
C      1  0.4804030000000  0.5258890000000  0.4592310000000 1.0
C      1  0.5187620000000  0.4078890000000  0.4676340000000 1.0
C      1  0.4123160000000  0.4673740000000  0.4329460000000 1.0
C      1  0.4614900000000  0.4878340000000  0.5302620000000 1.0
C      1  0.5712670000000  0.5663770000000  0.4394680000000 1.0
C      1  0.5979350000000  0.5543370000000  0.5003590000000 1.0
C      1  0.5200690000000  0.5451460000000  0.4806390000000 1.0
C      1  0.4990840000000  0.4691650000000  0.3914700000000 1.0
C      1  0.3929000000000  0.4850520000000  0.4836310000000 1.0
C      1  0.5658390000000  0.5053900000000  0.5551410000000 1.0
C      1  0.5845500000000  0.5779510000000  0.4912390000000 1.0
C      1  0.4532450000000  0.5101610000000  0.3580860000000 1.0
C      1  0.5245870000000  0.5681330000000  0.5489440000000 1.0
C      1  0.5005850000000  0.5224590000000  0.4786950000000 1.0
C      1  0.6387150000000  0.5123860000000  0.5700010000000 1.0
C      1  0.4798380000000  0.3554930000000  0.5504100000000 1.0
C      1  0.4796240000000  0.3964260000000  0.4959300000000 1.0
C      1  0.4759610000000  0.4225400000000  0.4552290000000 1.0
C      1  0.3943880000000  0.5616890000000  0.4856870000000 1.0
C      1  0.4921480000000  0.4985380000000  0.5729720000000 1.0
C      1  0.4257570000000  0.5264930000000  0.5804290000000 1.0
C      1  0.4908810000000  0.4050970000000  0.4720080000000 1.0
C      1  0.5817640000000  0.5361680000000  0.5145470000000 1.0
C      1  0.5688700000000  0.5936620000000  0.5425190000000 1.0
C      1  0.5203370000000  0.5523080000000  0.5957940000000 1.0
C      1  0.4786210000000  0.5523670000000  0.5187870000000 1.0
C      1  0.4699930000000  0.5973770000000  0.4928920000000 1.0
C      1  0.5663320000000  0.4599850000000  0.4667530000000 1.0
C      1  0.4755940000000  0.5790550000000  0.5135270000000 1.0
C      1  0.5538830000000  0.5606890000000  0.5907580000000 1.0
C      1  0.4617710000000  0.3743640000000  0.4937030000000 1.0
C      1  0.4387620000000  0.4687500000000  0.4695830000000 1.0
C      1  0.4363630000000  0.5442350000000  0.4114200000000 1.0
C      1  0.6004550000000  0.4778890000000  0.3638880000000 1.0
C      1  0.4197950000000  0.4050190000000  0.4683120000000 1.0
C      1  0.5390880000000  0.4533630000000  0.4645410000000 1.0
C      1  0.4012490000000  0.4600740000000  0.4988630000000 1.0
C      1  0.5176260000000  0.5309810000000  0.4352440000000 1.0
C      1  0.4636710000000  0.6462440000000  0.4881840000000 1.0
C      1  0.5141900000000  0.4170580000000  0.5299950000000 1.0
C      1  0.5763500000000  0.4885640000000  0.5037500000000 1.0
C      1  0.5178110000000  0.5720570000000  0.4702850000000 1.0
C      1  0.4434080000000  0.4962330000000  0.4672350000000 1.0
C      1  0.5075490000000  0.5035510000000  0.4989790000000 1.0
C      1  0.5105850000000  0.4035070000000  0.4205770000000 1.0
C      1  0.5329190000000  0.6115730000000  0.5745370000000 1.0
C      1  0.5110020000000  0.5147020000000  0.3841600000000 1.0
C      1  0.5746860000000  0.4215030000000  0.5681120000000 1.0
C      1  0.5414340000000  0.5879510000000  0.4737020000000 1.0
C      1  0.5490430000000  0.5666710000000  0.4207990000000 1.0
C      1  0.4615680000000  0.5001730000000  0.3829870000000 1.0
C      1  0.4647340000000  0.5491890000000  0.5689570000000 1.0
C      1  0.4720700000000  0.4429670000000  0.5262390000000 1.0
C      1  0.4650800000000  0.5044490000000  0.4514680000000 1.0
C      1  0.5281990000000  0.4334640000000  0.5102030000000 1.0
C      1  0.5425170000000  0.5898890000000  0.4077930000000 1.0
C      1  0.4945350000000  0.4665120000000  0.4512540000000 1.0
C      1  0.5749630000000  0.4702760000000  0.3731850000000 1.0
C      1  0.4585310000000  0.4555160000000  0.4834990000000 1.0
C      1  0.4569360000000  0.4448790000000  0.4141380000000 1.0
C      1  0.4829830000000  0.5993120000000  0.5744680000000 1.0
C      1  0.4435470000000  0.3725910000000  0.5154960000000 1.0
C      1  0.4238750000000  0.3952630000000  0.5171340000000 1.0
C      1  0.4601150000000  0.3719760000000  0.5399870000000 1.0
C      1  0.4101460000000  0.4083380000000  0.4950300000000 1.0
C      1  0.5275820000000  0.4339750000000  0.3883700000000 1.0
C      1  0.5286280000000  0.6320710000000  0.5546360000000 1.0
C      1  0.6131400000000  0.5092160000000  0.5761100000000 1.0
C      1  0.4255140000000  0.4745850000000  0.5912180000000 1.0
C      1  0.4984470000000  0.5375260000000  0.5313240000000 1.0
C      1  0.4741800000000  0.5211020000000  0.5641870000000 1.0
C      1  0.5594880000000  0.2636230000000  0.5697630000000 1.0
C      1  0.5498640000000  0.3821850000000  0.4401020000000 1.0
C      1  0.4007580000000  0.5134180000000  0.5306190000000 1.0
C      1  0.5102730000000  0.5356040000000  0.6403350000000 1.0
C      1  0.4623930000000  0.3560650000000  0.4735310000000 1.0
C      1  0.6108240000000  0.5202580000000  0.3936820000000 1.0
C      1  0.5550450000000  0.5908390000000  0.5709670000000 1.0
C      1  0.5065720000000  0.3552280000000  0.5592260000000 1.0
C      1  0.6135080000000  0.4633800000000  0.3448020000000 1.0
C      1  0.4544360000000  0.4240840000000  0.4361020000000 1.0
C      1  0.4155350000000  0.5324140000000  0.4586220000000 1.0
C      1  0.4836560000000  0.4454580000000  0.4014770000000 1.0
C      1  0.5406080000000  0.6331730000000  0.4948910000000 1.0
C      1  0.5533980000000  0.4672020000000  0.5851860000000 1.0
C      1  0.4707180000000  0.5325320000000  0.6109580000000 1.0
C      1  0.4156210000000  0.5606180000000  0.4652180000000 1.0
C      1  0.3804240000000  0.5354980000000  0.4904220000000 1.0
C      1  0.4692770000000  0.4780720000000  0.6146820000000 1.0
C      1  0.5075140000000  0.6077040000000  0.5878440000000 1.0
C      1  0.5243970000000  0.6482890000000  0.5098430000000 1.0
C      1  0.5700540000000  0.5951160000000  0.5122110000000 1.0
C      1  0.4148100000000  0.4780800000000  0.5650050000000 1.0
C      1  0.4361420000000  0.5510580000000  0.5698900000000 1.0
C      1  0.4794040000000  0.4674550000000  0.5377940000000 1.0
C      1  0.5346330000000  0.5428010000000  0.4156790000000 1.0
C      1  0.4407240000000  0.4948910000000  0.4025350000000 1.0
C      1  0.6874140000000  0.5181960000000  0.5499790000000 1.0
C      1  0.5361010000000  0.4616000000000  0.5191970000000 1.0
C      1  0.4239300000000  0.4595790000000  0.5179540000000 1.0
C      1  0.4737740000000  0.6160330000000  0.5533640000000 1.0
C      1  0.4823230000000  0.5707540000000  0.5720750000000 1.0
C      1  0.5562020000000  0.5479580000000  0.5182350000000 1.0
C      1  0.5112260000000  0.6393580000000  0.5329910000000 1.0
C      1  0.3868520000000  0.5088390000000  0.5029180000000 1.0
C      1  0.5666900000000  0.4651590000000  0.5177050000000 1.0
C      1  0.7107690000000  0.5208910000000  0.5387100000000 1.0
END
