TITL C-599894-471-1006 -44807.1176556474 125000 -603.002758382662 0 0 99 (C1) n - 1
REM
REM in /home/nfs/bkarasulu/CARBON/AIRSS/Generating-Clusters/TERSOFF/Only-C1/FIRE-HFTN
REM
REM
REM
REM
REM
REM ./C.cell (11c1c37f851c82e70ff6c80c92926a4b)
REM AIRSS Version 0.9.1 bugfix July 2018 build 013d7b7c2542+ Fri, 06 Jul 2018 19:26:36 +0100
REM compiler GCC version 9.2.1 20190827 (Red Hat 9.2.1-1)
REM options -cpp -mtune=generic -march=x86-64 -g -O0 -fpre-include=/usr/include/finclude/math-vector-fortran.h
REM seed -78789930 -1400937683 -176506908 -976278757 -2024637609 -940934532 1697331400 1993728365 1438740415 470618444 1470892994 -2071027685 1962085807 -1205980174 -707680093 2122995671 -844205067 1005237272 494292536 -346317287 -2033055769 -1765538880 -220382092 237159325 -1269805247 -142867009 -979270854 617636242 1487443521 -1764752420 1431812607 -499018512 1732988270
REM
CELL 1.54180   50.00000   50.00000   50.00000   90.00000   90.00000   90.00000
LATT -1
SFAC C  
C      1  0.5699770000000  0.4739940000000  0.5595390000000 1.0
C      1  0.5389680000000  0.4822270000000  0.5199960000000 1.0
C      1  0.5326720000000  0.4305210000000  0.4411770000000 1.0
C      1  0.5335990000000  0.5982020000000  0.5117100000000 1.0
C      1  0.4906920000000  0.4162140000000  0.5406880000000 1.0
C      1  0.4262970000000  0.4577390000000  0.4874650000000 1.0
C      1  0.5318160000000  0.5600650000000  0.5733210000000 1.0
C      1  0.5314270000000  0.4569060000000  0.4506510000000 1.0
C      1  0.4989910000000  0.5372220000000  0.5220360000000 1.0
C      1  0.3917540000000  0.4919440000000  0.4813640000000 1.0
C      1  0.4851300000000  0.4703940000000  0.5376760000000 1.0
C      1  0.4762170000000  0.5782460000000  0.4855440000000 1.0
C      1  0.4203940000000  0.5386950000000  0.4296700000000 1.0
C      1  0.4462970000000  0.4710620000000  0.4724030000000 1.0
C      1  0.4329310000000  0.4371030000000  0.5055490000000 1.0
C      1  0.5108990000000  0.4706130000000  0.4672240000000 1.0
C      1  0.5451400000000  0.4998360000000  0.4641710000000 1.0
C      1  0.4820220000000  0.4252920000000  0.4633890000000 1.0
C      1  0.5747520000000  0.4596690000000  0.4734250000000 1.0
C      1  0.4640250000000  0.4186200000000  0.5504440000000 1.0
C      1  0.5016830000000  0.4602990000000  0.5177880000000 1.0
C      1  0.4805790000000  0.4663100000000  0.4287440000000 1.0
C      1  0.5866780000000  0.5309950000000  0.5644170000000 1.0
C      1  0.4928390000000  0.6054000000000  0.5373030000000 1.0
C      1  0.4819790000000  0.5315240000000  0.4993100000000 1.0
C      1  0.4940860000000  0.4685200000000  0.4903810000000 1.0
C      1  0.5261260000000  0.5000210000000  0.5377620000000 1.0
C      1  0.5189340000000  0.5712480000000  0.5513570000000 1.0
C      1  0.5239940000000  0.5242860000000  0.5232950000000 1.0
C      1  0.5552250000000  0.4942640000000  0.5732450000000 1.0
C      1  0.4404240000000  0.5221350000000  0.4185280000000 1.0
C      1  0.5787730000000  0.4421040000000  0.5269020000000 1.0
C      1  0.5930670000000  0.4814220000000  0.5428040000000 1.0
C      1  0.6273820000000  0.5285510000000  0.4729610000000 1.0
C      1  0.5361740000000  0.3817390000000  0.5180940000000 1.0
C      1  0.4519310000000  0.5038410000000  0.5280170000000 1.0
C      1  0.5425840000000  0.4620740000000  0.5033600000000 1.0
C      1  0.3741180000000  0.5837300000000  0.5767280000000 1.0
C      1  0.4119920000000  0.4816260000000  0.4393160000000 1.0
C      1  0.6002380000000  0.5278690000000  0.4752820000000 1.0
C      1  0.5091350000000  0.5492010000000  0.4113020000000 1.0
C      1  0.5254580000000  0.4035670000000  0.5050750000000 1.0
C      1  0.5561820000000  0.4420670000000  0.4887190000000 1.0
C      1  0.5646280000000  0.5207410000000  0.5789160000000 1.0
C      1  0.5832940000000  0.5494750000000  0.4665260000000 1.0
C      1  0.5569240000000  0.4494850000000  0.5458770000000 1.0
C      1  0.5093030000000  0.5523690000000  0.4614730000000 1.0
C      1  0.4093790000000  0.5192780000000  0.5476160000000 1.0
C      1  0.5239280000000  0.5915370000000  0.4857070000000 1.0
C      1  0.5422580000000  0.4168480000000  0.4855180000000 1.0
C      1  0.5168310000000  0.4981600000000  0.4600850000000 1.0
C      1  0.4766130000000  0.5237540000000  0.3868490000000 1.0
C      1  0.5115110000000  0.4740140000000  0.5801990000000 1.0
C      1  0.5679230000000  0.5450130000000  0.5206380000000 1.0
C      1  0.4271510000000  0.4479090000000  0.5322550000000 1.0
C      1  0.4946200000000  0.5595880000000  0.5390320000000 1.0
C      1  0.4798890000000  0.4424820000000  0.4422300000000 1.0
C      1  0.5456620000000  0.5407130000000  0.5856430000000 1.0
C      1  0.4856680000000  0.5516920000000  0.4788500000000 1.0
C      1  0.4331410000000  0.5826580000000  0.5088700000000 1.0
C      1  0.3969610000000  0.5002470000000  0.4547030000000 1.0
C      1  0.5907060000000  0.4770680000000  0.4914100000000 1.0
C      1  0.5210030000000  0.5972000000000  0.5372650000000 1.0
C      1  0.5593570000000  0.5620480000000  0.4648720000000 1.0
C      1  0.4372500000000  0.4747460000000  0.4460120000000 1.0
C      1  0.5942870000000  0.4660750000000  0.5181830000000 1.0
C      1  0.4781810000000  0.4158930000000  0.4904280000000 1.0
C      1  0.4963010000000  0.5421920000000  0.3886320000000 1.0
C      1  0.5074140000000  0.5382210000000  0.4370800000000 1.0
C      1  0.5382220000000  0.4101790000000  0.4581920000000 1.0
C      1  0.5321720000000  0.5686860000000  0.4698880000000 1.0
C      1  0.4245220000000  0.4998230000000  0.5348180000000 1.0
C      1  0.5283690000000  0.4440490000000  0.5396980000000 1.0
C      1  0.3852270000000  0.5620130000000  0.5675160000000 1.0
C      1  0.5575050000000  0.5123790000000  0.4863680000000 1.0
C      1  0.5104400000000  0.4307970000000  0.5564220000000 1.0
C      1  0.4137660000000  0.4744750000000  0.5270270000000 1.0
C      1  0.5273630000000  0.4928180000000  0.5657510000000 1.0
C      1  0.4819560000000  0.4950050000000  0.4255510000000 1.0
C      1  0.4694110000000  0.4904050000000  0.5455250000000 1.0
C      1  0.5053940000000  0.4473040000000  0.5792950000000 1.0
C      1  0.4683480000000  0.4831900000000  0.4867990000000 1.0
C      1  0.4512110000000  0.4172110000000  0.4990110000000 1.0
C      1  0.4646090000000  0.5082280000000  0.5019500000000 1.0
C      1  0.4418890000000  0.4342030000000  0.5519580000000 1.0
C      1  0.5017260000000  0.5104150000000  0.4401100000000 1.0
C      1  0.3967770000000  0.5401290000000  0.5580060000000 1.0
C      1  0.4005500000000  0.5266800000000  0.4459150000000 1.0
C      1  0.4761440000000  0.5818930000000  0.5325080000000 1.0
C      1  0.4602930000000  0.5811220000000  0.5090410000000 1.0
C      1  0.5561430000000  0.4733160000000  0.4553590000000 1.0
C      1  0.5479130000000  0.5296200000000  0.5077320000000 1.0
C      1  0.5858220000000  0.5434300000000  0.5405360000000 1.0
C      1  0.4643280000000  0.5107360000000  0.4088960000000 1.0
C      1  0.4055850000000  0.4747410000000  0.4987550000000 1.0
C      1  0.4962920000000  0.5981340000000  0.4808460000000 1.0
C      1  0.5860100000000  0.5057430000000  0.4867720000000 1.0
C      1  0.4203460000000  0.5656300000000  0.4251030000000 1.0
C      1  0.4978980000000  0.4108860000000  0.5116550000000 1.0
END
