TITL C-599895-9959-293 0.313276652005094 125000 -620.538248443063 0 0 103 (C1) n - 1
REM
REM in /home/nfs/bkarasulu/CARBON/AIRSS/Generating-Clusters/TERSOFF/Only-C1/FIRE-HFTN
REM
REM
REM
REM
REM
REM ./C.cell (11c1c37f851c82e70ff6c80c92926a4b)
REM AIRSS Version 0.9.1 bugfix July 2018 build 013d7b7c2542+ Fri, 06 Jul 2018 19:26:36 +0100
REM compiler GCC version 9.2.1 20190827 (Red Hat 9.2.1-1)
REM options -cpp -mtune=generic -march=x86-64 -g -O0 -fpre-include=/usr/include/finclude/math-vector-fortran.h
REM seed 565063929 2038846358 -1653612530 1849114945 238308841 -18304021 1025690547 -592161680 646624294 -897112690 1654552781 150054712 -428800917 -1086377026 1327901629 -1298360967 741957534 -1155038060 757163849 -34204359 -708301377 -1726756175 400845162 -401906508 -376785476 956876624 -966177915 2103875128 1416900512 1831120865 -596274951 1121714286 -1761813094
REM
CELL 1.54180   50.00000   50.00000   50.00000   90.00000   90.00000   90.00000
LATT -1
SFAC C  
C      1  0.4971580000000  0.4599780000000  0.5419400000000 1.0
C      1  0.5509610000000  0.6137870000000  0.5116360000000 1.0
C      1  0.5245630000000  0.5293550000000  0.5504840000000 1.0
C      1  0.4844990000000  0.5480420000000  0.4733770000000 1.0
C      1  0.4469330000000  0.4251950000000  0.4862180000000 1.0
C      1  0.5531220000000  0.5474860000000  0.4922770000000 1.0
C      1  0.4652150000000  0.4026890000000  0.4853070000000 1.0
C      1  0.4765920000000  0.3960520000000  0.4602240000000 1.0
C      1  0.5288010000000  0.5166500000000  0.5258330000000 1.0
C      1  0.4889810000000  0.6022330000000  0.5253030000000 1.0
C      1  0.4498390000000  0.5336970000000  0.5387410000000 1.0
C      1  0.4879150000000  0.2850790000000  0.4925010000000 1.0
C      1  0.4462870000000  0.4598170000000  0.5548270000000 1.0
C      1  0.4919450000000  0.4559240000000  0.5699690000000 1.0
C      1  0.5131310000000  0.4284600000000  0.5079830000000 1.0
C      1  0.4944750000000  0.5480410000000  0.5237740000000 1.0
C      1  0.5845440000000  0.4870610000000  0.5343730000000 1.0
C      1  0.5714230000000  0.5352970000000  0.5681940000000 1.0
C      1  0.4745130000000  0.3563070000000  0.5013310000000 1.0
C      1  0.4160360000000  0.4862280000000  0.5251390000000 1.0
C      1  0.5413370000000  0.4728800000000  0.4533680000000 1.0
C      1  0.4369900000000  0.5486570000000  0.4929710000000 1.0
C      1  0.5044250000000  0.4080750000000  0.5736640000000 1.0
C      1  0.5656800000000  0.5589900000000  0.4466230000000 1.0
C      1  0.4437680000000  0.6162570000000  0.4395140000000 1.0
C      1  0.4710690000000  0.3835660000000  0.5073330000000 1.0
C      1  0.5426170000000  0.5055750000000  0.5942660000000 1.0
C      1  0.4857110000000  0.3740120000000  0.4479010000000 1.0
C      1  0.5219460000000  0.5918850000000  0.4796000000000 1.0
C      1  0.5154770000000  0.5647610000000  0.5171300000000 1.0
C      1  0.4494130000000  0.4324250000000  0.5483670000000 1.0
C      1  0.5414080000000  0.5997870000000  0.5344390000000 1.0
C      1  0.4349510000000  0.4619240000000  0.4548650000000 1.0
C      1  0.4565310000000  0.5693020000000  0.5047530000000 1.0
C      1  0.6060340000000  0.5108590000000  0.4939610000000 1.0
C      1  0.4207690000000  0.5079250000000  0.4347740000000 1.0
C      1  0.6584140000000  0.4993180000000  0.4990530000000 1.0
C      1  0.5119500000000  0.5451690000000  0.4718970000000 1.0
C      1  0.4819280000000  0.5421600000000  0.5736200000000 1.0
C      1  0.5148330000000  0.5902420000000  0.5302870000000 1.0
C      1  0.4895790000000  0.4837740000000  0.5293540000000 1.0
C      1  0.5171220000000  0.5028280000000  0.6023080000000 1.0
C      1  0.5698320000000  0.4852520000000  0.5589120000000 1.0
C      1  0.4693750000000  0.5256150000000  0.4645920000000 1.0
C      1  0.6331220000000  0.5050050000000  0.4963790000000 1.0
C      1  0.4459760000000  0.5484080000000  0.4196730000000 1.0
C      1  0.4675730000000  0.4720040000000  0.4884890000000 1.0
C      1  0.5158930000000  0.5225390000000  0.4547300000000 1.0
C      1  0.4983850000000  0.4859640000000  0.4308480000000 1.0
C      1  0.5582960000000  0.5840710000000  0.5510900000000 1.0
C      1  0.5432650000000  0.5527380000000  0.4298350000000 1.0
C      1  0.4421540000000  0.5352470000000  0.4672680000000 1.0
C      1  0.5602460000000  0.4986000000000  0.4948760000000 1.0
C      1  0.5346620000000  0.5259480000000  0.4342870000000 1.0
C      1  0.4237910000000  0.4819910000000  0.4410710000000 1.0
C      1  0.4285860000000  0.5300980000000  0.3430830000000 1.0
C      1  0.4660540000000  0.4701730000000  0.5732190000000 1.0
C      1  0.5738390000000  0.5489660000000  0.4723880000000 1.0
C      1  0.4904670000000  0.5019600000000  0.5985450000000 1.0
C      1  0.4641450000000  0.4805490000000  0.5156380000000 1.0
C      1  0.5381470000000  0.4447710000000  0.5774170000000 1.0
C      1  0.4939680000000  0.4368950000000  0.5262940000000 1.0
C      1  0.5422310000000  0.6116150000000  0.4845610000000 1.0
C      1  0.5109580000000  0.4357830000000  0.5787200000000 1.0
C      1  0.4741050000000  0.5930910000000  0.5010040000000 1.0
C      1  0.4319930000000  0.5333500000000  0.4404600000000 1.0
C      1  0.4765440000000  0.3939090000000  0.5333310000000 1.0
C      1  0.4687360000000  0.4981200000000  0.5797010000000 1.0
C      1  0.4675630000000  0.5530000000000  0.5265420000000 1.0
C      1  0.4657370000000  0.5693070000000  0.4239850000000 1.0
C      1  0.5278010000000  0.5632480000000  0.4894120000000 1.0
C      1  0.4710580000000  0.4216370000000  0.5339540000000 1.0
C      1  0.5967670000000  0.5331810000000  0.4784380000000 1.0
C      1  0.4905560000000  0.4838360000000  0.4763300000000 1.0
C      1  0.4291150000000  0.5321560000000  0.5172930000000 1.0
C      1  0.4854620000000  0.3105140000000  0.4873760000000 1.0
C      1  0.4616680000000  0.5231570000000  0.5641760000000 1.0
C      1  0.5413120000000  0.4831330000000  0.4799650000000 1.0
C      1  0.4932580000000  0.5974990000000  0.4792900000000 1.0
C      1  0.4933410000000  0.3896610000000  0.5564790000000 1.0
C      1  0.5323910000000  0.4182340000000  0.4937100000000 1.0
C      1  0.4883430000000  0.3486550000000  0.4565300000000 1.0
C      1  0.4898810000000  0.5040650000000  0.4538500000000 1.0
C      1  0.4217320000000  0.4199570000000  0.4963400000000 1.0
C      1  0.4511680000000  0.4521080000000  0.4759920000000 1.0
C      1  0.5525370000000  0.6271010000000  0.4646140000000 1.0
C      1  0.5211610000000  0.5685000000000  0.4204960000000 1.0
C      1  0.5083910000000  0.5418120000000  0.5680100000000 1.0
C      1  0.4103610000000  0.5114480000000  0.5179580000000 1.0
C      1  0.5488340000000  0.5228060000000  0.5063840000000 1.0
C      1  0.4409910000000  0.4756500000000  0.5317350000000 1.0
C      1  0.5109940000000  0.4965670000000  0.5168680000000 1.0
C      1  0.5573210000000  0.4609160000000  0.5673400000000 1.0
C      1  0.5225750000000  0.4727730000000  0.4334450000000 1.0
C      1  0.5858070000000  0.4947800000000  0.5067770000000 1.0
C      1  0.5149730000000  0.4854990000000  0.4910080000000 1.0
C      1  0.4396810000000  0.5423740000000  0.3929720000000 1.0
C      1  0.5684090000000  0.5611040000000  0.5609480000000 1.0
C      1  0.4828470000000  0.3376310000000  0.4819360000000 1.0
C      1  0.4341070000000  0.5362430000000  0.3678090000000 1.0
C      1  0.4939510000000  0.5682120000000  0.4187630000000 1.0
C      1  0.4555520000000  0.5940190000000  0.4327410000000 1.0
C      1  0.5631320000000  0.5088070000000  0.5746490000000 1.0
END
