TITL C-599897-7526-906 0.00523779855807287 125000 -1119.19879319001 0 0 182 (C1) n - 1
REM
REM in /home/nfs/bkarasulu/CARBON/AIRSS/Generating-Clusters/TERSOFF/Only-C1/FIRE-HFTN
REM
REM
REM
REM
REM
REM ./C.cell (11c1c37f851c82e70ff6c80c92926a4b)
REM AIRSS Version 0.9.1 bugfix July 2018 build 013d7b7c2542+ Fri, 06 Jul 2018 19:26:36 +0100
REM compiler GCC version 9.2.1 20190827 (Red Hat 9.2.1-1)
REM options -cpp -mtune=generic -march=x86-64 -g -O0 -fpre-include=/usr/include/finclude/math-vector-fortran.h
REM seed 483277884 -503515685 -1687411304 1360643880 2033346691 85348284 1356765492 -812892482 -954198518 -203913290 1458908782 1034706009 31639116 1438971408 -1912594432 -560933707 -1252920913 -326202583 -859000580 -914100143 -1144389133 -628617942 -111464961 1218157384 -708449530 -898202851 2097857303 -204290764 981145185 2015622128 -2131086668 1501480993 1782081613
REM
CELL 1.54180   50.00000   50.00000   50.00000   90.00000   90.00000   90.00000
LATT -1
SFAC C  
C      1  0.6212220000000  0.5154440000000  0.4675710000000 1.0
C      1  0.4206660000000  0.5064880000000  0.5826000000000 1.0
C      1  0.4680180000000  0.5454300000000  0.4381420000000 1.0
C      1  0.4692110000000  0.4090330000000  0.5157200000000 1.0
C      1  0.4411870000000  0.5384160000000  0.4434320000000 1.0
C      1  0.5680890000000  0.4958620000000  0.3757430000000 1.0
C      1  0.4901280000000  0.3870550000000  0.5697220000000 1.0
C      1  0.5697460000000  0.3549190000000  0.4845980000000 1.0
C      1  0.5785630000000  0.4976400000000  0.4038440000000 1.0
C      1  0.5547690000000  0.4584690000000  0.4784800000000 1.0
C      1  0.6038910000000  0.4955650000000  0.4558770000000 1.0
C      1  0.5726810000000  0.5627020000000  0.5899290000000 1.0
C      1  0.5348580000000  0.5142100000000  0.6277950000000 1.0
C      1  0.6008640000000  0.5371030000000  0.5077740000000 1.0
C      1  0.6114090000000  0.5447850000000  0.5346870000000 1.0
C      1  0.4796010000000  0.4182840000000  0.4697370000000 1.0
C      1  0.5158010000000  0.6036710000000  0.5480270000000 1.0
C      1  0.5168270000000  0.3999730000000  0.5002120000000 1.0
C      1  0.5067280000000  0.5314170000000  0.4663770000000 1.0
C      1  0.4715920000000  0.5128280000000  0.5573640000000 1.0
C      1  0.4313580000000  0.5183410000000  0.5271600000000 1.0
C      1  0.4008030000000  0.5777930000000  0.5271600000000 1.0
C      1  0.4404690000000  0.4067740000000  0.5645880000000 1.0
C      1  0.3724130000000  0.5258000000000  0.4378380000000 1.0
C      1  0.5683990000000  0.5559410000000  0.5400220000000 1.0
C      1  0.5577980000000  0.5799420000000  0.5447440000000 1.0
C      1  0.4870840000000  0.5977730000000  0.4859260000000 1.0
C      1  0.5353600000000  0.4018700000000  0.5940930000000 1.0
C      1  0.5199960000000  0.4546660000000  0.4436560000000 1.0
C      1  0.4572260000000  0.5800810000000  0.5577820000000 1.0
C      1  0.5302020000000  0.5794420000000  0.5485020000000 1.0
C      1  0.4963470000000  0.3790550000000  0.5431810000000 1.0
C      1  0.4892890000000  0.5195240000000  0.4859030000000 1.0
C      1  0.5293790000000  0.4939160000000  0.5079360000000 1.0
C      1  0.4951890000000  0.5391650000000  0.4406100000000 1.0
C      1  0.5385860000000  0.6037340000000  0.4845790000000 1.0
C      1  0.4643240000000  0.6048450000000  0.5013900000000 1.0
C      1  0.5197790000000  0.5520610000000  0.5499870000000 1.0
C      1  0.4811100000000  0.5331920000000  0.5744220000000 1.0
C      1  0.5062310000000  0.5276490000000  0.3908250000000 1.0
C      1  0.5755740000000  0.5171050000000  0.5990440000000 1.0
C      1  0.4111480000000  0.4474490000000  0.5058510000000 1.0
C      1  0.5543930000000  0.5186250000000  0.3658110000000 1.0
C      1  0.5097710000000  0.5091870000000  0.6147070000000 1.0
C      1  0.4244060000000  0.5522360000000  0.5880360000000 1.0
C      1  0.4863220000000  0.4192270000000  0.4420590000000 1.0
C      1  0.4233030000000  0.4828340000000  0.5669200000000 1.0
C      1  0.5310890000000  0.5787430000000  0.4962710000000 1.0
C      1  0.4644360000000  0.4772090000000  0.4854240000000 1.0
C      1  0.4051900000000  0.4828570000000  0.3804550000000 1.0
C      1  0.5509510000000  0.3734760000000  0.4775760000000 1.0
C      1  0.5141110000000  0.4804770000000  0.4874680000000 1.0
C      1  0.5296340000000  0.5272090000000  0.3724860000000 1.0
C      1  0.4934200000000  0.5506560000000  0.5567160000000 1.0
C      1  0.6151140000000  0.4905660000000  0.5082520000000 1.0
C      1  0.5780920000000  0.4639550000000  0.5823750000000 1.0
C      1  0.5668590000000  0.5908300000000  0.4317900000000 1.0
C      1  0.4598200000000  0.5082590000000  0.3941420000000 1.0
C      1  0.5197680000000  0.5012280000000  0.5341130000000 1.0
C      1  0.6010680000000  0.5302720000000  0.5579110000000 1.0
C      1  0.5957010000000  0.4702800000000  0.5087760000000 1.0
C      1  0.4576880000000  0.5343080000000  0.3822150000000 1.0
C      1  0.3971210000000  0.5269380000000  0.4245990000000 1.0
C      1  0.5665240000000  0.4242550000000  0.5500170000000 1.0
C      1  0.3764050000000  0.5392470000000  0.5091660000000 1.0
C      1  0.3282420000000  0.5486320000000  0.4169380000000 1.0
C      1  0.5194170000000  0.4334260000000  0.5516760000000 1.0
C      1  0.4494270000000  0.4732640000000  0.5583370000000 1.0
C      1  0.4365380000000  0.5125720000000  0.6065840000000 1.0
C      1  0.5737040000000  0.5419720000000  0.4943190000000 1.0
C      1  0.4432320000000  0.6000210000000  0.5426990000000 1.0
C      1  0.6230840000000  0.5398640000000  0.4532770000000 1.0
C      1  0.4500400000000  0.4173190000000  0.4753320000000 1.0
C      1  0.5100770000000  0.4533690000000  0.5348070000000 1.0
C      1  0.5891230000000  0.5762410000000  0.4349890000000 1.0
C      1  0.4988230000000  0.6095620000000  0.4627030000000 1.0
C      1  0.4458910000000  0.4904230000000  0.6207440000000 1.0
C      1  0.4078590000000  0.4750490000000  0.5177770000000 1.0
C      1  0.5139220000000  0.5314180000000  0.4198130000000 1.0
C      1  0.5017110000000  0.4423170000000  0.5093880000000 1.0
C      1  0.5404820000000  0.4435310000000  0.6159000000000 1.0
C      1  0.5018010000000  0.5757640000000  0.4985610000000 1.0
C      1  0.4125370000000  0.5338460000000  0.5421420000000 1.0
C      1  0.5898320000000  0.5388430000000  0.5838210000000 1.0
C      1  0.5164110000000  0.3782770000000  0.4371830000000 1.0
C      1  0.3690320000000  0.5264490000000  0.4869270000000 1.0
C      1  0.4673790000000  0.6140760000000  0.5304550000000 1.0
C      1  0.4289840000000  0.5090510000000  0.4806740000000 1.0
C      1  0.4279740000000  0.4353760000000  0.4338280000000 1.0
C      1  0.5847310000000  0.4261080000000  0.4738760000000 1.0
C      1  0.5032540000000  0.4794620000000  0.5456600000000 1.0
C      1  0.4330640000000  0.5371900000000  0.4712140000000 1.0
C      1  0.5675180000000  0.4084880000000  0.4095680000000 1.0
C      1  0.4937620000000  0.3919680000000  0.5182550000000 1.0
C      1  0.5795680000000  0.4251830000000  0.5243410000000 1.0
C      1  0.5387770000000  0.4517650000000  0.4229890000000 1.0
C      1  0.4744610000000  0.4375740000000  0.5144320000000 1.0
C      1  0.3496730000000  0.5376190000000  0.4268650000000 1.0
C      1  0.5506480000000  0.4256960000000  0.5967550000000 1.0
C      1  0.5806660000000  0.5116190000000  0.5480940000000 1.0
C      1  0.5373380000000  0.5185070000000  0.4318980000000 1.0
C      1  0.4826370000000  0.5742750000000  0.3710250000000 1.0
C      1  0.4776930000000  0.5929350000000  0.5753960000000 1.0
C      1  0.5694630000000  0.4149020000000  0.4980760000000 1.0
C      1  0.5271920000000  0.6100770000000  0.4592600000000 1.0
C      1  0.4034010000000  0.4763830000000  0.5466830000000 1.0
C      1  0.5418010000000  0.4878190000000  0.6373880000000 1.0
C      1  0.4390070000000  0.4987320000000  0.4137620000000 1.0
C      1  0.4135900000000  0.5321740000000  0.5701800000000 1.0
C      1  0.5967940000000  0.4780650000000  0.4148140000000 1.0
C      1  0.5604100000000  0.5192160000000  0.4785520000000 1.0
C      1  0.4482330000000  0.4679190000000  0.5311960000000 1.0
C      1  0.4594050000000  0.4600860000000  0.5075600000000 1.0
C      1  0.5404730000000  0.4739520000000  0.4064430000000 1.0
C      1  0.5961570000000  0.4449810000000  0.4564920000000 1.0
C      1  0.4836340000000  0.4750870000000  0.5931530000000 1.0
C      1  0.4972780000000  0.3959420000000  0.4309740000000 1.0
C      1  0.5522100000000  0.4983330000000  0.4184490000000 1.0
C      1  0.4235100000000  0.4517080000000  0.4131660000000 1.0
C      1  0.3750560000000  0.4842560000000  0.4628720000000 1.0
C      1  0.5989730000000  0.4456690000000  0.5216640000000 1.0
C      1  0.4892190000000  0.6110420000000  0.5538060000000 1.0
C      1  0.5356640000000  0.3708590000000  0.4540940000000 1.0
C      1  0.5282950000000  0.4675730000000  0.6216780000000 1.0
C      1  0.4849160000000  0.5473400000000  0.3813550000000 1.0
C      1  0.4887780000000  0.4911320000000  0.4847090000000 1.0
C      1  0.4493160000000  0.4872930000000  0.4400500000000 1.0
C      1  0.5529690000000  0.4283300000000  0.4181760000000 1.0
C      1  0.6024770000000  0.4701680000000  0.4423020000000 1.0
C      1  0.5314420000000  0.5263310000000  0.5436300000000 1.0
C      1  0.4769600000000  0.5314750000000  0.5085120000000 1.0
C      1  0.4455040000000  0.5409830000000  0.6051310000000 1.0
C      1  0.5441520000000  0.6040020000000  0.4376950000000 1.0
C      1  0.5117730000000  0.3906580000000  0.5875400000000 1.0
C      1  0.4882180000000  0.5019980000000  0.3926560000000 1.0
C      1  0.4724310000000  0.5478240000000  0.5978740000000 1.0
C      1  0.5525620000000  0.5294540000000  0.6128680000000 1.0
C      1  0.3709960000000  0.5120570000000  0.4628230000000 1.0
C      1  0.4776420000000  0.4839890000000  0.5646350000000 1.0
C      1  0.5193110000000  0.5688280000000  0.6020920000000 1.0
C      1  0.4603070000000  0.5193880000000  0.5303660000000 1.0
C      1  0.5786760000000  0.4891230000000  0.5929260000000 1.0
C      1  0.4616840000000  0.4710530000000  0.6106860000000 1.0
C      1  0.5785470000000  0.5076990000000  0.4584090000000 1.0
C      1  0.4837880000000  0.5587680000000  0.5137120000000 1.0
C      1  0.5533000000000  0.5616260000000  0.4982810000000 1.0
C      1  0.5071800000000  0.4814380000000  0.6068440000000 1.0
C      1  0.6170200000000  0.5159770000000  0.4958720000000 1.0
C      1  0.6092970000000  0.5602120000000  0.4423860000000 1.0
C      1  0.4894870000000  0.5733220000000  0.5963520000000 1.0
C      1  0.4087210000000  0.4457500000000  0.4771430000000 1.0
C      1  0.5706120000000  0.4744780000000  0.4961070000000 1.0
C      1  0.5395470000000  0.4162180000000  0.5481230000000 1.0
C      1  0.6303700000000  0.5644210000000  0.5372460000000 1.0
C      1  0.4227150000000  0.4229190000000  0.5179520000000 1.0
C      1  0.4200070000000  0.5008130000000  0.5069540000000 1.0
C      1  0.4637140000000  0.3966980000000  0.5737240000000 1.0
C      1  0.5465950000000  0.5566570000000  0.6029530000000 1.0
C      1  0.5457230000000  0.3964030000000  0.4943580000000 1.0
C      1  0.5495900000000  0.4731850000000  0.3789970000000 1.0
C      1  0.4349870000000  0.5627240000000  0.4845800000000 1.0
C      1  0.4402580000000  0.5544050000000  0.3714980000000 1.0
C      1  0.4216000000000  0.4774310000000  0.4016440000000 1.0
C      1  0.4749690000000  0.5644570000000  0.5405580000000 1.0
C      1  0.3886020000000  0.4614610000000  0.4653980000000 1.0
C      1  0.5351400000000  0.5242670000000  0.4613930000000 1.0
C      1  0.5048570000000  0.4230960000000  0.4870640000000 1.0
C      1  0.4248840000000  0.5237990000000  0.4246870000000 1.0
C      1  0.5592640000000  0.5287800000000  0.5416400000000 1.0
C      1  0.4544100000000  0.5773350000000  0.3651500000000 1.0
C      1  0.4289220000000  0.4316500000000  0.4616830000000 1.0
C      1  0.5023190000000  0.5925850000000  0.3678150000000 1.0
C      1  0.4245850000000  0.5916500000000  0.5228310000000 1.0
C      1  0.3943740000000  0.5504030000000  0.5276760000000 1.0
C      1  0.4948900000000  0.4450150000000  0.4356470000000 1.0
C      1  0.4453020000000  0.4888410000000  0.4678810000000 1.0
C      1  0.4397010000000  0.5876610000000  0.4981570000000 1.0
C      1  0.5690700000000  0.4371100000000  0.5765930000000 1.0
C      1  0.5283620000000  0.4636610000000  0.4692950000000 1.0
C      1  0.5557710000000  0.4984710000000  0.4996660000000 1.0
C      1  0.4238060000000  0.4164170000000  0.5456520000000 1.0
C      1  0.4434210000000  0.4086530000000  0.5024300000000 1.0
END
