TITL C-599893-4344-672 -44.4395900599447 125000 -585.016919623328 0 0 99 (C1) n - 1
REM
REM in /home/nfs/bkarasulu/CARBON/AIRSS/Generating-Clusters/TERSOFF/Only-C1/FIRE-HFTN
REM
REM
REM
REM
REM
REM ./C.cell (11c1c37f851c82e70ff6c80c92926a4b)
REM AIRSS Version 0.9.1 bugfix July 2018 build 013d7b7c2542+ Fri, 06 Jul 2018 19:26:36 +0100
REM compiler GCC version 9.2.1 20190827 (Red Hat 9.2.1-1)
REM options -cpp -mtune=generic -march=x86-64 -g -O0 -fpre-include=/usr/include/finclude/math-vector-fortran.h
REM seed 590024301 1978995823 -2116144995 -1445563221 -656667821 -792862807 428789650 -1202876933 -416789215 -2071987500 435639125 502915549 1259940738 -551703695 -1976829061 -48235373 230723234 -714084618 1226045000 -422339184 1287761404 -546876649 1698619676 -1897367324 -1527108029 995727895 1261619502 -1930261795 1929594493 -490194495 -2099482611 1984622419 665232376
REM
CELL 1.54180   50.00000   50.00000   50.00000   90.00000   90.00000   90.00000
LATT -1
SFAC C  
C      1  0.4533560000000  0.5512550000000  0.4926660000000 1.0
C      1  0.4253530000000  0.4350670000000  0.5384010000000 1.0
C      1  0.4293900000000  0.5525040000000  0.5659820000000 1.0
C      1  0.6055050000000  0.5396450000000  0.3347000000000 1.0
C      1  0.5086890000000  0.5678960000000  0.5897350000000 1.0
C      1  0.4809730000000  0.4533630000000  0.4909790000000 1.0
C      1  0.4350790000000  0.4612730000000  0.4544630000000 1.0
C      1  0.5239930000000  0.5294710000000  0.5712900000000 1.0
C      1  0.4746480000000  0.5035590000000  0.4953970000000 1.0
C      1  0.4135580000000  0.4637500000000  0.4998300000000 1.0
C      1  0.5902990000000  0.4616290000000  0.5847000000000 1.0
C      1  0.4862460000000  0.5359760000000  0.5307190000000 1.0
C      1  0.4009120000000  0.5144280000000  0.5147960000000 1.0
C      1  0.5986420000000  0.6067070000000  0.3607750000000 1.0
C      1  0.6009030000000  0.6314670000000  0.3529580000000 1.0
C      1  0.4144970000000  0.4026370000000  0.4166180000000 1.0
C      1  0.5198610000000  0.3803890000000  0.4557620000000 1.0
C      1  0.5399220000000  0.5265490000000  0.3681990000000 1.0
C      1  0.5962050000000  0.5801690000000  0.3691500000000 1.0
C      1  0.5887400000000  0.5744520000000  0.3954510000000 1.0
C      1  0.4289170000000  0.5052110000000  0.5786900000000 1.0
C      1  0.4300790000000  0.4207000000000  0.4281410000000 1.0
C      1  0.6138470000000  0.4495640000000  0.5862660000000 1.0
C      1  0.4028210000000  0.4883110000000  0.5087900000000 1.0
C      1  0.5455490000000  0.4861190000000  0.4600800000000 1.0
C      1  0.5433490000000  0.3705170000000  0.4694030000000 1.0
C      1  0.5109240000000  0.4051240000000  0.4684830000000 1.0
C      1  0.4988770000000  0.5104100000000  0.5320990000000 1.0
C      1  0.4926000000000  0.6099180000000  0.5221910000000 1.0
C      1  0.4587630000000  0.4464720000000  0.5043060000000 1.0
C      1  0.5359620000000  0.5177370000000  0.3924020000000 1.0
C      1  0.4468450000000  0.4393310000000  0.4406270000000 1.0
C      1  0.4512520000000  0.5719050000000  0.5744840000000 1.0
C      1  0.5418070000000  0.4848140000000  0.5784830000000 1.0
C      1  0.4697480000000  0.5493550000000  0.5139540000000 1.0
C      1  0.5041340000000  0.5046440000000  0.4597440000000 1.0
C      1  0.4711530000000  0.4864220000000  0.5761060000000 1.0
C      1  0.4214220000000  0.5577950000000  0.5388490000000 1.0
C      1  0.5715020000000  0.5590340000000  0.4430490000000 1.0
C      1  0.4272080000000  0.4401280000000  0.5894960000000 1.0
C      1  0.4527190000000  0.5059210000000  0.4769090000000 1.0
C      1  0.5601160000000  0.4898770000000  0.5056570000000 1.0
C      1  0.5175850000000  0.4765830000000  0.5911120000000 1.0
C      1  0.5789590000000  0.6038400000000  0.4870580000000 1.0
C      1  0.4070300000000  0.5389590000000  0.5239260000000 1.0
C      1  0.5292010000000  0.5876200000000  0.4983040000000 1.0
C      1  0.5078770000000  0.3684600000000  0.4344460000000 1.0
C      1  0.5201700000000  0.5579970000000  0.5646060000000 1.0
C      1  0.6369950000000  0.4376670000000  0.5877820000000 1.0
C      1  0.5214950000000  0.5626710000000  0.5115450000000 1.0
C      1  0.4901090000000  0.4196360000000  0.4565940000000 1.0
C      1  0.4884630000000  0.4471070000000  0.4168960000000 1.0
C      1  0.4751530000000  0.4354420000000  0.4386140000000 1.0
C      1  0.5114970000000  0.5690670000000  0.5396270000000 1.0
C      1  0.4767730000000  0.4939560000000  0.5232840000000 1.0
C      1  0.5210690000000  0.5374990000000  0.4940010000000 1.0
C      1  0.4429280000000  0.5324260000000  0.4762880000000 1.0
C      1  0.4233490000000  0.4311100000000  0.5646520000000 1.0
C      1  0.4472200000000  0.4864070000000  0.4576530000000 1.0
C      1  0.5103680000000  0.6085960000000  0.5017950000000 1.0
C      1  0.5560980000000  0.5029050000000  0.4810820000000 1.0
C      1  0.4373890000000  0.5447660000000  0.6099160000000 1.0
C      1  0.5376800000000  0.4796540000000  0.5195870000000 1.0
C      1  0.4387610000000  0.5803420000000  0.5316630000000 1.0
C      1  0.5332360000000  0.4207900000000  0.5388070000000 1.0
C      1  0.5366110000000  0.5065270000000  0.5602770000000 1.0
C      1  0.4325000000000  0.4482380000000  0.5148130000000 1.0
C      1  0.4983190000000  0.5468750000000  0.6047070000000 1.0
C      1  0.5174630000000  0.4793890000000  0.4655990000000 1.0
C      1  0.4132950000000  0.4574670000000  0.4721880000000 1.0
C      1  0.5503730000000  0.4927280000000  0.4328400000000 1.0
C      1  0.5284600000000  0.4105250000000  0.4917600000000 1.0
C      1  0.4346740000000  0.4987990000000  0.5508920000000 1.0
C      1  0.4260200000000  0.5319790000000  0.5863760000000 1.0
C      1  0.5317860000000  0.5087780000000  0.4182850000000 1.0
C      1  0.5243710000000  0.4986750000000  0.5360140000000 1.0
C      1  0.5085280000000  0.5147070000000  0.4337090000000 1.0
C      1  0.4616740000000  0.4886080000000  0.5471150000000 1.0
C      1  0.4364330000000  0.4618960000000  0.6021710000000 1.0
C      1  0.4464110000000  0.4861750000000  0.5924720000000 1.0
C      1  0.5808070000000  0.5676770000000  0.4197960000000 1.0
C      1  0.5032690000000  0.5216710000000  0.5917560000000 1.0
C      1  0.4997620000000  0.4554720000000  0.3949560000000 1.0
C      1  0.6012170000000  0.5593400000000  0.3512210000000 1.0
C      1  0.5469830000000  0.5303660000000  0.4815150000000 1.0
C      1  0.5551720000000  0.5936760000000  0.4903530000000 1.0
C      1  0.5579170000000  0.3484610000000  0.4634810000000 1.0
C      1  0.5480890000000  0.3890980000000  0.4907040000000 1.0
C      1  0.5293100000000  0.4292720000000  0.5130670000000 1.0
C      1  0.4951780000000  0.4942390000000  0.5893060000000 1.0
C      1  0.3991940000000  0.3848160000000  0.4053130000000 1.0
C      1  0.4884820000000  0.5883780000000  0.5404280000000 1.0
C      1  0.5253460000000  0.4568100000000  0.5077170000000 1.0
C      1  0.5073600000000  0.4623880000000  0.4861520000000 1.0
C      1  0.4518950000000  0.5674370000000  0.6029530000000 1.0
C      1  0.5601960000000  0.5481580000000  0.4644150000000 1.0
C      1  0.4987340000000  0.5188410000000  0.4845680000000 1.0
C      1  0.4617330000000  0.5840970000000  0.5503330000000 1.0
C      1  0.5666750000000  0.4734420000000  0.5827340000000 1.0
END
