TITL C-599896-8500-1309 3.77853872807619e-05 125000 -252.027381339749 0 0 43 (C1) n - 1
REM
REM in /home/nfs/bkarasulu/CARBON/AIRSS/Generating-Clusters/TERSOFF/Only-C1/FIRE-HFTN
REM
REM
REM
REM
REM
REM ./C.cell (11c1c37f851c82e70ff6c80c92926a4b)
REM AIRSS Version 0.9.1 bugfix July 2018 build 013d7b7c2542+ Fri, 06 Jul 2018 19:26:36 +0100
REM compiler GCC version 9.2.1 20190827 (Red Hat 9.2.1-1)
REM options -cpp -mtune=generic -march=x86-64 -g -O0 -fpre-include=/usr/include/finclude/math-vector-fortran.h
REM seed -102986124 -408717812 -1166988163 740240653 -1095073605 538010756 1778164712 -1550840053 -1216758042 1449123731 224952189 90459269 1776118937 273029512 635224405 1217172652 1346930171 2038269527 -1395649912 -1391180582 -55713486 868365088 525486539 -858566486 1004453052 421246421 1438941988 -654095936 -1985302990 1369370838 -19390006 646900549 -371416414
REM
CELL 1.54180   50.00000   50.00000   50.00000   90.00000   90.00000   90.00000
LATT -1
SFAC C  
C      1  0.4929050000000  0.4749830000000  0.4580710000000 1.0
C      1  0.4898620000000  0.4746390000000  0.4846010000000 1.0
C      1  0.4094610000000  0.4570350000000  0.4770620000000 1.0
C      1  0.4655300000000  0.5174170000000  0.4381400000000 1.0
C      1  0.5436000000000  0.4731170000000  0.4701070000000 1.0
C      1  0.3873180000000  0.4531590000000  0.4638790000000 1.0
C      1  0.5286710000000  0.5162810000000  0.5096650000000 1.0
C      1  0.5360890000000  0.4926510000000  0.4504760000000 1.0
C      1  0.4422770000000  0.4865890000000  0.5697810000000 1.0
C      1  0.5284810000000  0.4631920000000  0.5413930000000 1.0
C      1  0.5062260000000  0.4743460000000  0.5558020000000 1.0
C      1  0.5264040000000  0.5544330000000  0.4618640000000 1.0
C      1  0.5298070000000  0.5162750000000  0.5650970000000 1.0
C      1  0.4448190000000  0.5130820000000  0.4548220000000 1.0
C      1  0.4332240000000  0.4620540000000  0.4906120000000 1.0
C      1  0.5065190000000  0.4996140000000  0.5664740000000 1.0
C      1  0.5012380000000  0.4345040000000  0.5123090000000 1.0
C      1  0.4606370000000  0.4883810000000  0.5194690000000 1.0
C      1  0.4409190000000  0.4885200000000  0.4983940000000 1.0
C      1  0.5527980000000  0.4749800000000  0.5508900000000 1.0
C      1  0.5286340000000  0.5429970000000  0.5560500000000 1.0
C      1  0.5766690000000  0.5082040000000  0.5200380000000 1.0
C      1  0.4868150000000  0.4898590000000  0.5080370000000 1.0
C      1  0.5236040000000  0.5717570000000  0.5121480000000 1.0
C      1  0.5645140000000  0.5377810000000  0.4854050000000 1.0
C      1  0.5262420000000  0.5620100000000  0.5371260000000 1.0
C      1  0.5509830000000  0.5395310000000  0.4609000000000 1.0
C      1  0.5058540000000  0.5439260000000  0.4456470000000 1.0
C      1  0.4423240000000  0.5129440000000  0.4829400000000 1.0
C      1  0.5246540000000  0.4504620000000  0.5159320000000 1.0
C      1  0.5079990000000  0.4945830000000  0.4446080000000 1.0
C      1  0.4818440000000  0.5362440000000  0.5051500000000 1.0
C      1  0.5515500000000  0.5157230000000  0.4455620000000 1.0
C      1  0.4532780000000  0.4875520000000  0.5461690000000 1.0
C      1  0.5532500000000  0.4997960000000  0.5627860000000 1.0
C      1  0.4751620000000  0.4317760000000  0.5059960000000 1.0
C      1  0.4512640000000  0.4410230000000  0.4976080000000 1.0
C      1  0.5004370000000  0.5150020000000  0.5090940000000 1.0
C      1  0.5392870000000  0.4590900000000  0.4928570000000 1.0
C      1  0.5221540000000  0.5699750000000  0.4852690000000 1.0
C      1  0.5566210000000  0.5208630000000  0.5065540000000 1.0
C      1  0.4937740000000  0.5191490000000  0.4393050000000 1.0
C      1  0.4563030000000  0.5345030000000  0.4959120000000 1.0
END
