TITL C-599893-4344-1451 -1.75861385123551e-05 125000 -694.439194065325 0 0 115 (C1) n - 1
REM
REM in /home/nfs/bkarasulu/CARBON/AIRSS/Generating-Clusters/TERSOFF/Only-C1/FIRE-HFTN
REM
REM
REM
REM
REM
REM ./C.cell (11c1c37f851c82e70ff6c80c92926a4b)
REM AIRSS Version 0.9.1 bugfix July 2018 build 013d7b7c2542+ Fri, 06 Jul 2018 19:26:36 +0100
REM compiler GCC version 9.2.1 20190827 (Red Hat 9.2.1-1)
REM options -cpp -mtune=generic -march=x86-64 -g -O0 -fpre-include=/usr/include/finclude/math-vector-fortran.h
REM seed 726257577 1115436387 639870512 1355358313 1368475678 -1268672069 -828260813 790258712 -1062128417 1860766198 -1314110160 438094532 1701941046 -1983904279 1489001753 1882028992 -873239317 -1382239521 404829433 1287004069 -703420330 102218890 -319255642 1479721178 -1202416993 937438637 -779632685 -1360406563 -24123891 1797707821 3930664 181831818 -820768557
REM
CELL 1.54180   50.00000   50.00000   50.00000   90.00000   90.00000   90.00000
LATT -1
SFAC C  
C      1  0.4880680000000  0.4513340000000  0.4204540000000 1.0
C      1  0.4815990000000  0.5158070000000  0.6003990000000 1.0
C      1  0.5859030000000  0.5161750000000  0.4483120000000 1.0
C      1  0.5269990000000  0.4926320000000  0.5593850000000 1.0
C      1  0.4815170000000  0.5471470000000  0.4815560000000 1.0
C      1  0.4578650000000  0.5541290000000  0.5991860000000 1.0
C      1  0.5830560000000  0.5000830000000  0.4717320000000 1.0
C      1  0.5908780000000  0.4613690000000  0.5035540000000 1.0
C      1  0.4353500000000  0.5051040000000  0.5048170000000 1.0
C      1  0.3898340000000  0.5240000000000  0.5470630000000 1.0
C      1  0.5435760000000  0.4747490000000  0.4823760000000 1.0
C      1  0.4600210000000  0.4726150000000  0.5271290000000 1.0
C      1  0.5297440000000  0.4286320000000  0.4286960000000 1.0
C      1  0.4837240000000  0.5709550000000  0.4318290000000 1.0
C      1  0.5268110000000  0.5360280000000  0.5863230000000 1.0
C      1  0.5290030000000  0.4905690000000  0.5281070000000 1.0
C      1  0.5189960000000  0.5297850000000  0.4427560000000 1.0
C      1  0.4972910000000  0.3955310000000  0.4894520000000 1.0
C      1  0.4498850000000  0.4541020000000  0.5073870000000 1.0
C      1  0.4784770000000  0.3729710000000  0.5320550000000 1.0
C      1  0.4914450000000  0.4973670000000  0.4265780000000 1.0
C      1  0.5175570000000  0.4141610000000  0.4989170000000 1.0
C      1  0.5442500000000  0.4507010000000  0.4392640000000 1.0
C      1  0.5803680000000  0.5366630000000  0.5778530000000 1.0
C      1  0.4605690000000  0.4523590000000  0.4815860000000 1.0
C      1  0.4554390000000  0.5260200000000  0.5918380000000 1.0
C      1  0.4833020000000  0.5742190000000  0.5485480000000 1.0
C      1  0.5336830000000  0.4357560000000  0.5495930000000 1.0
C      1  0.4818050000000  0.5465010000000  0.5395780000000 1.0
C      1  0.4981270000000  0.4786970000000  0.4899670000000 1.0
C      1  0.4615640000000  0.5022290000000  0.5189200000000 1.0
C      1  0.5564510000000  0.4370100000000  0.5338290000000 1.0
C      1  0.5229430000000  0.4697720000000  0.5043930000000 1.0
C      1  0.4244630000000  0.4932810000000  0.4323910000000 1.0
C      1  0.4624150000000  0.5248110000000  0.5405430000000 1.0
C      1  0.5381770000000  0.5701670000000  0.4450200000000 1.0
C      1  0.5436030000000  0.5252380000000  0.4856390000000 1.0
C      1  0.5438680000000  0.5422000000000  0.4363650000000 1.0
C      1  0.5516990000000  0.4519900000000  0.4667130000000 1.0
C      1  0.4614460000000  0.5419040000000  0.3991220000000 1.0
C      1  0.3994210000000  0.5027250000000  0.5605130000000 1.0
C      1  0.5228200000000  0.5844140000000  0.5767390000000 1.0
C      1  0.5073670000000  0.5371040000000  0.5318630000000 1.0
C      1  0.5667360000000  0.5838860000000  0.5183670000000 1.0
C      1  0.4914070000000  0.4032380000000  0.4401240000000 1.0
C      1  0.5556930000000  0.5002420000000  0.4802850000000 1.0
C      1  0.5074590000000  0.4742390000000  0.4227430000000 1.0
C      1  0.4532460000000  0.5106730000000  0.4645670000000 1.0
C      1  0.5321240000000  0.5509080000000  0.4855890000000 1.0
C      1  0.5788410000000  0.5154850000000  0.5253900000000 1.0
C      1  0.4134480000000  0.4365390000000  0.4641130000000 1.0
C      1  0.5455450000000  0.5738320000000  0.4736540000000 1.0
C      1  0.5113010000000  0.6124480000000  0.5246300000000 1.0
C      1  0.4690050000000  0.4935190000000  0.4090920000000 1.0
C      1  0.5290750000000  0.5529260000000  0.5333830000000 1.0
C      1  0.4777950000000  0.4383730000000  0.5565790000000 1.0
C      1  0.5864710000000  0.5411060000000  0.5266650000000 1.0
C      1  0.5583730000000  0.4983740000000  0.5256520000000 1.0
C      1  0.4354030000000  0.5170830000000  0.4439920000000 1.0
C      1  0.6283010000000  0.4844910000000  0.4822640000000 1.0
C      1  0.5716640000000  0.4406460000000  0.5089560000000 1.0
C      1  0.5635520000000  0.5214750000000  0.4310040000000 1.0
C      1  0.4846920000000  0.3776300000000  0.5065190000000 1.0
C      1  0.5664590000000  0.5591160000000  0.5659320000000 1.0
C      1  0.4346310000000  0.4661380000000  0.4286120000000 1.0
C      1  0.5504530000000  0.5921110000000  0.4957550000000 1.0
C      1  0.5016120000000  0.5367990000000  0.5991330000000 1.0
C      1  0.5069740000000  0.4369750000000  0.5567080000000 1.0
C      1  0.4372320000000  0.4188700000000  0.5359350000000 1.0
C      1  0.4596610000000  0.5559320000000  0.4239830000000 1.0
C      1  0.4199010000000  0.4430170000000  0.4371180000000 1.0
C      1  0.5102580000000  0.5776930000000  0.4366560000000 1.0
C      1  0.4798940000000  0.5187450000000  0.4735950000000 1.0
C      1  0.4614580000000  0.5154620000000  0.3935980000000 1.0
C      1  0.5086280000000  0.5122130000000  0.5197430000000 1.0
C      1  0.4837510000000  0.4620680000000  0.4731260000000 1.0
C      1  0.5286770000000  0.6091820000000  0.5025920000000 1.0
C      1  0.5745060000000  0.5643940000000  0.5380000000000 1.0
C      1  0.4487920000000  0.5215280000000  0.5649760000000 1.0
C      1  0.4190240000000  0.5608320000000  0.4566260000000 1.0
C      1  0.4041230000000  0.5585610000000  0.4791850000000 1.0
C      1  0.4622420000000  0.4628160000000  0.5538500000000 1.0
C      1  0.4867400000000  0.5040710000000  0.5000090000000 1.0
C      1  0.4968280000000  0.5144320000000  0.4479750000000 1.0
C      1  0.5161480000000  0.4405790000000  0.5085290000000 1.0
C      1  0.5675360000000  0.5127240000000  0.5815620000000 1.0
C      1  0.3992350000000  0.5396310000000  0.4996870000000 1.0
C      1  0.4946750000000  0.5779440000000  0.5751590000000 1.0
C      1  0.4142990000000  0.4291750000000  0.4901780000000 1.0
C      1  0.4164580000000  0.4836210000000  0.5689250000000 1.0
C      1  0.4308050000000  0.4337460000000  0.5128290000000 1.0
C      1  0.5042900000000  0.3899670000000  0.4615440000000 1.0
C      1  0.5398940000000  0.5615100000000  0.5777910000000 1.0
C      1  0.3881770000000  0.5406480000000  0.5257400000000 1.0
C      1  0.5229870000000  0.6240750000000  0.5477470000000 1.0
C      1  0.4612630000000  0.4150380000000  0.5512930000000 1.0
C      1  0.5009120000000  0.4263050000000  0.4267940000000 1.0
C      1  0.5391880000000  0.5111390000000  0.5780540000000 1.0
C      1  0.5337010000000  0.3904840000000  0.4630900000000 1.0
C      1  0.5599650000000  0.4304140000000  0.4840730000000 1.0
C      1  0.4364660000000  0.5461460000000  0.4396260000000 1.0
C      1  0.4890460000000  0.5952570000000  0.5299690000000 1.0
C      1  0.4609320000000  0.4655650000000  0.4161370000000 1.0
C      1  0.4127790000000  0.5153420000000  0.4957140000000 1.0
C      1  0.5425400000000  0.4083210000000  0.4840710000000 1.0
C      1  0.5357350000000  0.4746790000000  0.4260610000000 1.0
C      1  0.4112480000000  0.4256860000000  0.4175680000000 1.0
C      1  0.4399390000000  0.4702520000000  0.5698940000000 1.0
C      1  0.5520430000000  0.4971150000000  0.4203010000000 1.0
C      1  0.4854570000000  0.5616780000000  0.5962680000000 1.0
C      1  0.6006780000000  0.4819670000000  0.4858090000000 1.0
C      1  0.4711100000000  0.3888300000000  0.5523700000000 1.0
C      1  0.5049700000000  0.5570820000000  0.4893880000000 1.0
C      1  0.5302030000000  0.6106230000000  0.5700020000000 1.0
C      1  0.6539700000000  0.4873790000000  0.4788150000000 1.0
END
