TITL C-599890-3321-1398 6504.79684754851 125000 -1003.54567398857 0 0 168 (C1) n - 1
REM
REM in /home/nfs/bkarasulu/CARBON/AIRSS/Generating-Clusters/TERSOFF/Only-C1/FIRE-HFTN
REM
REM
REM
REM
REM
REM ./C.cell (11c1c37f851c82e70ff6c80c92926a4b)
REM AIRSS Version 0.9.1 bugfix July 2018 build 013d7b7c2542+ Fri, 06 Jul 2018 19:26:36 +0100
REM compiler GCC version 9.2.1 20190827 (Red Hat 9.2.1-1)
REM options -cpp -mtune=generic -march=x86-64 -g -O0 -fpre-include=/usr/include/finclude/math-vector-fortran.h
REM seed 994105458 867143063 1415146380 -1026885113 -1624954785 -369560267 2114047377 -934477475 1324817001 1878188293 1755245050 -20538769 -1117546249 644724426 -303531612 -197167638 -1485779589 436894150 1247016255 -222021935 995921400 1835864349 -115897734 -1533595242 1906140812 -1296937329 951223281 123843362 -1431868187 -1049752647 -1320761232 -863629735 902340361
REM
CELL 1.54180   50.00000   50.00000   50.00000   90.00000   90.00000   90.00000
LATT -1
SFAC C  
C      1  0.5893710000000  0.5553410000000  0.4318260000000 1.0
C      1  0.5067490000000  0.3369170000000  0.5842040000000 1.0
C      1  0.5850110000000  0.4056710000000  0.5047540000000 1.0
C      1  0.4168270000000  0.4223320000000  0.5018820000000 1.0
C      1  0.4929800000000  0.3359230000000  0.6063090000000 1.0
C      1  0.5906650000000  0.5140440000000  0.4561350000000 1.0
C      1  0.4402800000000  0.4565710000000  0.4693950000000 1.0
C      1  0.5748960000000  0.5563840000000  0.4776020000000 1.0
C      1  0.5371300000000  0.4877350000000  0.5908220000000 1.0
C      1  0.4755440000000  0.4044400000000  0.6041460000000 1.0
C      1  0.4015090000000  0.5552520000000  0.4286590000000 1.0
C      1  0.5917080000000  0.4410720000000  0.5408650000000 1.0
C      1  0.6082530000000  0.4086420000000  0.4891340000000 1.0
C      1  0.5497330000000  0.4106640000000  0.5367150000000 1.0
C      1  0.4045330000000  0.5554470000000  0.5144360000000 1.0
C      1  0.5741840000000  0.4440790000000  0.4378890000000 1.0
C      1  0.5147320000000  0.4765040000000  0.5740640000000 1.0
C      1  0.5673540000000  0.5846960000000  0.5177020000000 1.0
C      1  0.4229530000000  0.4837880000000  0.4252920000000 1.0
C      1  0.4356550000000  0.5916070000000  0.4920050000000 1.0
C      1  0.5640930000000  0.5658280000000  0.4246300000000 1.0
C      1  0.5134910000000  0.4923250000000  0.4054770000000 1.0
C      1  0.4918120000000  0.5745310000000  0.4768130000000 1.0
C      1  0.5806730000000  0.4905680000000  0.4479600000000 1.0
C      1  0.3959230000000  0.5124870000000  0.5711350000000 1.0
C      1  0.4835490000000  0.5071740000000  0.5860590000000 1.0
C      1  0.5820340000000  0.4672480000000  0.4966820000000 1.0
C      1  0.5103610000000  0.6177740000000  0.5455700000000 1.0
C      1  0.6098680000000  0.4168680000000  0.4634390000000 1.0
C      1  0.4379930000000  0.5099670000000  0.3492940000000 1.0
C      1  0.3910860000000  0.5337830000000  0.5009140000000 1.0
C      1  0.5425400000000  0.4569720000000  0.5351320000000 1.0
C      1  0.4715630000000  0.4583120000000  0.5782110000000 1.0
C      1  0.5948100000000  0.4280590000000  0.4442060000000 1.0
C      1  0.4388010000000  0.4287290000000  0.5482330000000 1.0
C      1  0.5353940000000  0.5948660000000  0.3928230000000 1.0
C      1  0.4962740000000  0.5755000000000  0.4102670000000 1.0
C      1  0.4014350000000  0.4394420000000  0.5167180000000 1.0
C      1  0.5520700000000  0.4548550000000  0.5640130000000 1.0
C      1  0.5293850000000  0.5007080000000  0.4272240000000 1.0
C      1  0.4063620000000  0.4619400000000  0.5623340000000 1.0
C      1  0.5927750000000  0.4845310000000  0.5175100000000 1.0
C      1  0.4969200000000  0.4712060000000  0.4875850000000 1.0
C      1  0.5431560000000  0.3847350000000  0.5447590000000 1.0
C      1  0.4538110000000  0.4866880000000  0.5376960000000 1.0
C      1  0.3827380000000  0.5106660000000  0.5153370000000 1.0
C      1  0.5388360000000  0.4871890000000  0.4857240000000 1.0
C      1  0.5453240000000  0.5600130000000  0.4732910000000 1.0
C      1  0.5393460000000  0.5385240000000  0.5684060000000 1.0
C      1  0.4009350000000  0.5382230000000  0.5645560000000 1.0
C      1  0.3914590000000  0.5068930000000  0.4572060000000 1.0
C      1  0.6035030000000  0.5392230000000  0.3890810000000 1.0
C      1  0.5256930000000  0.5053280000000  0.6110100000000 1.0
C      1  0.5215190000000  0.3373750000000  0.5604610000000 1.0
C      1  0.5861850000000  0.5536160000000  0.5488840000000 1.0
C      1  0.4961360000000  0.4642180000000  0.3406010000000 1.0
C      1  0.3843040000000  0.4854410000000  0.5244610000000 1.0
C      1  0.5328970000000  0.4762320000000  0.4522590000000 1.0
C      1  0.5282180000000  0.5638820000000  0.5691230000000 1.0
C      1  0.3908810000000  0.5317360000000  0.4721860000000 1.0
C      1  0.4552230000000  0.5433930000000  0.5976300000000 1.0
C      1  0.5633700000000  0.4490540000000  0.4876350000000 1.0
C      1  0.4548430000000  0.4521310000000  0.4458150000000 1.0
C      1  0.4828040000000  0.4451050000000  0.4505660000000 1.0
C      1  0.5686730000000  0.5774710000000  0.5463330000000 1.0
C      1  0.5034500000000  0.5487670000000  0.6212110000000 1.0
C      1  0.4701420000000  0.5983660000000  0.5242670000000 1.0
C      1  0.4515430000000  0.5150810000000  0.5307060000000 1.0
C      1  0.3755090000000  0.4856200000000  0.4637990000000 1.0
C      1  0.5324170000000  0.6101530000000  0.5592490000000 1.0
C      1  0.5454220000000  0.5206410000000  0.5500410000000 1.0
C      1  0.4401390000000  0.4725470000000  0.4920770000000 1.0
C      1  0.5372090000000  0.5343070000000  0.4601440000000 1.0
C      1  0.6104440000000  0.5525170000000  0.4129730000000 1.0
C      1  0.5344740000000  0.5278500000000  0.4325150000000 1.0
C      1  0.5951470000000  0.5136760000000  0.5167400000000 1.0
C      1  0.4800910000000  0.5524810000000  0.5538760000000 1.0
C      1  0.5455290000000  0.5851900000000  0.5616700000000 1.0
C      1  0.4568800000000  0.4918360000000  0.3450390000000 1.0
C      1  0.4970000000000  0.6103860000000  0.4472350000000 1.0
C      1  0.5944600000000  0.4704340000000  0.5432350000000 1.0
C      1  0.4977140000000  0.6089630000000  0.5213880000000 1.0
C      1  0.5613660000000  0.4020070000000  0.4885840000000 1.0
C      1  0.4852520000000  0.4917650000000  0.4408530000000 1.0
C      1  0.5221210000000  0.5699630000000  0.4000660000000 1.0
C      1  0.5421030000000  0.5481770000000  0.4104150000000 1.0
C      1  0.4071950000000  0.5061750000000  0.4329130000000 1.0
C      1  0.5415340000000  0.4797310000000  0.5152690000000 1.0
C      1  0.4982990000000  0.4978570000000  0.5624900000000 1.0
C      1  0.4660100000000  0.4119250000000  0.4827610000000 1.0
C      1  0.4731670000000  0.5158600000000  0.4480700000000 1.0
C      1  0.4938160000000  0.4915290000000  0.5064510000000 1.0
C      1  0.5973750000000  0.5109250000000  0.5744380000000 1.0
C      1  0.5180300000000  0.6069250000000  0.4993680000000 1.0
C      1  0.5451510000000  0.5042320000000  0.5295990000000 1.0
C      1  0.5240600000000  0.3147410000000  0.5453140000000 1.0
C      1  0.5471120000000  0.6079410000000  0.4139860000000 1.0
C      1  0.4672050000000  0.4550460000000  0.6052490000000 1.0
C      1  0.4400620000000  0.4123350000000  0.4913140000000 1.0
C      1  0.4583350000000  0.4308380000000  0.3763290000000 1.0
C      1  0.4979750000000  0.4529610000000  0.5683980000000 1.0
C      1  0.5462510000000  0.6018060000000  0.5076020000000 1.0
C      1  0.5263000000000  0.4179100000000  0.5949400000000 1.0
C      1  0.4109980000000  0.4887730000000  0.5750560000000 1.0
C      1  0.5778370000000  0.4177190000000  0.5300770000000 1.0
C      1  0.4431780000000  0.5871450000000  0.5193080000000 1.0
C      1  0.5464050000000  0.4256590000000  0.4828320000000 1.0
C      1  0.5800300000000  0.5313080000000  0.3786940000000 1.0
C      1  0.5546740000000  0.5342450000000  0.3870770000000 1.0
C      1  0.4732570000000  0.4709950000000  0.3539200000000 1.0
C      1  0.5021960000000  0.4079260000000  0.6018350000000 1.0
C      1  0.5183950000000  0.4228580000000  0.4775000000000 1.0
C      1  0.4210160000000  0.5582980000000  0.5599760000000 1.0
C      1  0.5821510000000  0.5628970000000  0.5037990000000 1.0
C      1  0.4352180000000  0.5181190000000  0.5078360000000 1.0
C      1  0.5013760000000  0.5593370000000  0.4987570000000 1.0
C      1  0.4526610000000  0.4402250000000  0.5283590000000 1.0
C      1  0.4854170000000  0.5394150000000  0.5088500000000 1.0
C      1  0.3933390000000  0.5543640000000  0.4556160000000 1.0
C      1  0.4652010000000  0.4709340000000  0.4023650000000 1.0
C      1  0.5614150000000  0.4781660000000  0.5779110000000 1.0
C      1  0.4905420000000  0.4188890000000  0.4643580000000 1.0
C      1  0.5004050000000  0.5648790000000  0.5659290000000 1.0
C      1  0.4210520000000  0.5225030000000  0.3653910000000 1.0
C      1  0.4563610000000  0.5157020000000  0.5896240000000 1.0
C      1  0.4045760000000  0.5788280000000  0.4152700000000 1.0
C      1  0.4452970000000  0.4663600000000  0.4225730000000 1.0
C      1  0.5531300000000  0.5904930000000  0.4355940000000 1.0
C      1  0.5867920000000  0.4858290000000  0.5673320000000 1.0
C      1  0.6355200000000  0.5621700000000  0.4175760000000 1.0
C      1  0.4065150000000  0.5298140000000  0.4164760000000 1.0
C      1  0.5294790000000  0.5577920000000  0.4992200000000 1.0
C      1  0.4101720000000  0.5281010000000  0.3888830000000 1.0
C      1  0.5909650000000  0.5419000000000  0.5220370000000 1.0
C      1  0.4277180000000  0.4237460000000  0.5934510000000 1.0
C      1  0.4868400000000  0.4860670000000  0.4121290000000 1.0
C      1  0.5049690000000  0.4335010000000  0.5484710000000 1.0
C      1  0.5336380000000  0.3612320000000  0.5523560000000 1.0
C      1  0.4316120000000  0.4990790000000  0.4893490000000 1.0
C      1  0.4708900000000  0.5364930000000  0.5330400000000 1.0
C      1  0.4506840000000  0.4661250000000  0.5177880000000 1.0
C      1  0.4773560000000  0.5520790000000  0.6139710000000 1.0
C      1  0.5382250000000  0.5142770000000  0.4801380000000 1.0
C      1  0.5622360000000  0.4685910000000  0.4447770000000 1.0
C      1  0.5949790000000  0.5373900000000  0.5701010000000 1.0
C      1  0.4490780000000  0.4097270000000  0.6027380000000 1.0
C      1  0.4870040000000  0.5157250000000  0.4945590000000 1.0
C      1  0.4654550000000  0.4572590000000  0.3776180000000 1.0
C      1  0.4969840000000  0.4999860000000  0.6102500000000 1.0
C      1  0.4237290000000  0.5684390000000  0.5326840000000 1.0
C      1  0.4451930000000  0.5818010000000  0.4689380000000 1.0
C      1  0.3956110000000  0.4614720000000  0.5347210000000 1.0
C      1  0.4886620000000  0.5970510000000  0.4249540000000 1.0
C      1  0.4385030000000  0.4944540000000  0.5813200000000 1.0
C      1  0.4973010000000  0.4942600000000  0.5344510000000 1.0
C      1  0.4930410000000  0.3965120000000  0.4438970000000 1.0
C      1  0.4681130000000  0.5666840000000  0.4632580000000 1.0
C      1  0.5293660000000  0.4311960000000  0.5335780000000 1.0
C      1  0.4550240000000  0.4774880000000  0.5645790000000 1.0
C      1  0.5004640000000  0.4696640000000  0.4570660000000 1.0
C      1  0.5111470000000  0.5973780000000  0.4700760000000 1.0
C      1  0.4671890000000  0.5416480000000  0.4507870000000 1.0
C      1  0.5257170000000  0.5325870000000  0.6202770000000 1.0
C      1  0.5890730000000  0.5422260000000  0.4571250000000 1.0
C      1  0.4391880000000  0.5605380000000  0.5816450000000 1.0
C      1  0.5442670000000  0.4329960000000  0.5814740000000 1.0
C      1  0.5379320000000  0.5856410000000  0.4593300000000 1.0
C      1  0.4218210000000  0.4376600000000  0.5694180000000 1.0
END
