TITL C-599896-8500-337 3.64218054205695 125000 -193.80276045644 0 0 34 (C1) n - 1
REM
REM in /home/nfs/bkarasulu/CARBON/AIRSS/Generating-Clusters/TERSOFF/Only-C1/FIRE-HFTN
REM
REM
REM
REM
REM
REM ./C.cell (11c1c37f851c82e70ff6c80c92926a4b)
REM AIRSS Version 0.9.1 bugfix July 2018 build 013d7b7c2542+ Fri, 06 Jul 2018 19:26:36 +0100
REM compiler GCC version 9.2.1 20190827 (Red Hat 9.2.1-1)
REM options -cpp -mtune=generic -march=x86-64 -g -O0 -fpre-include=/usr/include/finclude/math-vector-fortran.h
REM seed -1484486772 837246739 1564370504 -1106787827 679433828 1942852910 443553813 1788051218 -1320965478 -1359519867 -1773285352 -299717159 -1409226201 -1352496605 -1340424622 -378373466 -506947744 1187541945 -1834272054 1468694825 2078385683 -904939477 1863361202 -883287756 793282868 -383453305 1129494807 -69408696 2064764688 -987379770 -1016486952 1752888516 -290353863
REM
CELL 1.54180   50.00000   50.00000   50.00000   90.00000   90.00000   90.00000
LATT -1
SFAC C  
C      1  0.4732970000000  0.5957780000000  0.4875540000000 1.0
C      1  0.4570610000000  0.4570450000000  0.5513010000000 1.0
C      1  0.4654080000000  0.4552420000000  0.5778860000000 1.0
C      1  0.5696860000000  0.3190060000000  0.4545530000000 1.0
C      1  0.5604840000000  0.3422110000000  0.4620680000000 1.0
C      1  0.5137450000000  0.4616740000000  0.5004430000000 1.0
C      1  0.5231170000000  0.4365810000000  0.4926040000000 1.0
C      1  0.4934540000000  0.5599310000000  0.4300560000000 1.0
C      1  0.5484040000000  0.5337690000000  0.4713660000000 1.0
C      1  0.4801800000000  0.6166100000000  0.4726950000000 1.0
C      1  0.4145480000000  0.4287870000000  0.5337310000000 1.0
C      1  0.5096020000000  0.6956580000000  0.4092010000000 1.0
C      1  0.4350340000000  0.4423640000000  0.5424000000000 1.0
C      1  0.4874940000000  0.6366110000000  0.4569260000000 1.0
C      1  0.5121210000000  0.5032130000000  0.4728450000000 1.0
C      1  0.4635450000000  0.5006230000000  0.5302400000000 1.0
C      1  0.4710400000000  0.4738800000000  0.5332320000000 1.0
C      1  0.4923890000000  0.4638320000000  0.5183070000000 1.0
C      1  0.5071710000000  0.5446400000000  0.4460940000000 1.0
C      1  0.4613760000000  0.5260390000000  0.5230870000000 1.0
C      1  0.4737090000000  0.4538730000000  0.6030010000000 1.0
C      1  0.4948970000000  0.6564140000000  0.4409490000000 1.0
C      1  0.5417720000000  0.3893920000000  0.4773500000000 1.0
C      1  0.5023100000000  0.6761990000000  0.4249440000000 1.0
C      1  0.5218970000000  0.5279790000000  0.4626580000000 1.0
C      1  0.4673790000000  0.5736970000000  0.5009560000000 1.0
C      1  0.5324190000000  0.4129790000000  0.4849890000000 1.0
C      1  0.4630580000000  0.5504670000000  0.5129520000000 1.0
C      1  0.5511270000000  0.3658050000000  0.4697100000000 1.0
C      1  0.5256140000000  0.4851020000000  0.4902640000000 1.0
C      1  0.4820600000000  0.4525400000000  0.6281220000000 1.0
C      1  0.5519300000000  0.4937240000000  0.4969580000000 1.0
C      1  0.5624000000000  0.5171030000000  0.4877280000000 1.0
C      1  0.4902740000000  0.4512290000000  0.6528290000000 1.0
END
