TITL C-599894-471-520 7739.21961196144 125000 -1049.47074403421 0 0 172 (C1) n - 1
REM
REM in /home/nfs/bkarasulu/CARBON/AIRSS/Generating-Clusters/TERSOFF/Only-C1/FIRE-HFTN
REM
REM
REM
REM
REM
REM ./C.cell (11c1c37f851c82e70ff6c80c92926a4b)
REM AIRSS Version 0.9.1 bugfix July 2018 build 013d7b7c2542+ Fri, 06 Jul 2018 19:26:36 +0100
REM compiler GCC version 9.2.1 20190827 (Red Hat 9.2.1-1)
REM options -cpp -mtune=generic -march=x86-64 -g -O0 -fpre-include=/usr/include/finclude/math-vector-fortran.h
REM seed 1338918000 1970116065 -1419767168 -1761731918 -626115433 1878303367 2106135046 -59136186 -1762330816 509318528 -65728978 2038305579 521302613 -860919805 207715357 -1523503496 157721594 -1644917425 -1649214258 569371312 1653315508 -183099027 1996874050 330386164 -940868465 -660355267 185237891 -1432696091 -1805089541 41984000 305865695 529188932 352130036
REM
CELL 1.54180   50.00000   50.00000   50.00000   90.00000   90.00000   90.00000
LATT -1
SFAC C  
C      1  0.4791690000000  0.4411550000000  0.5314670000000 1.0
C      1  0.5611730000000  0.5647860000000  0.5092310000000 1.0
C      1  0.5989890000000  0.4545150000000  0.5513800000000 1.0
C      1  0.4856870000000  0.4389160000000  0.4411100000000 1.0
C      1  0.4172200000000  0.3996440000000  0.4270660000000 1.0
C      1  0.4704740000000  0.4002100000000  0.5444040000000 1.0
C      1  0.4076440000000  0.5959580000000  0.4571800000000 1.0
C      1  0.5644110000000  0.4974680000000  0.5417120000000 1.0
C      1  0.5825800000000  0.4581250000000  0.4296790000000 1.0
C      1  0.6040910000000  0.5861590000000  0.4720430000000 1.0
C      1  0.5094490000000  0.3715380000000  0.4554860000000 1.0
C      1  0.5593110000000  0.5141090000000  0.5647350000000 1.0
C      1  0.5117900000000  0.4213900000000  0.4030470000000 1.0
C      1  0.3995780000000  0.5650130000000  0.5172630000000 1.0
C      1  0.4377200000000  0.5969630000000  0.5173320000000 1.0
C      1  0.3911080000000  0.4945060000000  0.5115680000000 1.0
C      1  0.4240650000000  0.6169260000000  0.4603090000000 1.0
C      1  0.5617060000000  0.4870580000000  0.3955880000000 1.0
C      1  0.4698540000000  0.5311100000000  0.6110600000000 1.0
C      1  0.3776190000000  0.5201480000000  0.5105300000000 1.0
C      1  0.4973380000000  0.4541250000000  0.5481280000000 1.0
C      1  0.4200490000000  0.5796590000000  0.5309970000000 1.0
C      1  0.5790580000000  0.4926510000000  0.4765210000000 1.0
C      1  0.5345230000000  0.5577580000000  0.5782400000000 1.0
C      1  0.4696420000000  0.5023190000000  0.6162450000000 1.0
C      1  0.4614250000000  0.3853540000000  0.5208090000000 1.0
C      1  0.5499510000000  0.4870950000000  0.4740050000000 1.0
C      1  0.4364690000000  0.4428420000000  0.4968850000000 1.0
C      1  0.4555570000000  0.5544410000000  0.4381870000000 1.0
C      1  0.5118540000000  0.6106170000000  0.5356400000000 1.0
C      1  0.5449580000000  0.4772820000000  0.5399450000000 1.0
C      1  0.5502850000000  0.4500840000000  0.5812860000000 1.0
C      1  0.3929950000000  0.4428960000000  0.4085480000000 1.0
C      1  0.4121760000000  0.4524480000000  0.4558990000000 1.0
C      1  0.4404900000000  0.4881330000000  0.5539730000000 1.0
C      1  0.3997570000000  0.4292400000000  0.4634990000000 1.0
C      1  0.4675840000000  0.6020380000000  0.5121550000000 1.0
C      1  0.5015840000000  0.5489950000000  0.5392810000000 1.0
C      1  0.4948760000000  0.3500050000000  0.4605510000000 1.0
C      1  0.3878910000000  0.5453070000000  0.4994420000000 1.0
C      1  0.3881820000000  0.4878580000000  0.4360300000000 1.0
C      1  0.4695950000000  0.5649330000000  0.4787790000000 1.0
C      1  0.4677440000000  0.4862210000000  0.5478170000000 1.0
C      1  0.5407330000000  0.5838400000000  0.5677790000000 1.0
C      1  0.4801890000000  0.5759300000000  0.5020720000000 1.0
C      1  0.5713900000000  0.5292880000000  0.4434160000000 1.0
C      1  0.5073390000000  0.4326330000000  0.4961610000000 1.0
C      1  0.4499120000000  0.6105230000000  0.5775600000000 1.0
C      1  0.5528840000000  0.4429980000000  0.5049500000000 1.0
C      1  0.4075380000000  0.5680130000000  0.4592620000000 1.0
C      1  0.5858070000000  0.5094330000000  0.4299920000000 1.0
C      1  0.5525020000000  0.3967590000000  0.4671780000000 1.0
C      1  0.4455880000000  0.4977770000000  0.4232320000000 1.0
C      1  0.5335530000000  0.5115610000000  0.4830500000000 1.0
C      1  0.4445110000000  0.5505750000000  0.4825440000000 1.0
C      1  0.4401180000000  0.3846970000000  0.4726020000000 1.0
C      1  0.5217180000000  0.6040220000000  0.5619200000000 1.0
C      1  0.4882300000000  0.5057010000000  0.4461660000000 1.0
C      1  0.5143510000000  0.5120870000000  0.6128580000000 1.0
C      1  0.5521170000000  0.3901470000000  0.4949410000000 1.0
C      1  0.4989420000000  0.6046840000000  0.5802410000000 1.0
C      1  0.5569230000000  0.4469270000000  0.4210670000000 1.0
C      1  0.5400320000000  0.4844310000000  0.4456860000000 1.0
C      1  0.4958990000000  0.4913440000000  0.4216510000000 1.0
C      1  0.6053680000000  0.4975340000000  0.4765370000000 1.0
C      1  0.4873260000000  0.5505490000000  0.4034870000000 1.0
C      1  0.4680710000000  0.4965400000000  0.4659590000000 1.0
C      1  0.4387490000000  0.5222510000000  0.4106790000000 1.0
C      1  0.3878140000000  0.5504810000000  0.4705950000000 1.0
C      1  0.5275050000000  0.3922530000000  0.4516780000000 1.0
C      1  0.6077210000000  0.5614770000000  0.5229450000000 1.0
C      1  0.4290070000000  0.3876670000000  0.4481890000000 1.0
C      1  0.4467930000000  0.6264340000000  0.4708470000000 1.0
C      1  0.6035860000000  0.4683710000000  0.5251160000000 1.0
C      1  0.4398930000000  0.5327760000000  0.5037570000000 1.0
C      1  0.3858150000000  0.4680500000000  0.4155160000000 1.0
C      1  0.5095030000000  0.4760600000000  0.4003900000000 1.0
C      1  0.4808030000000  0.3288040000000  0.4662140000000 1.0
C      1  0.5435890000000  0.3927730000000  0.5207090000000 1.0
C      1  0.6129920000000  0.4976400000000  0.5693400000000 1.0
C      1  0.4315570000000  0.5149770000000  0.5549360000000 1.0
C      1  0.6031790000000  0.4444450000000  0.4764840000000 1.0
C      1  0.4557230000000  0.5577280000000  0.5541000000000 1.0
C      1  0.4592030000000  0.4393250000000  0.4422270000000 1.0
C      1  0.5969050000000  0.4729850000000  0.5731530000000 1.0
C      1  0.5550190000000  0.4191880000000  0.4262340000000 1.0
C      1  0.6467340000000  0.4993670000000  0.5067700000000 1.0
C      1  0.6264850000000  0.5155090000000  0.5503120000000 1.0
C      1  0.4317770000000  0.5269930000000  0.5806440000000 1.0
C      1  0.4035790000000  0.4832500000000  0.4885000000000 1.0
C      1  0.5416510000000  0.5071140000000  0.6095790000000 1.0
C      1  0.3972410000000  0.4771530000000  0.4610290000000 1.0
C      1  0.5202980000000  0.4637730000000  0.5321860000000 1.0
C      1  0.4950670000000  0.4903560000000  0.6108630000000 1.0
C      1  0.5609610000000  0.5795490000000  0.4355800000000 1.0
C      1  0.4801970000000  0.5541430000000  0.4545340000000 1.0
C      1  0.4862620000000  0.4726500000000  0.5659560000000 1.0
C      1  0.5384120000000  0.5613000000000  0.4256520000000 1.0
C      1  0.5238840000000  0.4553060000000  0.5915180000000 1.0
C      1  0.5770360000000  0.4344540000000  0.5157800000000 1.0
C      1  0.5708560000000  0.4139180000000  0.4510350000000 1.0
C      1  0.5679560000000  0.5456220000000  0.4897950000000 1.0
C      1  0.5052640000000  0.4474260000000  0.3952430000000 1.0
C      1  0.5430240000000  0.5852970000000  0.5044250000000 1.0
C      1  0.4457220000000  0.5422990000000  0.6006920000000 1.0
C      1  0.5879100000000  0.4927520000000  0.5263570000000 1.0
C      1  0.4314560000000  0.4399230000000  0.5533910000000 1.0
C      1  0.5994870000000  0.4486330000000  0.5041280000000 1.0
C      1  0.6304450000000  0.4990800000000  0.4855450000000 1.0
C      1  0.5150870000000  0.4400220000000  0.4458000000000 1.0
C      1  0.4045610000000  0.4188890000000  0.4129680000000 1.0
C      1  0.5299200000000  0.4139330000000  0.5391650000000 1.0
C      1  0.5203800000000  0.4445520000000  0.4740960000000 1.0
C      1  0.5256660000000  0.5293170000000  0.4606620000000 1.0
C      1  0.4993310000000  0.5368770000000  0.6091950000000 1.0
C      1  0.4927800000000  0.5534790000000  0.5135420000000 1.0
C      1  0.3900750000000  0.5159630000000  0.4313260000000 1.0
C      1  0.4317810000000  0.5267690000000  0.5289100000000 1.0
C      1  0.6191540000000  0.5417160000000  0.5404420000000 1.0
C      1  0.5545530000000  0.4298630000000  0.5601160000000 1.0
C      1  0.4812520000000  0.5514420000000  0.5577640000000 1.0
C      1  0.5185670000000  0.5131310000000  0.5092060000000 1.0
C      1  0.5005110000000  0.4034190000000  0.5484710000000 1.0
C      1  0.5437990000000  0.5362480000000  0.4398170000000 1.0
C      1  0.5833130000000  0.5739610000000  0.4553670000000 1.0
C      1  0.4493380000000  0.4187290000000  0.5548750000000 1.0
C      1  0.5237020000000  0.5319680000000  0.5388780000000 1.0
C      1  0.5064340000000  0.4867140000000  0.5176980000000 1.0
C      1  0.4338110000000  0.5873920000000  0.5806710000000 1.0
C      1  0.5816410000000  0.4848330000000  0.4167670000000 1.0
C      1  0.5249330000000  0.4137550000000  0.4301450000000 1.0
C      1  0.4920550000000  0.5279300000000  0.4997020000000 1.0
C      1  0.5004980000000  0.5849420000000  0.6003390000000 1.0
C      1  0.5787950000000  0.4337110000000  0.5452060000000 1.0
C      1  0.4999300000000  0.4713360000000  0.5909550000000 1.0
C      1  0.4810850000000  0.4323190000000  0.5049500000000 1.0
C      1  0.5271470000000  0.4370300000000  0.5189520000000 1.0
C      1  0.4716000000000  0.5063070000000  0.4948450000000 1.0
C      1  0.4596520000000  0.5433480000000  0.4121970000000 1.0
C      1  0.4566390000000  0.4239050000000  0.4946150000000 1.0
C      1  0.3520460000000  0.5210350000000  0.5209500000000 1.0
C      1  0.5440290000000  0.4590150000000  0.4831700000000 1.0
C      1  0.4984240000000  0.5315650000000  0.4529980000000 1.0
C      1  0.5593210000000  0.4990300000000  0.5893580000000 1.0
C      1  0.6458420000000  0.5033080000000  0.5333440000000 1.0
C      1  0.4102300000000  0.5262970000000  0.4132740000000 1.0
C      1  0.5806250000000  0.5674340000000  0.5293690000000 1.0
C      1  0.4375180000000  0.5696030000000  0.6027800000000 1.0
C      1  0.5795810000000  0.5467020000000  0.4642220000000 1.0
C      1  0.4480810000000  0.4846840000000  0.4484000000000 1.0
C      1  0.4657100000000  0.6221180000000  0.4895190000000 1.0
C      1  0.5345000000000  0.4600930000000  0.4331140000000 1.0
C      1  0.4317060000000  0.5727450000000  0.5559660000000 1.0
C      1  0.4825910000000  0.6123150000000  0.5365400000000 1.0
C      1  0.5126430000000  0.5591140000000  0.5980230000000 1.0
C      1  0.5703930000000  0.4723780000000  0.5858850000000 1.0
C      1  0.5129510000000  0.5601730000000  0.4102720000000 1.0
C      1  0.3977520000000  0.4781580000000  0.5353730000000 1.0
C      1  0.6139640000000  0.5726120000000  0.4964740000000 1.0
C      1  0.4770650000000  0.4895920000000  0.5197500000000 1.0
C      1  0.6146020000000  0.6105680000000  0.4650730000000 1.0
C      1  0.5348880000000  0.4862260000000  0.3910150000000 1.0
C      1  0.4257370000000  0.4671150000000  0.4968430000000 1.0
C      1  0.5407290000000  0.5350200000000  0.5611130000000 1.0
C      1  0.4325200000000  0.5552210000000  0.4564330000000 1.0
C      1  0.5272450000000  0.6047630000000  0.5132870000000 1.0
C      1  0.4392350000000  0.4575510000000  0.4487180000000 1.0
C      1  0.4215010000000  0.4671980000000  0.5488850000000 1.0
C      1  0.5894520000000  0.4384120000000  0.4522150000000 1.0
C      1  0.3781030000000  0.5323900000000  0.4511510000000 1.0
C      1  0.4751690000000  0.6124670000000  0.5652210000000 1.0
C      1  0.4521330000000  0.3957640000000  0.4956380000000 1.0
END
