TITL C-599894-471-989 0.0140812001042345 125000 -719.688306024256 0 0 117 (C1) n - 1
REM
REM in /home/nfs/bkarasulu/CARBON/AIRSS/Generating-Clusters/TERSOFF/Only-C1/FIRE-HFTN
REM
REM
REM
REM
REM
REM ./C.cell (11c1c37f851c82e70ff6c80c92926a4b)
REM AIRSS Version 0.9.1 bugfix July 2018 build 013d7b7c2542+ Fri, 06 Jul 2018 19:26:36 +0100
REM compiler GCC version 9.2.1 20190827 (Red Hat 9.2.1-1)
REM options -cpp -mtune=generic -march=x86-64 -g -O0 -fpre-include=/usr/include/finclude/math-vector-fortran.h
REM seed -1209150671 -1677414159 -1012846654 -2077379647 -699142306 1390902613 34708696 210592793 -1321764683 -1744817228 783788633 1194886703 941053934 890600683 890764850 -538925471 -1545241607 -505210259 -1729631938 1277195588 414732140 27415349 -589722159 -131294371 1686669844 1574912093 89649177 -660268124 1408367239 -871091175 -1526850005 -1344088641 -1873195168
REM
CELL 1.54180   50.00000   50.00000   50.00000   90.00000   90.00000   90.00000
LATT -1
SFAC C  
C      1  0.4133960000000  0.4976840000000  0.4517160000000 1.0
C      1  0.4757140000000  0.5821750000000  0.5356780000000 1.0
C      1  0.4303750000000  0.4751800000000  0.4433750000000 1.0
C      1  0.5620230000000  0.5741800000000  0.4305200000000 1.0
C      1  0.5440020000000  0.4230770000000  0.4383670000000 1.0
C      1  0.4796140000000  0.5452310000000  0.5862020000000 1.0
C      1  0.4304490000000  0.4761560000000  0.5624380000000 1.0
C      1  0.4979800000000  0.5383510000000  0.4030960000000 1.0
C      1  0.4485480000000  0.5161740000000  0.5372200000000 1.0
C      1  0.4524160000000  0.5403710000000  0.4912900000000 1.0
C      1  0.4388630000000  0.5959270000000  0.4588620000000 1.0
C      1  0.4286280000000  0.5336310000000  0.4777730000000 1.0
C      1  0.4750780000000  0.5510720000000  0.4776030000000 1.0
C      1  0.5215590000000  0.4456080000000  0.5379780000000 1.0
C      1  0.4988210000000  0.5947470000000  0.5425830000000 1.0
C      1  0.5766620000000  0.5065750000000  0.5553980000000 1.0
C      1  0.5873780000000  0.4523340000000  0.4356440000000 1.0
C      1  0.4630740000000  0.5087760000000  0.4309880000000 1.0
C      1  0.5287240000000  0.4254340000000  0.4620130000000 1.0
C      1  0.4448390000000  0.5142580000000  0.5967730000000 1.0
C      1  0.3872790000000  0.5516410000000  0.4906910000000 1.0
C      1  0.4399440000000  0.4066200000000  0.4745670000000 1.0
C      1  0.5029540000000  0.5479780000000  0.5692190000000 1.0
C      1  0.5354670000000  0.4195850000000  0.5782760000000 1.0
C      1  0.5085120000000  0.5191030000000  0.5299730000000 1.0
C      1  0.4150360000000  0.4823100000000  0.5174640000000 1.0
C      1  0.5847960000000  0.5621000000000  0.4240640000000 1.0
C      1  0.5639860000000  0.4355850000000  0.4978640000000 1.0
C      1  0.5601400000000  0.5068320000000  0.5328240000000 1.0
C      1  0.4427420000000  0.4773930000000  0.5087850000000 1.0
C      1  0.4118060000000  0.4924990000000  0.5459260000000 1.0
C      1  0.4836900000000  0.4566040000000  0.5146560000000 1.0
C      1  0.4533050000000  0.4819040000000  0.4272200000000 1.0
C      1  0.5671080000000  0.4352400000000  0.4311270000000 1.0
C      1  0.5614850000000  0.4059530000000  0.5797530000000 1.0
C      1  0.5472400000000  0.5311050000000  0.4667170000000 1.0
C      1  0.4653170000000  0.5922260000000  0.4487590000000 1.0
C      1  0.6016620000000  0.5415670000000  0.4241970000000 1.0
C      1  0.4472030000000  0.5554580000000  0.4208380000000 1.0
C      1  0.3972750000000  0.4997980000000  0.4767870000000 1.0
C      1  0.4000970000000  0.3555710000000  0.5089970000000 1.0
C      1  0.3999130000000  0.4768300000000  0.4935450000000 1.0
C      1  0.4320100000000  0.5320570000000  0.5771450000000 1.0
C      1  0.5011540000000  0.4348010000000  0.5201200000000 1.0
C      1  0.5326150000000  0.3791120000000  0.6021920000000 1.0
C      1  0.6032950000000  0.5057760000000  0.5452400000000 1.0
C      1  0.4872790000000  0.6018740000000  0.4649010000000 1.0
C      1  0.6078020000000  0.5280270000000  0.5269300000000 1.0
C      1  0.4754670000000  0.4675970000000  0.4152580000000 1.0
C      1  0.5018260000000  0.5519790000000  0.4679520000000 1.0
C      1  0.4154240000000  0.4027150000000  0.4881140000000 1.0
C      1  0.3957890000000  0.5760750000000  0.4823720000000 1.0
C      1  0.6117740000000  0.4979530000000  0.4526470000000 1.0
C      1  0.4865620000000  0.4708840000000  0.4894680000000 1.0
C      1  0.5062310000000  0.5053680000000  0.4643610000000 1.0
C      1  0.4015210000000  0.5274340000000  0.4878660000000 1.0
C      1  0.4618510000000  0.4672530000000  0.5285660000000 1.0
C      1  0.5236900000000  0.5244860000000  0.5067880000000 1.0
C      1  0.4562050000000  0.4826580000000  0.5508120000000 1.0
C      1  0.4874030000000  0.5099910000000  0.4444970000000 1.0
C      1  0.6183800000000  0.5062230000000  0.4789200000000 1.0
C      1  0.6027100000000  0.4721250000000  0.4453900000000 1.0
C      1  0.4914950000000  0.4980340000000  0.5905500000000 1.0
C      1  0.6027110000000  0.4575080000000  0.5262940000000 1.0
C      1  0.4500420000000  0.4302140000000  0.4621830000000 1.0
C      1  0.5591040000000  0.3820260000000  0.5940590000000 1.0
C      1  0.4782020000000  0.4304000000000  0.4537830000000 1.0
C      1  0.6177510000000  0.5209690000000  0.5013550000000 1.0
C      1  0.5485170000000  0.5341160000000  0.5827590000000 1.0
C      1  0.4153440000000  0.5904010000000  0.4706270000000 1.0
C      1  0.5364910000000  0.4694860000000  0.4773420000000 1.0
C      1  0.4236530000000  0.5197120000000  0.5517750000000 1.0
C      1  0.4520480000000  0.5543820000000  0.5777850000000 1.0
C      1  0.5851490000000  0.4424340000000  0.5128130000000 1.0
C      1  0.4296020000000  0.4518580000000  0.4602490000000 1.0
C      1  0.5179920000000  0.4011680000000  0.5931070000000 1.0
C      1  0.4959440000000  0.5403520000000  0.5426890000000 1.0
C      1  0.3998570000000  0.4263090000000  0.4895330000000 1.0
C      1  0.4746220000000  0.5544670000000  0.5309950000000 1.0
C      1  0.5098360000000  0.4801400000000  0.4765680000000 1.0
C      1  0.4940660000000  0.5605680000000  0.4212280000000 1.0
C      1  0.5513860000000  0.5166340000000  0.5089110000000 1.0
C      1  0.4685900000000  0.5729370000000  0.4267280000000 1.0
C      1  0.5369150000000  0.5744920000000  0.4392070000000 1.0
C      1  0.4735890000000  0.5183450000000  0.5972230000000 1.0
C      1  0.5242610000000  0.5944910000000  0.5034610000000 1.0
C      1  0.5623390000000  0.5090370000000  0.5797100000000 1.0
C      1  0.5244000000000  0.5880790000000  0.5315440000000 1.0
C      1  0.4075090000000  0.3784150000000  0.4988760000000 1.0
C      1  0.4598570000000  0.4820990000000  0.4860620000000 1.0
C      1  0.4996880000000  0.4159980000000  0.4986210000000 1.0
C      1  0.5298380000000  0.4694210000000  0.5798390000000 1.0
C      1  0.4920620000000  0.4853650000000  0.3993660000000 1.0
C      1  0.5250670000000  0.4731850000000  0.5300000000000 1.0
C      1  0.6119510000000  0.4796590000000  0.5384280000000 1.0
C      1  0.5291040000000  0.4436210000000  0.5659150000000 1.0
C      1  0.5011920000000  0.4204860000000  0.4698560000000 1.0
C      1  0.4983100000000  0.5119120000000  0.3960350000000 1.0
C      1  0.6107570000000  0.5183130000000  0.4332840000000 1.0
C      1  0.5089390000000  0.4877020000000  0.5714940000000 1.0
C      1  0.5521830000000  0.4841220000000  0.5897750000000 1.0
C      1  0.5422820000000  0.5702670000000  0.5471540000000 1.0
C      1  0.4561590000000  0.5367400000000  0.5193300000000 1.0
C      1  0.5591710000000  0.4860010000000  0.4741690000000 1.0
C      1  0.5315860000000  0.5535550000000  0.5698730000000 1.0
C      1  0.5919110000000  0.5515880000000  0.5316810000000 1.0
C      1  0.4074100000000  0.4518790000000  0.4801240000000 1.0
C      1  0.5423980000000  0.4421300000000  0.4810150000000 1.0
C      1  0.5116520000000  0.5633970000000  0.4433320000000 1.0
C      1  0.4262180000000  0.5237700000000  0.4509350000000 1.0
C      1  0.4830540000000  0.4441610000000  0.4291310000000 1.0
C      1  0.5692230000000  0.5648620000000  0.5384620000000 1.0
C      1  0.5622070000000  0.5123640000000  0.4827120000000 1.0
C      1  0.4442810000000  0.5296050000000  0.4309240000000 1.0
C      1  0.5184240000000  0.5295400000000  0.4770910000000 1.0
C      1  0.5075790000000  0.6015840000000  0.4830490000000 1.0
C      1  0.5119970000000  0.4944670000000  0.5436800000000 1.0
END
