TITL C-599893-4344-159 65673.4985467132 125000 -965.56582672583 0 0 158 (C1) n - 1
REM
REM in /home/nfs/bkarasulu/CARBON/AIRSS/Generating-Clusters/TERSOFF/Only-C1/FIRE-HFTN
REM
REM
REM
REM
REM
REM ./C.cell (11c1c37f851c82e70ff6c80c92926a4b)
REM AIRSS Version 0.9.1 bugfix July 2018 build 013d7b7c2542+ Fri, 06 Jul 2018 19:26:36 +0100
REM compiler GCC version 9.2.1 20190827 (Red Hat 9.2.1-1)
REM options -cpp -mtune=generic -march=x86-64 -g -O0 -fpre-include=/usr/include/finclude/math-vector-fortran.h
REM seed -1035615728 -935460505 -220284573 -962690816 -339146100 1902398147 1891811310 1566469230 827637368 -1417288619 -22289380 843632301 536937309 -146486630 1599343144 -1298196673 1211042375 -1741851714 -1887194998 1363167071 -2112786527 -692285802 946625407 -1700439150 586234953 1378068585 2059116845 -1801626286 1589958645 -150181909 -1233481512 -1214750597 1204483423
REM
CELL 1.54180   50.00000   50.00000   50.00000   90.00000   90.00000   90.00000
LATT -1
SFAC C  
C      1  0.4963650000000  0.5242060000000  0.4940470000000 1.0
C      1  0.4438470000000  0.4073750000000  0.5450220000000 1.0
C      1  0.4769150000000  0.4638220000000  0.4283920000000 1.0
C      1  0.5623740000000  0.5598780000000  0.4388370000000 1.0
C      1  0.5743600000000  0.5645340000000  0.5561930000000 1.0
C      1  0.5539210000000  0.5039370000000  0.4671050000000 1.0
C      1  0.5570820000000  0.4821620000000  0.5066140000000 1.0
C      1  0.4303730000000  0.5369900000000  0.4189060000000 1.0
C      1  0.5035120000000  0.4793420000000  0.6153770000000 1.0
C      1  0.5888030000000  0.4500990000000  0.5546150000000 1.0
C      1  0.4687750000000  0.5614710000000  0.5125140000000 1.0
C      1  0.4569290000000  0.5645710000000  0.6064360000000 1.0
C      1  0.4469200000000  0.3879280000000  0.5029440000000 1.0
C      1  0.4327790000000  0.6072380000000  0.5338680000000 1.0
C      1  0.5406990000000  0.5289060000000  0.4678030000000 1.0
C      1  0.4788960000000  0.5941690000000  0.5452780000000 1.0
C      1  0.5042660000000  0.5003290000000  0.5068600000000 1.0
C      1  0.5011770000000  0.5344210000000  0.5595480000000 1.0
C      1  0.4475310000000  0.3798970000000  0.4434860000000 1.0
C      1  0.5339780000000  0.5993420000000  0.5234690000000 1.0
C      1  0.4691410000000  0.5674530000000  0.5411970000000 1.0
C      1  0.5472380000000  0.5024970000000  0.5237630000000 1.0
C      1  0.5752330000000  0.4926420000000  0.4854380000000 1.0
C      1  0.4319990000000  0.4335190000000  0.5356090000000 1.0
C      1  0.4094440000000  0.4959610000000  0.4361620000000 1.0
C      1  0.5337810000000  0.4424500000000  0.5937300000000 1.0
C      1  0.4148170000000  0.4682200000000  0.4395120000000 1.0
C      1  0.5404510000000  0.4521940000000  0.4524990000000 1.0
C      1  0.4857930000000  0.4229110000000  0.5287180000000 1.0
C      1  0.5155620000000  0.4811560000000  0.5511940000000 1.0
C      1  0.5796400000000  0.5487030000000  0.4868680000000 1.0
C      1  0.4761470000000  0.5199420000000  0.5609330000000 1.0
C      1  0.4754970000000  0.4710750000000  0.5702990000000 1.0
C      1  0.5216210000000  0.4138180000000  0.5537030000000 1.0
C      1  0.5622630000000  0.5473640000000  0.4637870000000 1.0
C      1  0.4818260000000  0.5986100000000  0.4321100000000 1.0
C      1  0.4355580000000  0.5004370000000  0.4810390000000 1.0
C      1  0.5411720000000  0.5094480000000  0.4120950000000 1.0
C      1  0.4166000000000  0.5119690000000  0.4131290000000 1.0
C      1  0.4643260000000  0.4115650000000  0.5660810000000 1.0
C      1  0.5125400000000  0.5332450000000  0.4713890000000 1.0
C      1  0.4560800000000  0.5882560000000  0.4732700000000 1.0
C      1  0.4931910000000  0.5346700000000  0.6186690000000 1.0
C      1  0.4437750000000  0.4147470000000  0.4928480000000 1.0
C      1  0.4987500000000  0.5043140000000  0.4386840000000 1.0
C      1  0.4567500000000  0.4445640000000  0.4211710000000 1.0
C      1  0.4534180000000  0.5353570000000  0.4582400000000 1.0
C      1  0.5229100000000  0.4932550000000  0.4273120000000 1.0
C      1  0.4854740000000  0.4503820000000  0.5237430000000 1.0
C      1  0.4771200000000  0.5363200000000  0.3686170000000 1.0
C      1  0.5464860000000  0.5758530000000  0.5131370000000 1.0
C      1  0.4915890000000  0.4659630000000  0.5476410000000 1.0
C      1  0.4706640000000  0.3743340000000  0.5025050000000 1.0
C      1  0.5886720000000  0.5235410000000  0.4999900000000 1.0
C      1  0.4729880000000  0.5505560000000  0.4421510000000 1.0
C      1  0.3962840000000  0.5407220000000  0.5521750000000 1.0
C      1  0.5324120000000  0.6154720000000  0.4525670000000 1.0
C      1  0.5510050000000  0.5295580000000  0.5209680000000 1.0
C      1  0.4027640000000  0.4941710000000  0.5742860000000 1.0
C      1  0.4976450000000  0.5326150000000  0.4465940000000 1.0
C      1  0.5876440000000  0.4789610000000  0.5574710000000 1.0
C      1  0.4344810000000  0.5200720000000  0.5292260000000 1.0
C      1  0.5388150000000  0.4443110000000  0.4799360000000 1.0
C      1  0.5357320000000  0.4154080000000  0.4907650000000 1.0
C      1  0.4076590000000  0.5281740000000  0.5293330000000 1.0
C      1  0.5300980000000  0.5958610000000  0.5521190000000 1.0
C      1  0.4303020000000  0.4475980000000  0.5617630000000 1.0
C      1  0.5204510000000  0.4982150000000  0.5301900000000 1.0
C      1  0.4920920000000  0.4119070000000  0.5543200000000 1.0
C      1  0.4515430000000  0.4346770000000  0.5798920000000 1.0
C      1  0.4888100000000  0.4264250000000  0.4812620000000 1.0
C      1  0.4999330000000  0.4218370000000  0.4247890000000 1.0
C      1  0.5676450000000  0.4312550000000  0.5560150000000 1.0
C      1  0.4469680000000  0.5172540000000  0.5044140000000 1.0
C      1  0.5724780000000  0.5720320000000  0.5020300000000 1.0
C      1  0.4606120000000  0.6069770000000  0.5248440000000 1.0
C      1  0.5234160000000  0.5238490000000  0.3694160000000 1.0
C      1  0.4851190000000  0.5607440000000  0.6073560000000 1.0
C      1  0.4687690000000  0.4534810000000  0.5915700000000 1.0
C      1  0.5279600000000  0.6227500000000  0.4779030000000 1.0
C      1  0.5416360000000  0.4280560000000  0.5704070000000 1.0
C      1  0.5688110000000  0.5043570000000  0.4128240000000 1.0
C      1  0.5908990000000  0.4174890000000  0.4221700000000 1.0
C      1  0.6018390000000  0.4363520000000  0.4381890000000 1.0
C      1  0.5568160000000  0.4036600000000  0.4719300000000 1.0
C      1  0.4124790000000  0.5121420000000  0.4614620000000 1.0
C      1  0.5928540000000  0.4735270000000  0.4691230000000 1.0
C      1  0.4959790000000  0.3811590000000  0.4951790000000 1.0
C      1  0.4672510000000  0.4659250000000  0.4750520000000 1.0
C      1  0.3988820000000  0.5693170000000  0.5515650000000 1.0
C      1  0.4728310000000  0.5798480000000  0.4512060000000 1.0
C      1  0.4424620000000  0.5640480000000  0.5837710000000 1.0
C      1  0.6036510000000  0.4944470000000  0.5375810000000 1.0
C      1  0.3698110000000  0.4386720000000  0.4892330000000 1.0
C      1  0.4809280000000  0.4613860000000  0.6157950000000 1.0
C      1  0.5357560000000  0.4657840000000  0.4966040000000 1.0
C      1  0.5920050000000  0.4983920000000  0.4245310000000 1.0
C      1  0.4509740000000  0.5285040000000  0.5508180000000 1.0
C      1  0.6117240000000  0.4478790000000  0.5361190000000 1.0
C      1  0.5245380000000  0.4691380000000  0.5978340000000 1.0
C      1  0.4282000000000  0.5864330000000  0.4681100000000 1.0
C      1  0.4581020000000  0.5074600000000  0.4608190000000 1.0
C      1  0.4629810000000  0.4171920000000  0.4717990000000 1.0
C      1  0.5542050000000  0.5823670000000  0.5624190000000 1.0
C      1  0.4300190000000  0.4525400000000  0.4217440000000 1.0
C      1  0.5931740000000  0.4441760000000  0.4646100000000 1.0
C      1  0.4597610000000  0.4039820000000  0.4468800000000 1.0
C      1  0.5273800000000  0.6186440000000  0.5043870000000 1.0
C      1  0.4146610000000  0.4704450000000  0.5685950000000 1.0
C      1  0.5368450000000  0.5988090000000  0.4320850000000 1.0
C      1  0.4585610000000  0.5468690000000  0.4142320000000 1.0
C      1  0.4373880000000  0.4678960000000  0.4846940000000 1.0
C      1  0.5308130000000  0.4851410000000  0.5752090000000 1.0
C      1  0.5720640000000  0.5198500000000  0.5716780000000 1.0
C      1  0.5344600000000  0.5517830000000  0.5220570000000 1.0
C      1  0.4925220000000  0.5939440000000  0.4078310000000 1.0
C      1  0.5426590000000  0.5726090000000  0.4230630000000 1.0
C      1  0.6033320000000  0.4877810000000  0.4464020000000 1.0
C      1  0.4140850000000  0.4594390000000  0.4667310000000 1.0
C      1  0.5257060000000  0.4650910000000  0.4321990000000 1.0
C      1  0.5655030000000  0.4152960000000  0.5321370000000 1.0
C      1  0.4139950000000  0.5653820000000  0.4588350000000 1.0
C      1  0.5319580000000  0.5309120000000  0.3955020000000 1.0
C      1  0.6197350000000  0.4729020000000  0.5263630000000 1.0
C      1  0.4732460000000  0.4977530000000  0.5767350000000 1.0
C      1  0.4990140000000  0.5246570000000  0.3580070000000 1.0
C      1  0.5092320000000  0.4756830000000  0.4939440000000 1.0
C      1  0.5833230000000  0.5372200000000  0.5518280000000 1.0
C      1  0.5518050000000  0.5534890000000  0.6188570000000 1.0
C      1  0.4122770000000  0.5915790000000  0.5430340000000 1.0
C      1  0.4499440000000  0.5559040000000  0.5581580000000 1.0
C      1  0.4754590000000  0.4852310000000  0.4506740000000 1.0
C      1  0.5530800000000  0.5020050000000  0.5775130000000 1.0
C      1  0.5480950000000  0.3999960000000  0.4438440000000 1.0
C      1  0.4358880000000  0.4388630000000  0.5072330000000 1.0
C      1  0.5807150000000  0.4208450000000  0.4765310000000 1.0
C      1  0.5028350000000  0.4507660000000  0.4245360000000 1.0
C      1  0.3942680000000  0.5201040000000  0.5722170000000 1.0
C      1  0.4706860000000  0.5349580000000  0.5017850000000 1.0
C      1  0.5368640000000  0.5449540000000  0.5992070000000 1.0
C      1  0.5110020000000  0.5476920000000  0.5366550000000 1.0
C      1  0.4703850000000  0.4187260000000  0.4253040000000 1.0
C      1  0.3914990000000  0.4468580000000  0.4773200000000 1.0
C      1  0.5256970000000  0.5576530000000  0.4048100000000 1.0
C      1  0.5396520000000  0.4118050000000  0.5221510000000 1.0
C      1  0.4246480000000  0.5396950000000  0.4498920000000 1.0
C      1  0.5693380000000  0.4015180000000  0.4249320000000 1.0
C      1  0.4993270000000  0.5682390000000  0.3982230000000 1.0
C      1  0.4879200000000  0.4549280000000  0.4933630000000 1.0
C      1  0.5075890000000  0.4058370000000  0.4869890000000 1.0
C      1  0.4763010000000  0.5513200000000  0.3923560000000 1.0
C      1  0.5026820000000  0.5938010000000  0.5633990000000 1.0
C      1  0.4988220000000  0.5801300000000  0.5895570000000 1.0
C      1  0.5192120000000  0.5361280000000  0.5811970000000 1.0
C      1  0.4640620000000  0.5882190000000  0.5004610000000 1.0
C      1  0.4994160000000  0.5078370000000  0.6211050000000 1.0
C      1  0.5214770000000  0.4052610000000  0.4336540000000 1.0
C      1  0.5953490000000  0.5210890000000  0.5289980000000 1.0
END
