TITL C-599896-8500-689 10.8762537028882 125000 -86.9302004695243 0 0 16 (C1) n - 1
REM
REM in /home/nfs/bkarasulu/CARBON/AIRSS/Generating-Clusters/TERSOFF/Only-C1/FIRE-HFTN
REM
REM
REM
REM
REM
REM ./C.cell (11c1c37f851c82e70ff6c80c92926a4b)
REM AIRSS Version 0.9.1 bugfix July 2018 build 013d7b7c2542+ Fri, 06 Jul 2018 19:26:36 +0100
REM compiler GCC version 9.2.1 20190827 (Red Hat 9.2.1-1)
REM options -cpp -mtune=generic -march=x86-64 -g -O0 -fpre-include=/usr/include/finclude/math-vector-fortran.h
REM seed -1055182255 -1780008192 2026414473 -1552996342 23210219 -236776382 -1203781898 -627375958 -752125077 1790593911 -2099061826 1049315600 110231963 -639953126 666524903 -1500173598 994868756 -1929562518 -150178556 -1966495671 1179039238 -1439642848 515521810 1217662739 -107814080 -1006749433 -651067109 2101780297 1434384665 -1756992944 -1866863601 -1125648447 253819988
REM
CELL 1.54180   50.00000   50.00000   50.00000   90.00000   90.00000   90.00000
LATT -1
SFAC C  
C      1  0.4456800000000  0.5427200000000  0.5855280000000 1.0
C      1  0.5249820000000  0.5211870000000  0.4673250000000 1.0
C      1  0.5481470000000  0.5947680000000  0.4499960000000 1.0
C      1  0.4623030000000  0.5024610000000  0.5561020000000 1.0
C      1  0.5241260000000  0.4739760000000  0.4567970000000 1.0
C      1  0.5405090000000  0.5705060000000  0.4557100000000 1.0
C      1  0.4539250000000  0.5227540000000  0.5709330000000 1.0
C      1  0.4582470000000  0.4304640000000  0.5542260000000 1.0
C      1  0.4866270000000  0.4858480000000  0.5177270000000 1.0
C      1  0.4644710000000  0.4548840000000  0.5475800000000 1.0
C      1  0.5013140000000  0.4903960000000  0.4961720000000 1.0
C      1  0.5310740000000  0.4538660000000  0.4410090000000 1.0
C      1  0.5379110000000  0.4340780000000  0.4254740000000 1.0
C      1  0.4711340000000  0.4810650000000  0.5404690000000 1.0
C      1  0.5168070000000  0.4951870000000  0.4734320000000 1.0
C      1  0.5327430000000  0.5458380000000  0.4615200000000 1.0
END
