TITL C-599896-8500-1423 1.66239643413159 125000 -679.784912567459 0 0 113 (C1) n - 1
REM
REM in /home/nfs/bkarasulu/CARBON/AIRSS/Generating-Clusters/TERSOFF/Only-C1/FIRE-HFTN
REM
REM
REM
REM
REM
REM ./C.cell (11c1c37f851c82e70ff6c80c92926a4b)
REM AIRSS Version 0.9.1 bugfix July 2018 build 013d7b7c2542+ Fri, 06 Jul 2018 19:26:36 +0100
REM compiler GCC version 9.2.1 20190827 (Red Hat 9.2.1-1)
REM options -cpp -mtune=generic -march=x86-64 -g -O0 -fpre-include=/usr/include/finclude/math-vector-fortran.h
REM seed 354952585 -889472403 -2136816527 2032553316 901237600 -2011104544 -1894016616 1260382328 -1355630155 1030120601 2030286301 1919956131 -857761532 -61060238 -1418399407 544400763 868570289 999231029 -726186106 -1381691734 -84122538 2092831469 1646204311 259747600 944825873 -2072536149 -1972122048 2116690680 -1477909954 -331954526 -1482963419 -182073963 -1153352147
REM
CELL 1.54180   50.00000   50.00000   50.00000   90.00000   90.00000   90.00000
LATT -1
SFAC C  
C      1  0.4678550000000  0.4796610000000  0.4598560000000 1.0
C      1  0.4703340000000  0.5166650000000  0.6498410000000 1.0
C      1  0.5724300000000  0.5586410000000  0.5288780000000 1.0
C      1  0.5016800000000  0.5468910000000  0.6183690000000 1.0
C      1  0.4113240000000  0.4156960000000  0.5397040000000 1.0
C      1  0.4382180000000  0.4940590000000  0.7103530000000 1.0
C      1  0.3716130000000  0.5123430000000  0.4879280000000 1.0
C      1  0.5900140000000  0.3924650000000  0.5349430000000 1.0
C      1  0.5315410000000  0.4981000000000  0.3913330000000 1.0
C      1  0.4734840000000  0.5739380000000  0.5808490000000 1.0
C      1  0.3963630000000  0.5202120000000  0.4857910000000 1.0
C      1  0.4536920000000  0.5763620000000  0.4579410000000 1.0
C      1  0.4118770000000  0.4272940000000  0.5636050000000 1.0
C      1  0.5543000000000  0.5290280000000  0.5656700000000 1.0
C      1  0.5690100000000  0.4114680000000  0.3704610000000 1.0
C      1  0.5608780000000  0.5852870000000  0.5251350000000 1.0
C      1  0.4931400000000  0.5094910000000  0.5554640000000 1.0
C      1  0.4235400000000  0.4389280000000  0.5862820000000 1.0
C      1  0.5324910000000  0.4624380000000  0.4449610000000 1.0
C      1  0.5120170000000  0.4110250000000  0.4892570000000 1.0
C      1  0.5967790000000  0.4306990000000  0.5033560000000 1.0
C      1  0.4673240000000  0.3999940000000  0.4565710000000 1.0
C      1  0.4995060000000  0.4345210000000  0.5304190000000 1.0
C      1  0.4421780000000  0.5160350000000  0.4665540000000 1.0
C      1  0.4527230000000  0.5574320000000  0.4351330000000 1.0
C      1  0.5383170000000  0.5237550000000  0.3979670000000 1.0
C      1  0.4611320000000  0.5981950000000  0.5789200000000 1.0
C      1  0.4756340000000  0.5956530000000  0.4992030000000 1.0
C      1  0.5335710000000  0.3967920000000  0.5012690000000 1.0
C      1  0.5343040000000  0.4562220000000  0.4164520000000 1.0
C      1  0.4376510000000  0.5747250000000  0.4831820000000 1.0
C      1  0.5016560000000  0.4337890000000  0.5027050000000 1.0
C      1  0.4310880000000  0.3974350000000  0.4943090000000 1.0
C      1  0.5629110000000  0.4220850000000  0.4725210000000 1.0
C      1  0.5183540000000  0.4730560000000  0.3990270000000 1.0
C      1  0.5111470000000  0.4648570000000  0.4630130000000 1.0
C      1  0.5367820000000  0.5888770000000  0.5095550000000 1.0
C      1  0.4185160000000  0.4052130000000  0.5163780000000 1.0
C      1  0.5721250000000  0.5403080000000  0.5065870000000 1.0
C      1  0.4197740000000  0.4704320000000  0.6231260000000 1.0
C      1  0.5370660000000  0.5439600000000  0.4164200000000 1.0
C      1  0.4906010000000  0.5243730000000  0.4187770000000 1.0
C      1  0.4889430000000  0.4725830000000  0.3967000000000 1.0
C      1  0.5523820000000  0.5482840000000  0.4882180000000 1.0
C      1  0.4477020000000  0.3947930000000  0.4737450000000 1.0
C      1  0.5654140000000  0.4296120000000  0.3888170000000 1.0
C      1  0.5868720000000  0.4694550000000  0.4725880000000 1.0
C      1  0.6089120000000  0.4606050000000  0.4126990000000 1.0
C      1  0.4227390000000  0.5281050000000  0.4832320000000 1.0
C      1  0.4532560000000  0.4816590000000  0.4342400000000 1.0
C      1  0.5068330000000  0.5064350000000  0.4358920000000 1.0
C      1  0.5117300000000  0.5973870000000  0.4668600000000 1.0
C      1  0.5135900000000  0.4135930000000  0.4599980000000 1.0
C      1  0.5415780000000  0.4178060000000  0.4536840000000 1.0
C      1  0.5374710000000  0.5930040000000  0.4799350000000 1.0
C      1  0.5829940000000  0.4076310000000  0.5136470000000 1.0
C      1  0.4720940000000  0.5546830000000  0.5601030000000 1.0
C      1  0.4436510000000  0.4969350000000  0.6850260000000 1.0
C      1  0.5284680000000  0.5514120000000  0.4413870000000 1.0
C      1  0.5850510000000  0.5154390000000  0.5020460000000 1.0
C      1  0.4496210000000  0.4831090000000  0.5300110000000 1.0
C      1  0.4514960000000  0.4393800000000  0.5875330000000 1.0
C      1  0.4880700000000  0.5665820000000  0.6037120000000 1.0
C      1  0.5726820000000  0.5470530000000  0.5544520000000 1.0
C      1  0.4787650000000  0.4369580000000  0.4285130000000 1.0
C      1  0.4947860000000  0.4863660000000  0.4517560000000 1.0
C      1  0.4341940000000  0.4862080000000  0.6388140000000 1.0
C      1  0.5506440000000  0.4850170000000  0.4473220000000 1.0
C      1  0.4349710000000  0.5496490000000  0.4974850000000 1.0
C      1  0.4862120000000  0.5398330000000  0.4607570000000 1.0
C      1  0.4788770000000  0.4945620000000  0.3818290000000 1.0
C      1  0.4836060000000  0.5926750000000  0.4710160000000 1.0
C      1  0.4704150000000  0.4623470000000  0.4169960000000 1.0
C      1  0.4494050000000  0.4999450000000  0.6578480000000 1.0
C      1  0.5774220000000  0.5764130000000  0.4547510000000 1.0
C      1  0.3823440000000  0.4426520000000  0.6115440000000 1.0
C      1  0.5351440000000  0.5076840000000  0.4420390000000 1.0
C      1  0.4764960000000  0.5274790000000  0.5663930000000 1.0
C      1  0.4879970000000  0.5325380000000  0.6380530000000 1.0
C      1  0.5395150000000  0.5135490000000  0.5472520000000 1.0
C      1  0.5852240000000  0.6280900000000  0.5472770000000 1.0
C      1  0.4711420000000  0.5602900000000  0.5323600000000 1.0
C      1  0.4470410000000  0.5961110000000  0.5000880000000 1.0
C      1  0.4784600000000  0.5448210000000  0.4339200000000 1.0
C      1  0.5833620000000  0.4616260000000  0.4223980000000 1.0
C      1  0.4714290000000  0.4715530000000  0.4876560000000 1.0
C      1  0.4750990000000  0.5186850000000  0.5040000000000 1.0
C      1  0.5126690000000  0.5462360000000  0.4654830000000 1.0
C      1  0.5454020000000  0.5317960000000  0.5920080000000 1.0
C      1  0.4880100000000  0.4163260000000  0.4462120000000 1.0
C      1  0.5734300000000  0.6074660000000  0.5365680000000 1.0
C      1  0.5838640000000  0.4421280000000  0.4800780000000 1.0
C      1  0.4818410000000  0.5191520000000  0.3925630000000 1.0
C      1  0.4081150000000  0.4506680000000  0.6070340000000 1.0
C      1  0.4920530000000  0.4364540000000  0.5557460000000 1.0
C      1  0.5056700000000  0.5222170000000  0.5102080000000 1.0
C      1  0.5272420000000  0.5389890000000  0.6100550000000 1.0
C      1  0.5567120000000  0.5725510000000  0.4720250000000 1.0
C      1  0.5219060000000  0.5440370000000  0.4942180000000 1.0
C      1  0.4691830000000  0.5228990000000  0.4748930000000 1.0
C      1  0.4653600000000  0.4899080000000  0.5087960000000 1.0
C      1  0.5770790000000  0.4758850000000  0.4465890000000 1.0
C      1  0.4572630000000  0.5416660000000  0.5153870000000 1.0
C      1  0.5611760000000  0.4487830000000  0.4086010000000 1.0
C      1  0.5898310000000  0.4913430000000  0.4907590000000 1.0
C      1  0.4885790000000  0.5779130000000  0.5179400000000 1.0
C      1  0.5137980000000  0.5122840000000  0.5362830000000 1.0
C      1  0.4350780000000  0.5351890000000  0.4260910000000 1.0
C      1  0.4390500000000  0.5083400000000  0.4381830000000 1.0
C      1  0.4965570000000  0.4563340000000  0.4867480000000 1.0
C      1  0.5603230000000  0.4042700000000  0.4963260000000 1.0
C      1  0.5152390000000  0.5697760000000  0.5121700000000 1.0
C      1  0.4755290000000  0.4383990000000  0.5763790000000 1.0
END
