TITL C-599897-7526-436 0.00111962618402129 125000 -345.657019629279 0 0 57 (C1) n - 1
REM
REM in /home/nfs/bkarasulu/CARBON/AIRSS/Generating-Clusters/TERSOFF/Only-C1/FIRE-HFTN
REM
REM
REM
REM
REM
REM ./C.cell (11c1c37f851c82e70ff6c80c92926a4b)
REM AIRSS Version 0.9.1 bugfix July 2018 build 013d7b7c2542+ Fri, 06 Jul 2018 19:26:36 +0100
REM compiler GCC version 9.2.1 20190827 (Red Hat 9.2.1-1)
REM options -cpp -mtune=generic -march=x86-64 -g -O0 -fpre-include=/usr/include/finclude/math-vector-fortran.h
REM seed 1373198662 -1075370921 1901764268 -781372281 1388710835 -1579456594 1408074811 -141607661 -801455800 1375950915 -541240947 -891326621 491750439 1498317455 1656352556 824941289 613422510 -209069418 -687797725 1646129981 74528087 1908509217 778229780 -1794797551 226687331 -1198080861 -1845587648 275413039 -1592679709 -1874068163 1413455475 -1251330015 -714721052
REM
CELL 1.54180   50.00000   50.00000   50.00000   90.00000   90.00000   90.00000
LATT -1
SFAC C  
C      1  0.5667450000000  0.5417320000000  0.4134980000000 1.0
C      1  0.4790550000000  0.5218030000000  0.4246420000000 1.0
C      1  0.5364050000000  0.4957900000000  0.4489000000000 1.0
C      1  0.4218650000000  0.5198090000000  0.5264000000000 1.0
C      1  0.5152590000000  0.4626660000000  0.4209410000000 1.0
C      1  0.4751700000000  0.4916220000000  0.4624390000000 1.0
C      1  0.5150680000000  0.5688120000000  0.4574470000000 1.0
C      1  0.4755380000000  0.4871920000000  0.4885260000000 1.0
C      1  0.5795210000000  0.5162640000000  0.4581510000000 1.0
C      1  0.4921160000000  0.4299750000000  0.5506340000000 1.0
C      1  0.5180700000000  0.5571740000000  0.4805620000000 1.0
C      1  0.5256690000000  0.3885070000000  0.4155760000000 1.0
C      1  0.5139420000000  0.4869160000000  0.4347520000000 1.0
C      1  0.5217300000000  0.5493700000000  0.5070620000000 1.0
C      1  0.5286410000000  0.5341950000000  0.5619790000000 1.0
C      1  0.4450630000000  0.5380840000000  0.5655940000000 1.0
C      1  0.5148250000000  0.5669690000000  0.5284330000000 1.0
C      1  0.5283950000000  0.3673560000000  0.4005940000000 1.0
C      1  0.5201350000000  0.4871350000000  0.5476490000000 1.0
C      1  0.5184140000000  0.5422400000000  0.3959960000000 1.0
C      1  0.5294410000000  0.5137850000000  0.5410400000000 1.0
C      1  0.5466670000000  0.5097180000000  0.4941800000000 1.0
C      1  0.5176280000000  0.4265840000000  0.5087300000000 1.0
C      1  0.4948840000000  0.5336420000000  0.4049150000000 1.0
C      1  0.5067700000000  0.4704840000000  0.5284870000000 1.0
C      1  0.4635400000000  0.4558580000000  0.5811430000000 1.0
C      1  0.5278420000000  0.5607480000000  0.5527200000000 1.0
C      1  0.5227530000000  0.4111300000000  0.4316180000000 1.0
C      1  0.4883330000000  0.4823740000000  0.5111440000000 1.0
C      1  0.5545060000000  0.5062950000000  0.4674930000000 1.0
C      1  0.4102180000000  0.4745380000000  0.5647080000000 1.0
C      1  0.4549420000000  0.5332560000000  0.4333140000000 1.0
C      1  0.4607940000000  0.5299360000000  0.5876180000000 1.0
C      1  0.4490870000000  0.5629230000000  0.5535000000000 1.0
C      1  0.5240470000000  0.4091790000000  0.4595160000000 1.0
C      1  0.4730640000000  0.5043970000000  0.5892420000000 1.0
C      1  0.5184660000000  0.4363250000000  0.4202240000000 1.0
C      1  0.4317200000000  0.5164710000000  0.5523520000000 1.0
C      1  0.4657660000000  0.5783080000000  0.5395050000000 1.0
C      1  0.5446330000000  0.5454080000000  0.3991770000000 1.0
C      1  0.5792570000000  0.5316110000000  0.4346680000000 1.0
C      1  0.4246220000000  0.5340550000000  0.4757200000000 1.0
C      1  0.5169870000000  0.5270810000000  0.5866790000000 1.0
C      1  0.4558240000000  0.4830000000000  0.5799460000000 1.0
C      1  0.5145700000000  0.4817740000000  0.5755690000000 1.0
C      1  0.4903500000000  0.5804730000000  0.5293390000000 1.0
C      1  0.4198270000000  0.5269900000000  0.5008960000000 1.0
C      1  0.4875420000000  0.4420100000000  0.5757200000000 1.0
C      1  0.5104510000000  0.4557790000000  0.5853370000000 1.0
C      1  0.5016350000000  0.5034760000000  0.5888820000000 1.0
C      1  0.5064500000000  0.4417780000000  0.5292190000000 1.0
C      1  0.5327170000000  0.5235660000000  0.5141220000000 1.0
C      1  0.6028130000000  0.5108050000000  0.4713350000000 1.0
C      1  0.5227440000000  0.4152380000000  0.4853090000000 1.0
C      1  0.4363940000000  0.5369900000000  0.4520480000000 1.0
C      1  0.4888950000000  0.4995300000000  0.4393730000000 1.0
C      1  0.4321950000000  0.4908760000000  0.5654400000000 1.0
END
