TITL C-599893-4344-190 0.000602479217816308 125000 -648.185091580352 0 0 106 (C1) n - 1
REM
REM in /home/nfs/bkarasulu/CARBON/AIRSS/Generating-Clusters/TERSOFF/Only-C1/FIRE-HFTN
REM
REM
REM
REM
REM
REM ./C.cell (11c1c37f851c82e70ff6c80c92926a4b)
REM AIRSS Version 0.9.1 bugfix July 2018 build 013d7b7c2542+ Fri, 06 Jul 2018 19:26:36 +0100
REM compiler GCC version 9.2.1 20190827 (Red Hat 9.2.1-1)
REM options -cpp -mtune=generic -march=x86-64 -g -O0 -fpre-include=/usr/include/finclude/math-vector-fortran.h
REM seed -209766142 2069143471 -1666889388 1615900923 1258198589 -1820325144 -1650288143 -278752845 1272929790 475301360 286371982 -1430807222 1836981421 -491364670 -1132262929 -740441581 -1071934191 1094021395 -2083779731 -1769085862 -1961329315 -1201933828 41022230 1701792255 -2064948710 1992139512 1404296169 -1932350607 -1198698577 268867897 1377691707 -335523841 -680850748
REM
CELL 1.54180   50.00000   50.00000   50.00000   90.00000   90.00000   90.00000
LATT -1
SFAC C  
C      1  0.5179050000000  0.5288150000000  0.5327210000000 1.0
C      1  0.4881470000000  0.5338130000000  0.5248450000000 1.0
C      1  0.5018110000000  0.4742180000000  0.4194160000000 1.0
C      1  0.4466740000000  0.4872330000000  0.4732710000000 1.0
C      1  0.4672970000000  0.4540870000000  0.5580220000000 1.0
C      1  0.4700750000000  0.5108450000000  0.5129330000000 1.0
C      1  0.5857240000000  0.4804030000000  0.4714540000000 1.0
C      1  0.5348450000000  0.4208550000000  0.4938770000000 1.0
C      1  0.4520820000000  0.5336950000000  0.4681890000000 1.0
C      1  0.5543240000000  0.5836050000000  0.5031950000000 1.0
C      1  0.5330080000000  0.4969130000000  0.4870140000000 1.0
C      1  0.5839280000000  0.5179220000000  0.5049610000000 1.0
C      1  0.5173640000000  0.4434370000000  0.4891900000000 1.0
C      1  0.4293930000000  0.4762530000000  0.4120760000000 1.0
C      1  0.5979450000000  0.4484930000000  0.5138530000000 1.0
C      1  0.4469830000000  0.5617160000000  0.5386440000000 1.0
C      1  0.4110280000000  0.5002670000000  0.5139880000000 1.0
C      1  0.4987700000000  0.5017230000000  0.4107130000000 1.0
C      1  0.4460510000000  0.4987070000000  0.5843730000000 1.0
C      1  0.4326570000000  0.4524580000000  0.5230910000000 1.0
C      1  0.5947670000000  0.4746880000000  0.5598550000000 1.0
C      1  0.5374390000000  0.5226350000000  0.4326810000000 1.0
C      1  0.5010690000000  0.4995210000000  0.5890380000000 1.0
C      1  0.4793160000000  0.4543540000000  0.4559180000000 1.0
C      1  0.5831850000000  0.4391500000000  0.4458480000000 1.0
C      1  0.4936530000000  0.4567870000000  0.5515530000000 1.0
C      1  0.5323620000000  0.5824300000000  0.5520370000000 1.0
C      1  0.4656510000000  0.5348780000000  0.4224920000000 1.0
C      1  0.4287070000000  0.5092630000000  0.5642840000000 1.0
C      1  0.5049900000000  0.4091470000000  0.4598960000000 1.0
C      1  0.5455610000000  0.5384420000000  0.4569750000000 1.0
C      1  0.5405510000000  0.5890960000000  0.5273580000000 1.0
C      1  0.5842890000000  0.5090390000000  0.4771110000000 1.0
C      1  0.5746950000000  0.5297870000000  0.4598080000000 1.0
C      1  0.4575610000000  0.5978290000000  0.5034020000000 1.0
C      1  0.4719210000000  0.5493230000000  0.5442820000000 1.0
C      1  0.5321790000000  0.5175520000000  0.5551400000000 1.0
C      1  0.5438590000000  0.4418510000000  0.5342600000000 1.0
C      1  0.4771420000000  0.4635410000000  0.4293620000000 1.0
C      1  0.4583180000000  0.5783750000000  0.4810350000000 1.0
C      1  0.6029760000000  0.4589970000000  0.5396360000000 1.0
C      1  0.4636120000000  0.5095570000000  0.4821810000000 1.0
C      1  0.5535770000000  0.4239420000000  0.5146170000000 1.0
C      1  0.5009600000000  0.4609660000000  0.4741560000000 1.0
C      1  0.4967940000000  0.4097550000000  0.5532500000000 1.0
C      1  0.5244140000000  0.4570120000000  0.4292950000000 1.0
C      1  0.5333250000000  0.5273200000000  0.4831590000000 1.0
C      1  0.4212240000000  0.5458650000000  0.5005790000000 1.0
C      1  0.4035240000000  0.5177130000000  0.4639080000000 1.0
C      1  0.4528370000000  0.4639280000000  0.4155770000000 1.0
C      1  0.4421290000000  0.5551690000000  0.4830660000000 1.0
C      1  0.4927500000000  0.5492280000000  0.4991290000000 1.0
C      1  0.5417170000000  0.5839370000000  0.4775750000000 1.0
C      1  0.5085530000000  0.4874800000000  0.4757170000000 1.0
C      1  0.5040440000000  0.5333550000000  0.4784940000000 1.0
C      1  0.4265160000000  0.5441940000000  0.5289720000000 1.0
C      1  0.4396580000000  0.4402450000000  0.4792530000000 1.0
C      1  0.5266870000000  0.4001310000000  0.4767290000000 1.0
C      1  0.5375610000000  0.4670070000000  0.5273860000000 1.0
C      1  0.5310220000000  0.5665980000000  0.4570980000000 1.0
C      1  0.4483690000000  0.5881540000000  0.5281340000000 1.0
C      1  0.4732430000000  0.5063420000000  0.5883650000000 1.0
C      1  0.4625520000000  0.4334010000000  0.4640180000000 1.0
C      1  0.5594470000000  0.5085090000000  0.5501650000000 1.0
C      1  0.4185780000000  0.5179950000000  0.4393130000000 1.0
C      1  0.4617610000000  0.4901460000000  0.5289540000000 1.0
C      1  0.4723960000000  0.5126550000000  0.4048270000000 1.0
C      1  0.5262920000000  0.5680440000000  0.5738360000000 1.0
C      1  0.4911540000000  0.5090310000000  0.4716470000000 1.0
C      1  0.5356330000000  0.5373540000000  0.5113640000000 1.0
C      1  0.5815800000000  0.4253170000000  0.5114280000000 1.0
C      1  0.4154920000000  0.4976280000000  0.4202590000000 1.0
C      1  0.4440140000000  0.4301490000000  0.5068570000000 1.0
C      1  0.5068320000000  0.4225230000000  0.5753410000000 1.0
C      1  0.5094320000000  0.4722970000000  0.5940290000000 1.0
C      1  0.4516450000000  0.4659920000000  0.5384930000000 1.0
C      1  0.4842510000000  0.4071870000000  0.5291470000000 1.0
C      1  0.4443490000000  0.5311420000000  0.4410370000000 1.0
C      1  0.5997170000000  0.4651700000000  0.4911760000000 1.0
C      1  0.4759630000000  0.6183250000000  0.4951180000000 1.0
C      1  0.5898800000000  0.5452650000000  0.5093600000000 1.0
C      1  0.5773200000000  0.4941900000000  0.5666620000000 1.0
C      1  0.5194560000000  0.5199750000000  0.5803490000000 1.0
C      1  0.5655230000000  0.5046600000000  0.5221660000000 1.0
C      1  0.4289670000000  0.4669850000000  0.4806790000000 1.0
C      1  0.4693350000000  0.4132170000000  0.5052940000000 1.0
C      1  0.5017510000000  0.5675750000000  0.4482240000000 1.0
C      1  0.5117940000000  0.5254030000000  0.4222110000000 1.0
C      1  0.4409320000000  0.4722530000000  0.5937730000000 1.0
C      1  0.4897910000000  0.6110620000000  0.4722260000000 1.0
C      1  0.5155900000000  0.4292540000000  0.4390800000000 1.0
C      1  0.5115470000000  0.4453100000000  0.5899290000000 1.0
C      1  0.5722350000000  0.4639280000000  0.4512170000000 1.0
C      1  0.5208130000000  0.5464360000000  0.5914700000000 1.0
C      1  0.4075770000000  0.5209170000000  0.4919840000000 1.0
C      1  0.4825920000000  0.5841500000000  0.4630550000000 1.0
C      1  0.4200710000000  0.5168520000000  0.5382180000000 1.0
C      1  0.4790640000000  0.4122080000000  0.4757530000000 1.0
C      1  0.5493650000000  0.4714850000000  0.4355070000000 1.0
C      1  0.4542620000000  0.4511940000000  0.5829060000000 1.0
C      1  0.5503580000000  0.4983880000000  0.4268530000000 1.0
C      1  0.5173130000000  0.5507160000000  0.6182430000000 1.0
C      1  0.4925370000000  0.5464930000000  0.4300920000000 1.0
C      1  0.5460640000000  0.4874100000000  0.5102270000000 1.0
C      1  0.4172070000000  0.4722160000000  0.5070470000000 1.0
C      1  0.5788470000000  0.5695520000000  0.5060310000000 1.0
END
