TITL C-599890-3321-736 -0.0854791630851258 125000 -18.9723642081922 0 0 4 (D(inf)h) n - 1
REM
REM in /home/nfs/bkarasulu/CARBON/AIRSS/Generating-Clusters/TERSOFF/Only-C1/FIRE-HFTN
REM
REM
REM
REM
REM
REM ./C.cell (11c1c37f851c82e70ff6c80c92926a4b)
REM AIRSS Version 0.9.1 bugfix July 2018 build 013d7b7c2542+ Fri, 06 Jul 2018 19:26:36 +0100
REM compiler GCC version 9.2.1 20190827 (Red Hat 9.2.1-1)
REM options -cpp -mtune=generic -march=x86-64 -g -O0 -fpre-include=/usr/include/finclude/math-vector-fortran.h
REM seed 1938856903 -1467782064 1192342300 1731020838 2008583981 2041114860 1959046297 -1441664991 -1580112295 1736959668 -274512951 -760195274 -1544378825 -1958070476 -1073769689 919696349 -1539511457 -2054274369 -9190787 2100964214 1570793405 -2066211056 -1347488532 79401480 57761792 -1627576630 1257101508 -1111692974 -1162464327 1941824778 837862008 -1155708439 2069955183
REM
CELL 1.54180   50.00000   50.00000   50.00000   90.00000   90.00000   90.00000
LATT -1
SFAC C  
C      1  0.5059700000000  0.5009700000000  0.4882030000000 1.0
C      1  0.4940300000000  0.4990300000000  0.5117970000000 1.0
C      1  0.4822900000000  0.4971220000000  0.5349960000000 1.0
C      1  0.5177100000000  0.5028780000000  0.4650040000000 1.0
END
