TITL C-599894-471-1003 0.153219913226158 125000 -913.881779989362 0 0 149 (C1) n - 1
REM
REM in /home/nfs/bkarasulu/CARBON/AIRSS/Generating-Clusters/TERSOFF/Only-C1/FIRE-HFTN
REM
REM
REM
REM
REM
REM ./C.cell (11c1c37f851c82e70ff6c80c92926a4b)
REM AIRSS Version 0.9.1 bugfix July 2018 build 013d7b7c2542+ Fri, 06 Jul 2018 19:26:36 +0100
REM compiler GCC version 9.2.1 20190827 (Red Hat 9.2.1-1)
REM options -cpp -mtune=generic -march=x86-64 -g -O0 -fpre-include=/usr/include/finclude/math-vector-fortran.h
REM seed -97740054 -1269054650 -985610729 -1152259171 18200827 1132901257 1251347323 790887681 -1281833414 1702572786 1308005904 1547527630 1942957122 822746825 -106656122 -1596982982 590555481 -711610803 -8627828 742772001 1934647880 853872609 701771182 -1123759255 895264768 -406893959 1453228138 1378531164 1294998192 -646422820 1000208366 -132558658 1482756888
REM
CELL 1.54180   50.00000   50.00000   50.00000   90.00000   90.00000   90.00000
LATT -1
SFAC C  
C      1  0.4455870000000  0.3754250000000  0.4371150000000 1.0
C      1  0.5355860000000  0.5130960000000  0.5691280000000 1.0
C      1  0.5246960000000  0.5070400000000  0.5102730000000 1.0
C      1  0.4477030000000  0.5146290000000  0.5830680000000 1.0
C      1  0.4665710000000  0.5689710000000  0.5505950000000 1.0
C      1  0.4862300000000  0.6551230000000  0.5182370000000 1.0
C      1  0.4474260000000  0.5836770000000  0.4375300000000 1.0
C      1  0.5004340000000  0.5188450000000  0.6156000000000 1.0
C      1  0.5081770000000  0.4387740000000  0.4902500000000 1.0
C      1  0.6384790000000  0.5318250000000  0.4177280000000 1.0
C      1  0.4889830000000  0.4587090000000  0.5285170000000 1.0
C      1  0.5078510000000  0.3807200000000  0.4764270000000 1.0
C      1  0.4282780000000  0.5072680000000  0.5626230000000 1.0
C      1  0.4013100000000  0.5353160000000  0.4738970000000 1.0
C      1  0.5044220000000  0.4923370000000  0.4953220000000 1.0
C      1  0.5551140000000  0.5080870000000  0.5485890000000 1.0
C      1  0.4080030000000  0.5077330000000  0.4977980000000 1.0
C      1  0.4617020000000  0.4071660000000  0.4699250000000 1.0
C      1  0.5428310000000  0.5012900000000  0.4202110000000 1.0
C      1  0.4800520000000  0.5258620000000  0.3783840000000 1.0
C      1  0.4431130000000  0.5157360000000  0.6106210000000 1.0
C      1  0.4258690000000  0.4332310000000  0.4994110000000 1.0
C      1  0.4583700000000  0.5497740000000  0.5046330000000 1.0
C      1  0.5633780000000  0.5023740000000  0.4016860000000 1.0
C      1  0.4749330000000  0.5180400000000  0.5749230000000 1.0
C      1  0.5156670000000  0.5651830000000  0.4831930000000 1.0
C      1  0.4707550000000  0.4998950000000  0.3665790000000 1.0
C      1  0.4218740000000  0.5418590000000  0.4566900000000 1.0
C      1  0.5198910000000  0.4982880000000  0.6130070000000 1.0
C      1  0.4831020000000  0.4743250000000  0.3688180000000 1.0
C      1  0.4301230000000  0.4807190000000  0.5528320000000 1.0
C      1  0.4957740000000  0.4904280000000  0.4310510000000 1.0
C      1  0.4962480000000  0.5308310000000  0.5897040000000 1.0
C      1  0.4184170000000  0.4597860000000  0.5093960000000 1.0
C      1  0.4128700000000  0.4639360000000  0.5372920000000 1.0
C      1  0.5198080000000  0.3963410000000  0.5163290000000 1.0
C      1  0.4898720000000  0.5538100000000  0.3790020000000 1.0
C      1  0.5816730000000  0.5115410000000  0.5595940000000 1.0
C      1  0.5231420000000  0.5936270000000  0.5322460000000 1.0
C      1  0.4899230000000  0.5289850000000  0.5326100000000 1.0
C      1  0.6039060000000  0.5629400000000  0.4421590000000 1.0
C      1  0.4823980000000  0.5069710000000  0.5493340000000 1.0
C      1  0.4479560000000  0.5003650000000  0.4512540000000 1.0
C      1  0.5240070000000  0.4583780000000  0.4513120000000 1.0
C      1  0.4845690000000  0.3977510000000  0.4845090000000 1.0
C      1  0.4888770000000  0.5675530000000  0.4075870000000 1.0
C      1  0.5027450000000  0.4168090000000  0.5565300000000 1.0
C      1  0.5968010000000  0.4837770000000  0.4957110000000 1.0
C      1  0.5215060000000  0.5372360000000  0.5758120000000 1.0
C      1  0.4755700000000  0.4523060000000  0.4486780000000 1.0
C      1  0.6215790000000  0.5479020000000  0.4293710000000 1.0
C      1  0.5927200000000  0.4598870000000  0.5640530000000 1.0
C      1  0.5513320000000  0.5025940000000  0.5206940000000 1.0
C      1  0.5870320000000  0.4363760000000  0.4758020000000 1.0
C      1  0.4101300000000  0.5259130000000  0.5201980000000 1.0
C      1  0.4207090000000  0.4827370000000  0.4918250000000 1.0
C      1  0.5237390000000  0.4345040000000  0.4658420000000 1.0
C      1  0.4395750000000  0.4785960000000  0.4703300000000 1.0
C      1  0.4267440000000  0.5638500000000  0.4393300000000 1.0
C      1  0.6030290000000  0.4579870000000  0.4275470000000 1.0
C      1  0.5029390000000  0.5909650000000  0.4865810000000 1.0
C      1  0.5694600000000  0.4897530000000  0.5023770000000 1.0
C      1  0.5831930000000  0.4393470000000  0.4269330000000 1.0
C      1  0.5461890000000  0.4174680000000  0.4596420000000 1.0
C      1  0.5403330000000  0.5273280000000  0.4593050000000 1.0
C      1  0.5322840000000  0.3857940000000  0.4927050000000 1.0
C      1  0.5244300000000  0.5488130000000  0.4622530000000 1.0
C      1  0.4809890000000  0.4506610000000  0.3819430000000 1.0
C      1  0.5753040000000  0.4393340000000  0.5548640000000 1.0
C      1  0.5345330000000  0.5620220000000  0.5686620000000 1.0
C      1  0.4412790000000  0.5106240000000  0.6584470000000 1.0
C      1  0.4446920000000  0.5271040000000  0.4638690000000 1.0
C      1  0.5824700000000  0.5394970000000  0.5668440000000 1.0
C      1  0.5154540000000  0.5784500000000  0.4155900000000 1.0
C      1  0.5141390000000  0.5315780000000  0.5187630000000 1.0
C      1  0.4400940000000  0.5704800000000  0.5599570000000 1.0
C      1  0.4079330000000  0.4846020000000  0.4261710000000 1.0
C      1  0.4188490000000  0.5540340000000  0.5584880000000 1.0
C      1  0.5427290000000  0.4770900000000  0.4627940000000 1.0
C      1  0.5464900000000  0.5020060000000  0.4486870000000 1.0
C      1  0.5162960000000  0.5833870000000  0.5585870000000 1.0
C      1  0.5388130000000  0.5839500000000  0.4276150000000 1.0
C      1  0.4667590000000  0.5245520000000  0.4054880000000 1.0
C      1  0.6122500000000  0.4686800000000  0.4508370000000 1.0
C      1  0.4105170000000  0.5509930000000  0.5043000000000 1.0
C      1  0.4462930000000  0.4301080000000  0.4793790000000 1.0
C      1  0.4379000000000  0.5887950000000  0.4852200000000 1.0
C      1  0.5949840000000  0.4870440000000  0.5649980000000 1.0
C      1  0.5531480000000  0.4695870000000  0.4892230000000 1.0
C      1  0.5075570000000  0.6060470000000  0.5114860000000 1.0
C      1  0.4798360000000  0.5427500000000  0.4228820000000 1.0
C      1  0.4933410000000  0.5356870000000  0.6605660000000 1.0
C      1  0.4655500000000  0.5857980000000  0.4151900000000 1.0
C      1  0.5835130000000  0.5746950000000  0.4574130000000 1.0
C      1  0.5856470000000  0.5717390000000  0.5120440000000 1.0
C      1  0.5603460000000  0.5834880000000  0.4436800000000 1.0
C      1  0.4345030000000  0.5655670000000  0.5008580000000 1.0
C      1  0.4789610000000  0.5007540000000  0.4511820000000 1.0
C      1  0.3984970000000  0.4446460000000  0.5521660000000 1.0
C      1  0.5717390000000  0.4291570000000  0.4506070000000 1.0
C      1  0.4551540000000  0.5941810000000  0.4631940000000 1.0
C      1  0.4532710000000  0.4539510000000  0.4657790000000 1.0
C      1  0.5300210000000  0.4225110000000  0.5632470000000 1.0
C      1  0.5401210000000  0.5736710000000  0.5215330000000 1.0
C      1  0.4900910000000  0.4294970000000  0.5335620000000 1.0
C      1  0.4821130000000  0.5988500000000  0.4694700000000 1.0
C      1  0.4430510000000  0.5087460000000  0.4035960000000 1.0
C      1  0.5871500000000  0.5756430000000  0.4854460000000 1.0
C      1  0.4884350000000  0.5815710000000  0.5631440000000 1.0
C      1  0.3879440000000  0.4077070000000  0.5828650000000 1.0
C      1  0.4158160000000  0.5279250000000  0.5477280000000 1.0
C      1  0.4431690000000  0.4987340000000  0.3767510000000 1.0
C      1  0.3712810000000  0.3900070000000  0.5922580000000 1.0
C      1  0.5547950000000  0.4500740000000  0.5361180000000 1.0
C      1  0.5297470000000  0.4917700000000  0.5871710000000 1.0
C      1  0.5532530000000  0.4027270000000  0.4839480000000 1.0
C      1  0.6181170000000  0.4984280000000  0.5060090000000 1.0
C      1  0.5633060000000  0.5597470000000  0.5589450000000 1.0
C      1  0.4124520000000  0.4109440000000  0.5082050000000 1.0
C      1  0.5657720000000  0.5693050000000  0.5317480000000 1.0
C      1  0.5250110000000  0.5548570000000  0.5078390000000 1.0
C      1  0.5559120000000  0.4465030000000  0.5081110000000 1.0
C      1  0.4323160000000  0.4288760000000  0.5818410000000 1.0
C      1  0.5816650000000  0.5050160000000  0.3833080000000 1.0
C      1  0.4321180000000  0.4974270000000  0.4263780000000 1.0
C      1  0.5153640000000  0.5005430000000  0.4137620000000 1.0
C      1  0.4739660000000  0.4309650000000  0.3990860000000 1.0
C      1  0.5699580000000  0.4237990000000  0.4967200000000 1.0
C      1  0.4832640000000  0.5236090000000  0.6374710000000 1.0
C      1  0.4716010000000  0.5502820000000  0.5293840000000 1.0
C      1  0.4548660000000  0.4681050000000  0.5598270000000 1.0
C      1  0.5251560000000  0.4681440000000  0.5741180000000 1.0
C      1  0.4774830000000  0.4782630000000  0.5456740000000 1.0
C      1  0.4993930000000  0.4636110000000  0.4389110000000 1.0
C      1  0.4527000000000  0.4456330000000  0.5765160000000 1.0
C      1  0.5320690000000  0.4506850000000  0.5539630000000 1.0
C      1  0.4971440000000  0.6317060000000  0.5148290000000 1.0
C      1  0.4056850000000  0.4264860000000  0.5726560000000 1.0
C      1  0.4554990000000  0.5166820000000  0.6358650000000 1.0
C      1  0.6372190000000  0.5140060000000  0.5144670000000 1.0
C      1  0.4859300000000  0.5088360000000  0.4790750000000 1.0
C      1  0.6011810000000  0.4620750000000  0.4763840000000 1.0
C      1  0.4583370000000  0.3993000000000  0.4420900000000 1.0
C      1  0.4671800000000  0.4147220000000  0.4196250000000 1.0
C      1  0.4650190000000  0.5303090000000  0.4846270000000 1.0
C      1  0.5029480000000  0.5469110000000  0.6820340000000 1.0
C      1  0.5588990000000  0.4173990000000  0.5674300000000 1.0
C      1  0.5003610000000  0.4646920000000  0.5024710000000 1.0
C      1  0.4973020000000  0.4151630000000  0.5075120000000 1.0
END
