TITL C-599890-3321-223 1.16247421945468e-05 125000 -431.915498218049 0 0 73 (C1) n - 1
REM
REM in /home/nfs/bkarasulu/CARBON/AIRSS/Generating-Clusters/TERSOFF/Only-C1/FIRE-HFTN
REM
REM
REM
REM
REM
REM ./C.cell (11c1c37f851c82e70ff6c80c92926a4b)
REM AIRSS Version 0.9.1 bugfix July 2018 build 013d7b7c2542+ Fri, 06 Jul 2018 19:26:36 +0100
REM compiler GCC version 9.2.1 20190827 (Red Hat 9.2.1-1)
REM options -cpp -mtune=generic -march=x86-64 -g -O0 -fpre-include=/usr/include/finclude/math-vector-fortran.h
REM seed -759176757 663093329 731981741 -784944588 301863930 405045790 1401793914 -2046449667 244612253 632025608 -1914618275 -22886263 1004146137 -1569351605 -390884106 2055627233 94435188 -1829180176 1091816730 -968402989 -1431609845 -1742208438 -500180550 -1357289908 -948085486 1343978556 -993683786 1204358857 397310594 1102434988 1631113506 1805706679 -1732318571
REM
CELL 1.54180   50.00000   50.00000   50.00000   90.00000   90.00000   90.00000
LATT -1
SFAC C  
C      1  0.5797770000000  0.4304430000000  0.5202880000000 1.0
C      1  0.5633990000000  0.4873320000000  0.5255730000000 1.0
C      1  0.4741430000000  0.4756400000000  0.4243460000000 1.0
C      1  0.4418360000000  0.5045940000000  0.4529100000000 1.0
C      1  0.4868450000000  0.5199910000000  0.4669430000000 1.0
C      1  0.5340590000000  0.4486400000000  0.4603660000000 1.0
C      1  0.5525110000000  0.5352810000000  0.5133770000000 1.0
C      1  0.4635910000000  0.5031080000000  0.5075630000000 1.0
C      1  0.5412000000000  0.6103330000000  0.4742700000000 1.0
C      1  0.4258260000000  0.4244820000000  0.5054280000000 1.0
C      1  0.5406860000000  0.5450480000000  0.4434320000000 1.0
C      1  0.4589920000000  0.5101400000000  0.5832790000000 1.0
C      1  0.4716350000000  0.4616540000000  0.5589200000000 1.0
C      1  0.5565160000000  0.5614560000000  0.5244110000000 1.0
C      1  0.5470990000000  0.4963330000000  0.4605400000000 1.0
C      1  0.4281360000000  0.4705980000000  0.5267800000000 1.0
C      1  0.5128980000000  0.4387170000000  0.5281340000000 1.0
C      1  0.5311710000000  0.5685110000000  0.4519310000000 1.0
C      1  0.4712120000000  0.4828390000000  0.4910750000000 1.0
C      1  0.5045070000000  0.5399380000000  0.5405910000000 1.0
C      1  0.4862960000000  0.4412090000000  0.4589850000000 1.0
C      1  0.5833650000000  0.4497020000000  0.5015260000000 1.0
C      1  0.4929600000000  0.5601360000000  0.4983440000000 1.0
C      1  0.5121830000000  0.4299040000000  0.4671140000000 1.0
C      1  0.5238640000000  0.5886000000000  0.4703150000000 1.0
C      1  0.5446720000000  0.5654070000000  0.5488220000000 1.0
C      1  0.5405480000000  0.4746700000000  0.5382770000000 1.0
C      1  0.5674470000000  0.4731440000000  0.4997750000000 1.0
C      1  0.5028660000000  0.4542240000000  0.5067320000000 1.0
C      1  0.4438050000000  0.4223100000000  0.4855170000000 1.0
C      1  0.4944390000000  0.4709180000000  0.4049270000000 1.0
C      1  0.5597860000000  0.4297460000000  0.5385560000000 1.0
C      1  0.5190620000000  0.4909080000000  0.5249360000000 1.0
C      1  0.4990410000000  0.6249610000000  0.5277790000000 1.0
C      1  0.4977490000000  0.5878540000000  0.4860480000000 1.0
C      1  0.5015290000000  0.5120060000000  0.5334240000000 1.0
C      1  0.4935750000000  0.4186160000000  0.5343740000000 1.0
C      1  0.5196470000000  0.4621160000000  0.4110340000000 1.0
C      1  0.5091320000000  0.4084420000000  0.4867360000000 1.0
C      1  0.4532550000000  0.5076600000000  0.5535340000000 1.0
C      1  0.4855860000000  0.5563930000000  0.5261630000000 1.0
C      1  0.5190650000000  0.4952780000000  0.5714600000000 1.0
C      1  0.5187050000000  0.4768560000000  0.4994700000000 1.0
C      1  0.4424120000000  0.5360300000000  0.5472590000000 1.0
C      1  0.4741990000000  0.5075050000000  0.5325070000000 1.0
C      1  0.5313350000000  0.5317490000000  0.4938980000000 1.0
C      1  0.5424390000000  0.4731560000000  0.4798060000000 1.0
C      1  0.4750320000000  0.4331250000000  0.5516610000000 1.0
C      1  0.4265320000000  0.4950510000000  0.4761230000000 1.0
C      1  0.4525830000000  0.5532270000000  0.4499260000000 1.0
C      1  0.4491310000000  0.4889710000000  0.4292960000000 1.0
C      1  0.4757750000000  0.4563350000000  0.4988660000000 1.0
C      1  0.4751080000000  0.5935580000000  0.4674230000000 1.0
C      1  0.4459880000000  0.4773140000000  0.5498780000000 1.0
C      1  0.4576170000000  0.5791190000000  0.4533830000000 1.0
C      1  0.4859190000000  0.4907300000000  0.4681740000000 1.0
C      1  0.5351770000000  0.4542050000000  0.4319270000000 1.0
C      1  0.5040610000000  0.5367150000000  0.4846220000000 1.0
C      1  0.5371030000000  0.4465420000000  0.5398130000000 1.0
C      1  0.4205080000000  0.4433140000000  0.5239150000000 1.0
C      1  0.4963920000000  0.4016320000000  0.5106920000000 1.0
C      1  0.5465960000000  0.5192050000000  0.4468170000000 1.0
C      1  0.5581090000000  0.5145290000000  0.5338060000000 1.0
C      1  0.4983840000000  0.6082360000000  0.5078220000000 1.0
C      1  0.5579850000000  0.6298700000000  0.4782370000000 1.0
C      1  0.4585150000000  0.5553480000000  0.5358480000000 1.0
C      1  0.4227450000000  0.4863090000000  0.5021780000000 1.0
C      1  0.4665790000000  0.4370630000000  0.4795560000000 1.0
C      1  0.4858630000000  0.4688860000000  0.4494720000000 1.0
C      1  0.4965160000000  0.4775620000000  0.5694810000000 1.0
C      1  0.5273580000000  0.5443910000000  0.5571940000000 1.0
C      1  0.4600360000000  0.5273150000000  0.4568060000000 1.0
C      1  0.5393830000000  0.5168740000000  0.5596090000000 1.0
END
