TITL C-599896-8500-1043 -0.00208773185013357 125000 -370.38967868441 0 0 60 (C1) n - 1
REM
REM in /home/nfs/bkarasulu/CARBON/AIRSS/Generating-Clusters/TERSOFF/Only-C1/FIRE-HFTN
REM
REM
REM
REM
REM
REM ./C.cell (11c1c37f851c82e70ff6c80c92926a4b)
REM AIRSS Version 0.9.1 bugfix July 2018 build 013d7b7c2542+ Fri, 06 Jul 2018 19:26:36 +0100
REM compiler GCC version 9.2.1 20190827 (Red Hat 9.2.1-1)
REM options -cpp -mtune=generic -march=x86-64 -g -O0 -fpre-include=/usr/include/finclude/math-vector-fortran.h
REM seed -1823448604 -749273817 -1620696764 -625401337 442113257 -405872755 -160564326 1819102782 -2050533728 -1866607896 -1622536951 487361111 111055487 -660644467 -1547259521 432016113 1220100499 951821079 -1668638814 249170863 1230086225 374288595 270436209 -1612094596 1336192948 562684148 -1278600781 -1963645111 -1787545408 -1505079903 1476466688 1213719413 731507251
REM
CELL 1.54180   50.00000   50.00000   50.00000   90.00000   90.00000   90.00000
LATT -1
SFAC C  
C      1  0.4667830000000  0.5440230000000  0.4449790000000 1.0
C      1  0.5612560000000  0.4681890000000  0.4542340000000 1.0
C      1  0.4893690000000  0.4023440000000  0.4675500000000 1.0
C      1  0.4900870000000  0.5407510000000  0.4315080000000 1.0
C      1  0.5316360000000  0.4300220000000  0.4499730000000 1.0
C      1  0.5378950000000  0.4567870000000  0.4436630000000 1.0
C      1  0.5195830000000  0.4927140000000  0.5886680000000 1.0
C      1  0.5220130000000  0.5527060000000  0.5603690000000 1.0
C      1  0.4909940000000  0.4585340000000  0.4295320000000 1.0
C      1  0.5322870000000  0.4794170000000  0.5203590000000 1.0
C      1  0.5882730000000  0.4988680000000  0.5195900000000 1.0
C      1  0.4616040000000  0.5102610000000  0.5191310000000 1.0
C      1  0.4463560000000  0.5049790000000  0.4658250000000 1.0
C      1  0.4498640000000  0.5510760000000  0.4911030000000 1.0
C      1  0.5622240000000  0.5804530000000  0.5224670000000 1.0
C      1  0.4804640000000  0.4917580000000  0.5094650000000 1.0
C      1  0.5164480000000  0.4724990000000  0.4328950000000 1.0
C      1  0.4752600000000  0.5603790000000  0.5029270000000 1.0
C      1  0.5005600000000  0.5606340000000  0.5467770000000 1.0
C      1  0.4349040000000  0.5030070000000  0.5106030000000 1.0
C      1  0.5143540000000  0.4117590000000  0.4587900000000 1.0
C      1  0.4684730000000  0.4636470000000  0.4466260000000 1.0
C      1  0.4681950000000  0.4910760000000  0.4544260000000 1.0
C      1  0.5363630000000  0.5124940000000  0.5822360000000 1.0
C      1  0.4272640000000  0.5525450000000  0.5092940000000 1.0
C      1  0.4681360000000  0.4206160000000  0.4697650000000 1.0
C      1  0.5437330000000  0.5834320000000  0.5033750000000 1.0
C      1  0.5665490000000  0.5368480000000  0.5502200000000 1.0
C      1  0.4480120000000  0.4783810000000  0.5585890000000 1.0
C      1  0.5412380000000  0.5215890000000  0.4921410000000 1.0
C      1  0.4358130000000  0.5025520000000  0.5634530000000 1.0
C      1  0.4590280000000  0.4469790000000  0.4682050000000 1.0
C      1  0.5177240000000  0.4635810000000  0.5366160000000 1.0
C      1  0.4640250000000  0.5306580000000  0.5383880000000 1.0
C      1  0.5268440000000  0.4991740000000  0.5009900000000 1.0
C      1  0.4684820000000  0.4639350000000  0.5438800000000 1.0
C      1  0.4857230000000  0.3754480000000  0.4739270000000 1.0
C      1  0.5152110000000  0.5270880000000  0.4342120000000 1.0
C      1  0.4823100000000  0.3503100000000  0.4798970000000 1.0
C      1  0.4676800000000  0.4654430000000  0.5144590000000 1.0
C      1  0.4981270000000  0.5699920000000  0.4895920000000 1.0
C      1  0.5719170000000  0.5625190000000  0.5397710000000 1.0
C      1  0.5373740000000  0.5444460000000  0.4758740000000 1.0
C      1  0.4349940000000  0.4879690000000  0.4866180000000 1.0
C      1  0.4211670000000  0.5448760000000  0.5351870000000 1.0
C      1  0.5262430000000  0.5678350000000  0.4879370000000 1.0
C      1  0.4792160000000  0.5529120000000  0.5306140000000 1.0
C      1  0.5803830000000  0.5149450000000  0.5393850000000 1.0
C      1  0.5425970000000  0.5341820000000  0.5655880000000 1.0
C      1  0.5781620000000  0.4767440000000  0.4730060000000 1.0
C      1  0.4955710000000  0.4637660000000  0.5545790000000 1.0
C      1  0.5126960000000  0.4996430000000  0.4419560000000 1.0
C      1  0.4495310000000  0.4619870000000  0.4911900000000 1.0
C      1  0.5020210000000  0.4744330000000  0.5798840000000 1.0
C      1  0.4507670000000  0.5343160000000  0.4668650000000 1.0
C      1  0.5876550000000  0.4863590000000  0.4960180000000 1.0
C      1  0.5004490000000  0.4973030000000  0.4908670000000 1.0
C      1  0.4384750000000  0.5290130000000  0.5524010000000 1.0
C      1  0.5356250000000  0.5410980000000  0.4478730000000 1.0
C      1  0.4940140000000  0.4987070000000  0.4636870000000 1.0
END
