TITL C-599895-9959-330 -0.00247205838941364 125000 -285.550651062248 0 0 48 (C1) n - 1
REM
REM in /home/nfs/bkarasulu/CARBON/AIRSS/Generating-Clusters/TERSOFF/Only-C1/FIRE-HFTN
REM
REM
REM
REM
REM
REM ./C.cell (11c1c37f851c82e70ff6c80c92926a4b)
REM AIRSS Version 0.9.1 bugfix July 2018 build 013d7b7c2542+ Fri, 06 Jul 2018 19:26:36 +0100
REM compiler GCC version 9.2.1 20190827 (Red Hat 9.2.1-1)
REM options -cpp -mtune=generic -march=x86-64 -g -O0 -fpre-include=/usr/include/finclude/math-vector-fortran.h
REM seed 183815872 -872894741 310233224 -51046540 -607370368 231723131 -1738923284 -798874557 -1902931680 1306923098 -1734258195 -1523230753 -297534388 1572192387 -276795827 -642682968 -1527885120 1165280009 -128147972 683915737 1510827233 -543099768 -1591123206 1992663765 2028827089 -117664050 -191204175 1969545081 1611838937 1290055412 -338303220 -1903938050 -1636287353
REM
CELL 1.54180   50.00000   50.00000   50.00000   90.00000   90.00000   90.00000
LATT -1
SFAC C  
C      1  0.4642760000000  0.4177080000000  0.4535490000000 1.0
C      1  0.4313420000000  0.5136720000000  0.4635440000000 1.0
C      1  0.5402650000000  0.5355650000000  0.5414980000000 1.0
C      1  0.5511140000000  0.5090030000000  0.5472850000000 1.0
C      1  0.5037060000000  0.4552380000000  0.5419090000000 1.0
C      1  0.4915040000000  0.4653740000000  0.4927140000000 1.0
C      1  0.5269620000000  0.5265880000000  0.4564790000000 1.0
C      1  0.4727190000000  0.4847360000000  0.4513820000000 1.0
C      1  0.5168510000000  0.4763070000000  0.4877500000000 1.0
C      1  0.5700420000000  0.5019690000000  0.5272040000000 1.0
C      1  0.4856390000000  0.5492360000000  0.5123650000000 1.0
C      1  0.4491580000000  0.4997280000000  0.4495360000000 1.0
C      1  0.4479360000000  0.3959800000000  0.4507950000000 1.0
C      1  0.4303540000000  0.4395060000000  0.4789180000000 1.0
C      1  0.5066150000000  0.5119540000000  0.5870790000000 1.0
C      1  0.4963450000000  0.4932840000000  0.4386290000000 1.0
C      1  0.4733900000000  0.4636820000000  0.4708900000000 1.0
C      1  0.5233140000000  0.5004200000000  0.4442890000000 1.0
C      1  0.5539110000000  0.5485610000000  0.4910730000000 1.0
C      1  0.4143350000000  0.4175720000000  0.4759210000000 1.0
C      1  0.5588390000000  0.4992290000000  0.5027280000000 1.0
C      1  0.4340210000000  0.5311580000000  0.5129650000000 1.0
C      1  0.4567010000000  0.4412680000000  0.4679030000000 1.0
C      1  0.4999360000000  0.5616040000000  0.5343710000000 1.0
C      1  0.5068450000000  0.5367370000000  0.5767600000000 1.0
C      1  0.5034420000000  0.5896910000000  0.5310450000000 1.0
C      1  0.5481260000000  0.4485270000000  0.5193500000000 1.0
C      1  0.5731020000000  0.5396850000000  0.4473220000000 1.0
C      1  0.5503380000000  0.5481990000000  0.5177460000000 1.0
C      1  0.5136010000000  0.4877910000000  0.5751080000000 1.0
C      1  0.4165040000000  0.5329270000000  0.5338250000000 1.0
C      1  0.4613840000000  0.5361480000000  0.5164330000000 1.0
C      1  0.5327170000000  0.4615180000000  0.5394590000000 1.0
C      1  0.5158960000000  0.5461610000000  0.5519710000000 1.0
C      1  0.5507150000000  0.4458250000000  0.4921770000000 1.0
C      1  0.5041870000000  0.5403590000000  0.4665120000000 1.0
C      1  0.4254290000000  0.5242660000000  0.4872050000000 1.0
C      1  0.4938750000000  0.5577710000000  0.4859090000000 1.0
C      1  0.4954390000000  0.4671710000000  0.5667280000000 1.0
C      1  0.5363560000000  0.4861240000000  0.5566570000000 1.0
C      1  0.5405540000000  0.4775360000000  0.4490860000000 1.0
C      1  0.5368510000000  0.4610180000000  0.4723020000000 1.0
C      1  0.4229610000000  0.3957460000000  0.4619050000000 1.0
C      1  0.5519560000000  0.5382370000000  0.4645860000000 1.0
C      1  0.4977830000000  0.5860010000000  0.4841750000000 1.0
C      1  0.5025000000000  0.6011460000000  0.5063340000000 1.0
C      1  0.5319690000000  0.4976930000000  0.4981410000000 1.0
C      1  0.4881950000000  0.4543800000000  0.5184890000000 1.0
END
