TITL C-599891-72-242 1.38921344895597 125000 -1159.99367517621 0 0 190 (C1) n - 1
REM
REM in /home/nfs/bkarasulu/CARBON/AIRSS/Generating-Clusters/TERSOFF/Only-C1/FIRE-HFTN
REM
REM
REM
REM
REM
REM ./C.cell (11c1c37f851c82e70ff6c80c92926a4b)
REM AIRSS Version 0.9.1 bugfix July 2018 build 013d7b7c2542+ Fri, 06 Jul 2018 19:26:36 +0100
REM compiler GCC version 9.2.1 20190827 (Red Hat 9.2.1-1)
REM options -cpp -mtune=generic -march=x86-64 -g -O0 -fpre-include=/usr/include/finclude/math-vector-fortran.h
REM seed -1292954277 1509983641 -1339729686 -66917455 -1745895454 -1047480543 415591367 755113193 935666324 553345243 -1002752600 -1625325903 -993818937 -40166312 -1982899883 -1872998514 1651902551 1544647338 1555736009 1109422893 -1461527145 -1088309710 -1482732618 1989856167 735867394 96809097 -1677463441 1044835177 -1488266516 -670321793 -649837498 251620991 8188391
REM
CELL 1.54180   50.00000   50.00000   50.00000   90.00000   90.00000   90.00000
LATT -1
SFAC C  
C      1  0.3933290000000  0.5142300000000  0.4736100000000 1.0
C      1  0.6333810000000  0.5794630000000  0.4917060000000 1.0
C      1  0.5135720000000  0.5454500000000  0.5044380000000 1.0
C      1  0.4740510000000  0.5184210000000  0.5047130000000 1.0
C      1  0.4671990000000  0.4195910000000  0.4270340000000 1.0
C      1  0.4370410000000  0.5301450000000  0.5408570000000 1.0
C      1  0.3849000000000  0.5139680000000  0.5289000000000 1.0
C      1  0.5801920000000  0.4255710000000  0.4524950000000 1.0
C      1  0.4788140000000  0.5044410000000  0.5516780000000 1.0
C      1  0.5979010000000  0.4403970000000  0.4354960000000 1.0
C      1  0.5378230000000  0.4602140000000  0.4715790000000 1.0
C      1  0.5071950000000  0.5030360000000  0.3699240000000 1.0
C      1  0.4244540000000  0.5664610000000  0.4991030000000 1.0
C      1  0.4824460000000  0.4500320000000  0.5660510000000 1.0
C      1  0.5270220000000  0.5511670000000  0.5588950000000 1.0
C      1  0.5640060000000  0.4545850000000  0.5779670000000 1.0
C      1  0.5440990000000  0.4815400000000  0.4082920000000 1.0
C      1  0.4071690000000  0.4888480000000  0.5874820000000 1.0
C      1  0.6310380000000  0.4154520000000  0.5407030000000 1.0
C      1  0.4981580000000  0.4087000000000  0.5404060000000 1.0
C      1  0.4076540000000  0.4545750000000  0.5241580000000 1.0
C      1  0.4560470000000  0.5972300000000  0.4575000000000 1.0
C      1  0.3781130000000  0.4731390000000  0.4926170000000 1.0
C      1  0.5343020000000  0.5876680000000  0.4152180000000 1.0
C      1  0.5778740000000  0.4874730000000  0.4709630000000 1.0
C      1  0.5334590000000  0.3978640000000  0.4911450000000 1.0
C      1  0.6074000000000  0.4396770000000  0.4988480000000 1.0
C      1  0.5401100000000  0.5276160000000  0.6000830000000 1.0
C      1  0.6178150000000  0.4258630000000  0.5207990000000 1.0
C      1  0.4197360000000  0.4768880000000  0.5082890000000 1.0
C      1  0.4105040000000  0.4262340000000  0.5178000000000 1.0
C      1  0.5207650000000  0.5749050000000  0.5420680000000 1.0
C      1  0.4646550000000  0.5267090000000  0.3833750000000 1.0
C      1  0.4939080000000  0.4698500000000  0.6078450000000 1.0
C      1  0.6255630000000  0.4692790000000  0.4663940000000 1.0
C      1  0.6106770000000  0.5216200000000  0.4608440000000 1.0
C      1  0.5565290000000  0.5865140000000  0.4307680000000 1.0
C      1  0.4450090000000  0.5111010000000  0.6089160000000 1.0
C      1  0.4007490000000  0.4684000000000  0.4298530000000 1.0
C      1  0.5325610000000  0.5608010000000  0.4907260000000 1.0
C      1  0.4501740000000  0.5770560000000  0.6391130000000 1.0
C      1  0.4153840000000  0.4847480000000  0.4141400000000 1.0
C      1  0.4475790000000  0.3854940000000  0.5721780000000 1.0
C      1  0.4451090000000  0.4630640000000  0.5947100000000 1.0
C      1  0.5622330000000  0.4160420000000  0.5341950000000 1.0
C      1  0.5212530000000  0.5012380000000  0.5069340000000 1.0
C      1  0.3698000000000  0.4883590000000  0.5178560000000 1.0
C      1  0.4486460000000  0.5216390000000  0.4285080000000 1.0
C      1  0.5969330000000  0.5601690000000  0.5198780000000 1.0
C      1  0.4243060000000  0.5570870000000  0.6020790000000 1.0
C      1  0.4295680000000  0.4049820000000  0.5285130000000 1.0
C      1  0.5147430000000  0.4312880000000  0.5341100000000 1.0
C      1  0.4855280000000  0.5447820000000  0.5029940000000 1.0
C      1  0.5910120000000  0.4260320000000  0.4793870000000 1.0
C      1  0.4269520000000  0.5302420000000  0.5948850000000 1.0
C      1  0.4827400000000  0.4526520000000  0.3869040000000 1.0
C      1  0.5540730000000  0.4612900000000  0.5349230000000 1.0
C      1  0.3924840000000  0.4607070000000  0.5473820000000 1.0
C      1  0.4344640000000  0.5037620000000  0.4105570000000 1.0
C      1  0.6591870000000  0.5846120000000  0.4887190000000 1.0
C      1  0.4756370000000  0.5822970000000  0.4759930000000 1.0
C      1  0.5234270000000  0.5251500000000  0.5195200000000 1.0
C      1  0.5493350000000  0.4537480000000  0.4072240000000 1.0
C      1  0.3884970000000  0.5619200000000  0.4688350000000 1.0
C      1  0.6146010000000  0.4887780000000  0.5123290000000 1.0
C      1  0.4919180000000  0.5085100000000  0.4251360000000 1.0
C      1  0.4291590000000  0.3923450000000  0.5538090000000 1.0
C      1  0.5836760000000  0.4757000000000  0.5829370000000 1.0
C      1  0.5616500000000  0.5413620000000  0.4419620000000 1.0
C      1  0.4750670000000  0.4772800000000  0.3981380000000 1.0
C      1  0.4846270000000  0.3950560000000  0.5183540000000 1.0
C      1  0.4007410000000  0.4240700000000  0.4907630000000 1.0
C      1  0.5182640000000  0.5228530000000  0.4594070000000 1.0
C      1  0.5900870000000  0.5731340000000  0.4686200000000 1.0
C      1  0.5681950000000  0.5672670000000  0.5216980000000 1.0
C      1  0.5952840000000  0.4895260000000  0.5339090000000 1.0
C      1  0.5227340000000  0.5767750000000  0.4701570000000 1.0
C      1  0.5019930000000  0.4978010000000  0.5634290000000 1.0
C      1  0.5158550000000  0.5013110000000  0.4783750000000 1.0
C      1  0.4215240000000  0.4286300000000  0.4487990000000 1.0
C      1  0.4660630000000  0.4356180000000  0.4843140000000 1.0
C      1  0.4789550000000  0.5008650000000  0.3801910000000 1.0
C      1  0.4673090000000  0.5584860000000  0.6481560000000 1.0
C      1  0.5877870000000  0.5133560000000  0.4746430000000 1.0
C      1  0.5147480000000  0.5151800000000  0.4113770000000 1.0
C      1  0.4951400000000  0.4126670000000  0.4288590000000 1.0
C      1  0.4592410000000  0.4536210000000  0.4606580000000 1.0
C      1  0.5114870000000  0.5274130000000  0.3556310000000 1.0
C      1  0.4641770000000  0.5054320000000  0.4800730000000 1.0
C      1  0.5140840000000  0.4213930000000  0.4096160000000 1.0
C      1  0.3818720000000  0.5384940000000  0.4859690000000 1.0
C      1  0.6519660000000  0.5367540000000  0.4320670000000 1.0
C      1  0.4639100000000  0.5911510000000  0.4280320000000 1.0
C      1  0.5230910000000  0.5732670000000  0.6020560000000 1.0
C      1  0.5581270000000  0.5537650000000  0.4983630000000 1.0
C      1  0.4587650000000  0.5104910000000  0.5303570000000 1.0
C      1  0.6313660000000  0.5287600000000  0.4458930000000 1.0
C      1  0.5542020000000  0.5082000000000  0.5466660000000 1.0
C      1  0.5058190000000  0.4096720000000  0.4546120000000 1.0
C      1  0.4675770000000  0.4799350000000  0.4550290000000 1.0
C      1  0.4227810000000  0.5685660000000  0.4317990000000 1.0
C      1  0.3619530000000  0.5580830000000  0.5266470000000 1.0
C      1  0.5649790000000  0.4403590000000  0.5513790000000 1.0
C      1  0.4739370000000  0.4501920000000  0.5098010000000 1.0
C      1  0.4782200000000  0.4837420000000  0.4271530000000 1.0
C      1  0.5262850000000  0.4978620000000  0.3917440000000 1.0
C      1  0.5479870000000  0.5850340000000  0.5338960000000 1.0
C      1  0.5115470000000  0.5803810000000  0.4026060000000 1.0
C      1  0.3994960000000  0.4483930000000  0.4498470000000 1.0
C      1  0.5672400000000  0.5201660000000  0.5939440000000 1.0
C      1  0.5711520000000  0.5678730000000  0.4468010000000 1.0
C      1  0.5406940000000  0.4290850000000  0.4188620000000 1.0
C      1  0.6171080000000  0.4580740000000  0.4431510000000 1.0
C      1  0.5006510000000  0.4307760000000  0.5802830000000 1.0
C      1  0.6172520000000  0.4666720000000  0.4936330000000 1.0
C      1  0.5020130000000  0.4339650000000  0.3874550000000 1.0
C      1  0.5052070000000  0.5526120000000  0.3635300000000 1.0
C      1  0.5494320000000  0.4173670000000  0.5067560000000 1.0
C      1  0.7105420000000  0.5923650000000  0.4805600000000 1.0
C      1  0.4735820000000  0.3892290000000  0.5778590000000 1.0
C      1  0.5717230000000  0.5310780000000  0.4891460000000 1.0
C      1  0.5529140000000  0.4175840000000  0.4439650000000 1.0
C      1  0.5079690000000  0.3868620000000  0.5015360000000 1.0
C      1  0.3859240000000  0.4473050000000  0.4776380000000 1.0
C      1  0.5298600000000  0.5513130000000  0.5871860000000 1.0
C      1  0.4793760000000  0.5736400000000  0.5042670000000 1.0
C      1  0.4416660000000  0.4430880000000  0.5505000000000 1.0
C      1  0.4907670000000  0.4216840000000  0.4745140000000 1.0
C      1  0.4738970000000  0.5335960000000  0.6409830000000 1.0
C      1  0.3987980000000  0.5521640000000  0.4417640000000 1.0
C      1  0.6066490000000  0.5708480000000  0.4931770000000 1.0
C      1  0.4562650000000  0.6266540000000  0.4632760000000 1.0
C      1  0.4761330000000  0.5296240000000  0.4350060000000 1.0
C      1  0.6085630000000  0.5348690000000  0.5318220000000 1.0
C      1  0.4475590000000  0.4124530000000  0.4873680000000 1.0
C      1  0.4970880000000  0.5694930000000  0.4607560000000 1.0
C      1  0.5266730000000  0.4570680000000  0.5315900000000 1.0
C      1  0.5115500000000  0.4720380000000  0.4746660000000 1.0
C      1  0.4092820000000  0.5199670000000  0.5477140000000 1.0
C      1  0.4665640000000  0.5545890000000  0.3936780000000 1.0
C      1  0.4934430000000  0.5654910000000  0.3863820000000 1.0
C      1  0.5331460000000  0.4044070000000  0.4619510000000 1.0
C      1  0.5427040000000  0.5205310000000  0.4433540000000 1.0
C      1  0.5240790000000  0.4850010000000  0.5724450000000 1.0
C      1  0.5206990000000  0.5116160000000  0.6140000000000 1.0
C      1  0.5992900000000  0.5134270000000  0.5527480000000 1.0
C      1  0.4042650000000  0.5242430000000  0.4485390000000 1.0
C      1  0.4322410000000  0.5760640000000  0.6191620000000 1.0
C      1  0.5562890000000  0.4766220000000  0.4569480000000 1.0
C      1  0.4040250000000  0.4648300000000  0.5722380000000 1.0
C      1  0.5368740000000  0.4624110000000  0.5858750000000 1.0
C      1  0.4955640000000  0.5421650000000  0.4525240000000 1.0
C      1  0.4543000000000  0.3993520000000  0.5123780000000 1.0
C      1  0.5670860000000  0.4858670000000  0.5348720000000 1.0
C      1  0.4289950000000  0.4503860000000  0.5746560000000 1.0
C      1  0.5356120000000  0.5284610000000  0.5439790000000 1.0
C      1  0.4678900000000  0.4480470000000  0.5402160000000 1.0
C      1  0.4221480000000  0.4143240000000  0.4738400000000 1.0
C      1  0.4945210000000  0.4054360000000  0.5686020000000 1.0
C      1  0.6850790000000  0.5886110000000  0.4847060000000 1.0
C      1  0.5703540000000  0.3916140000000  0.5439680000000 1.0
C      1  0.4692420000000  0.5724580000000  0.5501230000000 1.0
C      1  0.5540690000000  0.6120690000000  0.5380030000000 1.0
C      1  0.4488250000000  0.5696050000000  0.4138720000000 1.0
C      1  0.3502560000000  0.5778620000000  0.5389370000000 1.0
C      1  0.4912340000000  0.5797930000000  0.5322060000000 1.0
C      1  0.5478070000000  0.4420540000000  0.4912210000000 1.0
C      1  0.5600630000000  0.6376180000000  0.5416170000000 1.0
C      1  0.4104040000000  0.5789890000000  0.4781350000000 1.0
C      1  0.4721890000000  0.4642400000000  0.5893470000000 1.0
C      1  0.5866640000000  0.5049040000000  0.5789880000000 1.0
C      1  0.4084850000000  0.5156060000000  0.5766280000000 1.0
C      1  0.6239890000000  0.5168600000000  0.5128780000000 1.0
C      1  0.4711390000000  0.5131120000000  0.6216600000000 1.0
C      1  0.5128330000000  0.4770870000000  0.5188850000000 1.0
C      1  0.5146080000000  0.4492720000000  0.5987540000000 1.0
C      1  0.4422010000000  0.4879760000000  0.5202220000000 1.0
C      1  0.4276600000000  0.5861820000000  0.4563030000000 1.0
C      1  0.4351420000000  0.5422140000000  0.4941870000000 1.0
C      1  0.4021590000000  0.4894850000000  0.4872620000000 1.0
C      1  0.4318610000000  0.5221920000000  0.4503860000000 1.0
C      1  0.4315170000000  0.4859090000000  0.6047810000000 1.0
C      1  0.5659870000000  0.6627540000000  0.5451770000000 1.0
C      1  0.4422700000000  0.5225650000000  0.4753420000000 1.0
C      1  0.4955890000000  0.4974860000000  0.6163500000000 1.0
C      1  0.4958340000000  0.4656370000000  0.4993050000000 1.0
C      1  0.5487900000000  0.4931750000000  0.4347620000000 1.0
C      1  0.3759010000000  0.5376700000000  0.5137830000000 1.0
C      1  0.4482110000000  0.5552720000000  0.5495070000000 1.0
C      1  0.4478420000000  0.4359380000000  0.4402850000000 1.0
END
