TITL C-599892-9790-1186 2.38194436177702 125000 -267.542208490641 0 0 46 (C1) n - 1
REM
REM in /home/nfs/bkarasulu/CARBON/AIRSS/Generating-Clusters/TERSOFF/Only-C1/FIRE-HFTN
REM
REM
REM
REM
REM
REM ./C.cell (11c1c37f851c82e70ff6c80c92926a4b)
REM AIRSS Version 0.9.1 bugfix July 2018 build 013d7b7c2542+ Fri, 06 Jul 2018 19:26:36 +0100
REM compiler GCC version 9.2.1 20190827 (Red Hat 9.2.1-1)
REM options -cpp -mtune=generic -march=x86-64 -g -O0 -fpre-include=/usr/include/finclude/math-vector-fortran.h
REM seed -479227331 -101014583 -437253452 -1247502060 1704413550 -752188209 -2088238120 636692962 935586369 -597031693 -717229038 -863151399 1943233237 920044047 1067517392 1773073000 -939447608 975317027 -1936037815 1245997100 -1007504693 -1500510691 1743455143 1680815282 -1810238239 -1445953700 1937981152 -281738974 -1075179945 -657364505 -705529543 1521107717 -385126003
REM
CELL 1.54180   50.00000   50.00000   50.00000   90.00000   90.00000   90.00000
LATT -1
SFAC C  
C      1  0.4984710000000  0.6345720000000  0.3919960000000 1.0
C      1  0.5102220000000  0.4759860000000  0.5703530000000 1.0
C      1  0.5150030000000  0.5128860000000  0.4194160000000 1.0
C      1  0.4130520000000  0.4122930000000  0.4682800000000 1.0
C      1  0.5483540000000  0.5843810000000  0.5226540000000 1.0
C      1  0.5722190000000  0.5822690000000  0.4115710000000 1.0
C      1  0.5246670000000  0.5919460000000  0.4121520000000 1.0
C      1  0.5407140000000  0.5042510000000  0.4281600000000 1.0
C      1  0.4582760000000  0.4598340000000  0.4348600000000 1.0
C      1  0.4851460000000  0.4569010000000  0.6084870000000 1.0
C      1  0.5130440000000  0.5239240000000  0.5932240000000 1.0
C      1  0.5428450000000  0.4850550000000  0.4782930000000 1.0
C      1  0.5007440000000  0.5039400000000  0.6068280000000 1.0
C      1  0.5107700000000  0.5399610000000  0.4137010000000 1.0
C      1  0.5245620000000  0.5221940000000  0.5673210000000 1.0
C      1  0.4249110000000  0.4239380000000  0.4920870000000 1.0
C      1  0.5505020000000  0.5951690000000  0.4236970000000 1.0
C      1  0.4740680000000  0.4099990000000  0.6045090000000 1.0
C      1  0.4939790000000  0.4945810000000  0.4178690000000 1.0
C      1  0.4762210000000  0.3873920000000  0.5917220000000 1.0
C      1  0.5431640000000  0.4905310000000  0.4523640000000 1.0
C      1  0.4372190000000  0.4386420000000  0.6593720000000 1.0
C      1  0.4235180000000  0.4237110000000  0.4452640000000 1.0
C      1  0.5534850000000  0.6070860000000  0.4756010000000 1.0
C      1  0.5635210000000  0.5125010000000  0.4141900000000 1.0
C      1  0.4710320000000  0.4345550000000  0.6174820000000 1.0
C      1  0.4038190000000  0.4089840000000  0.5953960000000 1.0
C      1  0.5827240000000  0.5587130000000  0.4049270000000 1.0
C      1  0.4981710000000  0.4778750000000  0.5959590000000 1.0
C      1  0.4432880000000  0.4439680000000  0.4516770000000 1.0
C      1  0.5338180000000  0.4907360000000  0.5299470000000 1.0
C      1  0.5531450000000  0.6064910000000  0.4490820000000 1.0
C      1  0.5109990000000  0.6138490000000  0.4016280000000 1.0
C      1  0.5356740000000  0.5442920000000  0.5546100000000 1.0
C      1  0.4751490000000  0.4768010000000  0.4234810000000 1.0
C      1  0.4099480000000  0.4117180000000  0.5702040000000 1.0
C      1  0.4435450000000  0.4434710000000  0.4809060000000 1.0
C      1  0.5135180000000  0.5662590000000  0.4114940000000 1.0
C      1  0.5232870000000  0.4961090000000  0.5551220000000 1.0
C      1  0.5430830000000  0.5654060000000  0.5404110000000 1.0
C      1  0.5791920000000  0.5323320000000  0.4058700000000 1.0
C      1  0.4199690000000  0.4182600000000  0.5185900000000 1.0
C      1  0.4154280000000  0.4145720000000  0.5444270000000 1.0
C      1  0.5398840000000  0.4858610000000  0.5046230000000 1.0
C      1  0.5518350000000  0.5990330000000  0.5008230000000 1.0
C      1  0.4538170000000  0.4367700000000  0.6393670000000 1.0
END
