TITL C-599895-9959-1097 5.85956266578709 125000 -1102.65278235712 0 0 178 (C1) n - 1
REM
REM in /home/nfs/bkarasulu/CARBON/AIRSS/Generating-Clusters/TERSOFF/Only-C1/FIRE-HFTN
REM
REM
REM
REM
REM
REM ./C.cell (11c1c37f851c82e70ff6c80c92926a4b)
REM AIRSS Version 0.9.1 bugfix July 2018 build 013d7b7c2542+ Fri, 06 Jul 2018 19:26:36 +0100
REM compiler GCC version 9.2.1 20190827 (Red Hat 9.2.1-1)
REM options -cpp -mtune=generic -march=x86-64 -g -O0 -fpre-include=/usr/include/finclude/math-vector-fortran.h
REM seed 1398228486 -609234697 -349455085 1867312156 -1935643931 208293264 -1000699628 -613189143 -1567606476 1227198803 29236103 343792504 414446481 -1684647974 -296755465 -2108504867 1609879238 -1993900968 -1229475014 -96186799 -250172267 2053885375 1139757535 964020778 31276737 2102591775 -874702425 -431996735 730622595 1511221684 1331745297 1091561427 -996362469
REM
CELL 1.54180   50.00000   50.00000   50.00000   90.00000   90.00000   90.00000
LATT -1
SFAC C  
C      1  0.5659510000000  0.5184920000000  0.5167030000000 1.0
C      1  0.5442350000000  0.3779500000000  0.5170620000000 1.0
C      1  0.4973280000000  0.5228630000000  0.6168420000000 1.0
C      1  0.5003900000000  0.5336950000000  0.3990100000000 1.0
C      1  0.5418690000000  0.5107130000000  0.5040360000000 1.0
C      1  0.4636670000000  0.5094350000000  0.4417810000000 1.0
C      1  0.4418250000000  0.5558950000000  0.5001430000000 1.0
C      1  0.4728620000000  0.5584390000000  0.5552430000000 1.0
C      1  0.6117600000000  0.4865720000000  0.4838080000000 1.0
C      1  0.4848220000000  0.4382250000000  0.4714100000000 1.0
C      1  0.4004020000000  0.4052870000000  0.4671310000000 1.0
C      1  0.5736060000000  0.5035130000000  0.5389150000000 1.0
C      1  0.5516280000000  0.6260750000000  0.5211590000000 1.0
C      1  0.5610440000000  0.4330870000000  0.5525410000000 1.0
C      1  0.5272240000000  0.5365790000000  0.5698330000000 1.0
C      1  0.4620990000000  0.4325630000000  0.4560540000000 1.0
C      1  0.6182290000000  0.4473840000000  0.5487250000000 1.0
C      1  0.4781270000000  0.5102270000000  0.5130770000000 1.0
C      1  0.6415050000000  0.4744940000000  0.5212630000000 1.0
C      1  0.4637710000000  0.5838510000000  0.5670860000000 1.0
C      1  0.5661940000000  0.4320230000000  0.4981280000000 1.0
C      1  0.4533880000000  0.5763840000000  0.5149690000000 1.0
C      1  0.5185700000000  0.5244960000000  0.4936660000000 1.0
C      1  0.4690200000000  0.4196330000000  0.5255000000000 1.0
C      1  0.5726320000000  0.4754000000000  0.4243860000000 1.0
C      1  0.4525580000000  0.5514300000000  0.4123500000000 1.0
C      1  0.5446850000000  0.5079590000000  0.3955440000000 1.0
C      1  0.4864200000000  0.5504220000000  0.4640470000000 1.0
C      1  0.4000840000000  0.5704780000000  0.4907270000000 1.0
C      1  0.5092700000000  0.6034500000000  0.4616050000000 1.0
C      1  0.3982150000000  0.4473520000000  0.5464210000000 1.0
C      1  0.3805400000000  0.4971160000000  0.4918720000000 1.0
C      1  0.6111890000000  0.5674290000000  0.4895560000000 1.0
C      1  0.3745260000000  0.4389200000000  0.5379490000000 1.0
C      1  0.4469010000000  0.4838390000000  0.4027620000000 1.0
C      1  0.5329720000000  0.4114500000000  0.4281900000000 1.0
C      1  0.4764620000000  0.5880230000000  0.5044010000000 1.0
C      1  0.4474600000000  0.5598900000000  0.6030380000000 1.0
C      1  0.5158610000000  0.5736190000000  0.5244290000000 1.0
C      1  0.6154120000000  0.4715560000000  0.5078620000000 1.0
C      1  0.6423200000000  0.4603270000000  0.5449730000000 1.0
C      1  0.6075400000000  0.4736690000000  0.4590380000000 1.0
C      1  0.4377990000000  0.5315460000000  0.5131960000000 1.0
C      1  0.5471070000000  0.4870840000000  0.4654040000000 1.0
C      1  0.4265610000000  0.4487040000000  0.4276460000000 1.0
C      1  0.3805840000000  0.4752490000000  0.4754210000000 1.0
C      1  0.5712360000000  0.5976300000000  0.4837460000000 1.0
C      1  0.5761600000000  0.5383050000000  0.5001510000000 1.0
C      1  0.5049090000000  0.5981630000000  0.5117320000000 1.0
C      1  0.5371090000000  0.4343330000000  0.4478590000000 1.0
C      1  0.4371140000000  0.5753930000000  0.5786100000000 1.0
C      1  0.4654880000000  0.6113800000000  0.5593970000000 1.0
C      1  0.5299560000000  0.4845880000000  0.3880060000000 1.0
C      1  0.3629240000000  0.4235790000000  0.4917690000000 1.0
C      1  0.4956300000000  0.6269240000000  0.5219280000000 1.0
C      1  0.5562170000000  0.4310430000000  0.4724140000000 1.0
C      1  0.5399570000000  0.4139720000000  0.5577030000000 1.0
C      1  0.4976850000000  0.3895910000000  0.5607990000000 1.0
C      1  0.4526860000000  0.5360180000000  0.5583800000000 1.0
C      1  0.5893640000000  0.5853490000000  0.5290480000000 1.0
C      1  0.5596000000000  0.5737510000000  0.4699660000000 1.0
C      1  0.4205710000000  0.5262470000000  0.4471060000000 1.0
C      1  0.4677460000000  0.3681030000000  0.5229150000000 1.0
C      1  0.4412740000000  0.5688680000000  0.4550740000000 1.0
C      1  0.4504780000000  0.5076770000000  0.5091020000000 1.0
C      1  0.5442780000000  0.6222150000000  0.5470260000000 1.0
C      1  0.4798990000000  0.6016010000000  0.4627790000000 1.0
C      1  0.4943690000000  0.5061630000000  0.4895860000000 1.0
C      1  0.5623470000000  0.4481840000000  0.5776880000000 1.0
C      1  0.5009090000000  0.4777340000000  0.4866540000000 1.0
C      1  0.5497390000000  0.6143760000000  0.4950090000000 1.0
C      1  0.4345980000000  0.5495360000000  0.4349170000000 1.0
C      1  0.4948630000000  0.3786380000000  0.4633240000000 1.0
C      1  0.5454930000000  0.4853060000000  0.4923560000000 1.0
C      1  0.5587040000000  0.4015300000000  0.4205250000000 1.0
C      1  0.5967360000000  0.5617740000000  0.5714570000000 1.0
C      1  0.5302370000000  0.5346050000000  0.4024310000000 1.0
C      1  0.5761510000000  0.5476360000000  0.5813920000000 1.0
C      1  0.6142510000000  0.5150820000000  0.4844400000000 1.0
C      1  0.5135200000000  0.3845040000000  0.4814430000000 1.0
C      1  0.4688660000000  0.5211000000000  0.6253240000000 1.0
C      1  0.5101950000000  0.5490750000000  0.4805610000000 1.0
C      1  0.4356550000000  0.5934960000000  0.5310030000000 1.0
C      1  0.4300810000000  0.5350890000000  0.5403820000000 1.0
C      1  0.5263550000000  0.3944330000000  0.5043530000000 1.0
C      1  0.4660360000000  0.5018400000000  0.4137340000000 1.0
C      1  0.5257880000000  0.4676730000000  0.5010320000000 1.0
C      1  0.5239190000000  0.4480530000000  0.5206700000000 1.0
C      1  0.4550470000000  0.3699520000000  0.4993480000000 1.0
C      1  0.5949090000000  0.5889280000000  0.5005450000000 1.0
C      1  0.5102230000000  0.4439700000000  0.4570840000000 1.0
C      1  0.4071860000000  0.5535640000000  0.5386100000000 1.0
C      1  0.5746980000000  0.4387060000000  0.5256680000000 1.0
C      1  0.4477310000000  0.3799740000000  0.4738010000000 1.0
C      1  0.4965380000000  0.5596180000000  0.5396710000000 1.0
C      1  0.5678710000000  0.5027800000000  0.4139900000000 1.0
C      1  0.4683940000000  0.6114120000000  0.4881900000000 1.0
C      1  0.4195550000000  0.5780450000000  0.5519610000000 1.0
C      1  0.4876330000000  0.4792910000000  0.5975260000000 1.0
C      1  0.5142280000000  0.4107930000000  0.5697670000000 1.0
C      1  0.4366060000000  0.4837560000000  0.5129920000000 1.0
C      1  0.5158060000000  0.5584820000000  0.5847460000000 1.0
C      1  0.4790380000000  0.5226680000000  0.4613190000000 1.0
C      1  0.4492640000000  0.5305090000000  0.6059950000000 1.0
C      1  0.4884700000000  0.5069880000000  0.3969060000000 1.0
C      1  0.5976080000000  0.4348630000000  0.4292760000000 1.0
C      1  0.4764810000000  0.4878530000000  0.5531340000000 1.0
C      1  0.4990580000000  0.5511050000000  0.6067010000000 1.0
C      1  0.4668660000000  0.6301100000000  0.5120720000000 1.0
C      1  0.5039350000000  0.4308470000000  0.5874960000000 1.0
C      1  0.4536120000000  0.5177600000000  0.5809510000000 1.0
C      1  0.5093580000000  0.4964000000000  0.6080510000000 1.0
C      1  0.5147680000000  0.4628830000000  0.5432440000000 1.0
C      1  0.4699750000000  0.5740480000000  0.4573910000000 1.0
C      1  0.3885820000000  0.5248550000000  0.4920920000000 1.0
C      1  0.4825760000000  0.3747780000000  0.5442840000000 1.0
C      1  0.4440880000000  0.4556560000000  0.4058770000000 1.0
C      1  0.5246810000000  0.5899880000000  0.4417010000000 1.0
C      1  0.5341490000000  0.6070210000000  0.5669950000000 1.0
C      1  0.4811230000000  0.4558360000000  0.4940580000000 1.0
C      1  0.5999150000000  0.4526810000000  0.5264430000000 1.0
C      1  0.4262110000000  0.5672140000000  0.4790150000000 1.0
C      1  0.4697350000000  0.4492470000000  0.5218280000000 1.0
C      1  0.4375570000000  0.5034600000000  0.4515840000000 1.0
C      1  0.5638210000000  0.5239340000000  0.4342000000000 1.0
C      1  0.5222580000000  0.6070260000000  0.4875240000000 1.0
C      1  0.3926900000000  0.5494950000000  0.5107780000000 1.0
C      1  0.5451350000000  0.5108290000000  0.4515300000000 1.0
C      1  0.4259770000000  0.4497340000000  0.5482080000000 1.0
C      1  0.4785860000000  0.5520870000000  0.4035170000000 1.0
C      1  0.5459810000000  0.5708510000000  0.4439340000000 1.0
C      1  0.5535910000000  0.5309280000000  0.5809920000000 1.0
C      1  0.5953480000000  0.4625520000000  0.4362560000000 1.0
C      1  0.6053430000000  0.5771880000000  0.5508630000000 1.0
C      1  0.5552750000000  0.5031190000000  0.5847960000000 1.0
C      1  0.3602890000000  0.4290790000000  0.5177250000000 1.0
C      1  0.4800940000000  0.4175970000000  0.4148490000000 1.0
C      1  0.5426130000000  0.5675900000000  0.5172140000000 1.0
C      1  0.4689310000000  0.3859850000000  0.4550360000000 1.0
C      1  0.5217690000000  0.4207410000000  0.5138660000000 1.0
C      1  0.4382990000000  0.4426510000000  0.5725050000000 1.0
C      1  0.4686060000000  0.4412560000000  0.4000600000000 1.0
C      1  0.5190190000000  0.5139400000000  0.4409550000000 1.0
C      1  0.3987930000000  0.4515650000000  0.4334740000000 1.0
C      1  0.5148280000000  0.5147550000000  0.5517670000000 1.0
C      1  0.5482910000000  0.5481580000000  0.4246790000000 1.0
C      1  0.4577290000000  0.4422190000000  0.5908040000000 1.0
C      1  0.3819380000000  0.4261500000000  0.4713340000000 1.0
C      1  0.4751910000000  0.5675590000000  0.6115250000000 1.0
C      1  0.4415290000000  0.4595990000000  0.5262590000000 1.0
C      1  0.5289980000000  0.4879090000000  0.5503600000000 1.0
C      1  0.4365050000000  0.4774640000000  0.4628080000000 1.0
C      1  0.5500660000000  0.4578260000000  0.4235360000000 1.0
C      1  0.5364170000000  0.4583660000000  0.3990950000000 1.0
C      1  0.4845970000000  0.4503270000000  0.5954270000000 1.0
C      1  0.5833870000000  0.4128180000000  0.4225200000000 1.0
C      1  0.5375650000000  0.4874900000000  0.6019990000000 1.0
C      1  0.5243230000000  0.5851940000000  0.5794650000000 1.0
C      1  0.5099300000000  0.4170890000000  0.4110600000000 1.0
C      1  0.4890280000000  0.5094570000000  0.5391520000000 1.0
C      1  0.5108520000000  0.4728610000000  0.4587890000000 1.0
C      1  0.5565910000000  0.4917800000000  0.5579790000000 1.0
C      1  0.5622380000000  0.5787490000000  0.5339550000000 1.0
C      1  0.4860790000000  0.4632610000000  0.5436110000000 1.0
C      1  0.5481700000000  0.4605180000000  0.5978670000000 1.0
C      1  0.3986580000000  0.5295430000000  0.4647330000000 1.0
C      1  0.5555440000000  0.5567930000000  0.4931160000000 1.0
C      1  0.4215590000000  0.3891430000000  0.4690190000000 1.0
C      1  0.5007970000000  0.4841300000000  0.3855420000000 1.0
C      1  0.4694090000000  0.4937640000000  0.5794820000000 1.0
C      1  0.5048370000000  0.4912230000000  0.4388240000000 1.0
C      1  0.6026380000000  0.5401050000000  0.4904990000000 1.0
C      1  0.5151760000000  0.4401250000000  0.3939350000000 1.0
C      1  0.3854330000000  0.4519690000000  0.4590550000000 1.0
C      1  0.4508100000000  0.6186930000000  0.5351850000000 1.0
C      1  0.4414560000000  0.4514710000000  0.4522890000000 1.0
C      1  0.4908430000000  0.4560950000000  0.3878150000000 1.0
C      1  0.4669900000000  0.4098620000000  0.4392260000000 1.0
END
