TITL C-599892-9790-377 1068.95910300906 125000 -998.212117706944 0 0 163 (C1) n - 1
REM
REM in /home/nfs/bkarasulu/CARBON/AIRSS/Generating-Clusters/TERSOFF/Only-C1/FIRE-HFTN
REM
REM
REM
REM
REM
REM ./C.cell (11c1c37f851c82e70ff6c80c92926a4b)
REM AIRSS Version 0.9.1 bugfix July 2018 build 013d7b7c2542+ Fri, 06 Jul 2018 19:26:36 +0100
REM compiler GCC version 9.2.1 20190827 (Red Hat 9.2.1-1)
REM options -cpp -mtune=generic -march=x86-64 -g -O0 -fpre-include=/usr/include/finclude/math-vector-fortran.h
REM seed -1370587179 -1588947511 -143268425 -1300437194 -1061995100 1857428738 -660127375 -1119220788 -1632048049 625432602 -2002007463 -1583888372 -971506254 -1671667727 -424892113 1888693908 -126604347 1551199532 -1671309762 84687294 -624968484 -1443267192 1351297393 167955436 1126119245 -1565715854 47440189 548858401 1139117486 633710889 1801372281 -1553270811 593377587
REM
CELL 1.54180   50.00000   50.00000   50.00000   90.00000   90.00000   90.00000
LATT -1
SFAC C  
C      1  0.4925420000000  0.5492650000000  0.4825580000000 1.0
C      1  0.5543550000000  0.4129540000000  0.5514930000000 1.0
C      1  0.6052670000000  0.4979050000000  0.4647530000000 1.0
C      1  0.5344310000000  0.4685670000000  0.4204890000000 1.0
C      1  0.4364300000000  0.4882420000000  0.5207630000000 1.0
C      1  0.4851680000000  0.3848290000000  0.4536120000000 1.0
C      1  0.5891560000000  0.4514510000000  0.5638800000000 1.0
C      1  0.4184490000000  0.5298010000000  0.5589070000000 1.0
C      1  0.5718600000000  0.4270090000000  0.4742230000000 1.0
C      1  0.5011050000000  0.5433810000000  0.3871630000000 1.0
C      1  0.5173260000000  0.5990090000000  0.4707930000000 1.0
C      1  0.5198180000000  0.4649310000000  0.6048930000000 1.0
C      1  0.4186420000000  0.5076920000000  0.4344860000000 1.0
C      1  0.4347540000000  0.5518990000000  0.4377820000000 1.0
C      1  0.4395280000000  0.5903100000000  0.4631400000000 1.0
C      1  0.5961750000000  0.5606870000000  0.4759320000000 1.0
C      1  0.5659080000000  0.5911110000000  0.4584610000000 1.0
C      1  0.5536480000000  0.4828680000000  0.5326180000000 1.0
C      1  0.4016900000000  0.4990880000000  0.4138370000000 1.0
C      1  0.5173190000000  0.5351690000000  0.4404530000000 1.0
C      1  0.5605600000000  0.4599850000000  0.4296400000000 1.0
C      1  0.5222510000000  0.5987990000000  0.5320670000000 1.0
C      1  0.4714530000000  0.4820910000000  0.6163150000000 1.0
C      1  0.4180050000000  0.4722890000000  0.5062350000000 1.0
C      1  0.4162910000000  0.4536270000000  0.4008940000000 1.0
C      1  0.5925850000000  0.6016740000000  0.4571530000000 1.0
C      1  0.5324980000000  0.5428640000000  0.5248040000000 1.0
C      1  0.4010400000000  0.4821830000000  0.4852880000000 1.0
C      1  0.5773340000000  0.4304330000000  0.5502080000000 1.0
C      1  0.4063120000000  0.5332280000000  0.4755410000000 1.0
C      1  0.5425740000000  0.5551490000000  0.4798700000000 1.0
C      1  0.5435050000000  0.4720490000000  0.4730390000000 1.0
C      1  0.4522870000000  0.4352680000000  0.5879650000000 1.0
C      1  0.4912380000000  0.4623610000000  0.6077230000000 1.0
C      1  0.4953580000000  0.4902170000000  0.3859860000000 1.0
C      1  0.4920620000000  0.4915240000000  0.5630370000000 1.0
C      1  0.3939840000000  0.5102720000000  0.4906100000000 1.0
C      1  0.4446570000000  0.4077070000000  0.4635180000000 1.0
C      1  0.4910620000000  0.3824510000000  0.4802370000000 1.0
C      1  0.6103640000000  0.5831040000000  0.4676280000000 1.0
C      1  0.4811010000000  0.5174240000000  0.5656520000000 1.0
C      1  0.6834250000000  0.5823400000000  0.4814380000000 1.0
C      1  0.4455080000000  0.4703870000000  0.6204600000000 1.0
C      1  0.4700820000000  0.4506110000000  0.4789240000000 1.0
C      1  0.4847170000000  0.4093630000000  0.5233660000000 1.0
C      1  0.5282580000000  0.4266150000000  0.4441420000000 1.0
C      1  0.4665370000000  0.4148680000000  0.5451980000000 1.0
C      1  0.5953960000000  0.4423480000000  0.4848150000000 1.0
C      1  0.6609520000000  0.5455430000000  0.5115170000000 1.0
C      1  0.4305550000000  0.5982180000000  0.5090540000000 1.0
C      1  0.5248070000000  0.4487850000000  0.5118460000000 1.0
C      1  0.5070990000000  0.4717210000000  0.5190590000000 1.0
C      1  0.3966700000000  0.4641850000000  0.4638560000000 1.0
C      1  0.6101910000000  0.4653090000000  0.5359870000000 1.0
C      1  0.5239770000000  0.5863820000000  0.5565930000000 1.0
C      1  0.5096530000000  0.5253130000000  0.5236470000000 1.0
C      1  0.5303050000000  0.4508680000000  0.4832880000000 1.0
C      1  0.6022950000000  0.4841540000000  0.4419010000000 1.0
C      1  0.5529220000000  0.4023120000000  0.5228050000000 1.0
C      1  0.4832570000000  0.5282090000000  0.4315530000000 1.0
C      1  0.4815880000000  0.4631800000000  0.5261500000000 1.0
C      1  0.5485590000000  0.4820240000000  0.5609230000000 1.0
C      1  0.4354880000000  0.4492140000000  0.6063080000000 1.0
C      1  0.5589670000000  0.5322300000000  0.5652610000000 1.0
C      1  0.5202540000000  0.4859800000000  0.5654410000000 1.0
C      1  0.5513630000000  0.4572990000000  0.5218110000000 1.0
C      1  0.4446730000000  0.4544550000000  0.3950660000000 1.0
C      1  0.4602620000000  0.5738780000000  0.5764610000000 1.0
C      1  0.4689780000000  0.6173440000000  0.4888350000000 1.0
C      1  0.5235000000000  0.5204670000000  0.6022300000000 1.0
C      1  0.5385530000000  0.5022920000000  0.4741090000000 1.0
C      1  0.4731510000000  0.5101990000000  0.6117190000000 1.0
C      1  0.4137480000000  0.4145940000000  0.5280230000000 1.0
C      1  0.5704630000000  0.5083580000000  0.4146480000000 1.0
C      1  0.4298980000000  0.4888380000000  0.5705710000000 1.0
C      1  0.4020910000000  0.4548000000000  0.5544960000000 1.0
C      1  0.5263680000000  0.5659180000000  0.5746240000000 1.0
C      1  0.4449380000000  0.4970490000000  0.4355800000000 1.0
C      1  0.6335190000000  0.5089120000000  0.5380530000000 1.0
C      1  0.6725390000000  0.5640480000000  0.4964890000000 1.0
C      1  0.4336490000000  0.5378230000000  0.5139310000000 1.0
C      1  0.5791630000000  0.4824930000000  0.4258960000000 1.0
C      1  0.5619750000000  0.5100280000000  0.4922030000000 1.0
C      1  0.4866240000000  0.5540200000000  0.6120190000000 1.0
C      1  0.5603640000000  0.5073400000000  0.5207650000000 1.0
C      1  0.4291110000000  0.5791170000000  0.4397960000000 1.0
C      1  0.5395050000000  0.5956740000000  0.4505770000000 1.0
C      1  0.5186030000000  0.4864220000000  0.4351680000000 1.0
C      1  0.4779900000000  0.4250840000000  0.4260140000000 1.0
C      1  0.4509930000000  0.5267340000000  0.5990130000000 1.0
C      1  0.5008790000000  0.5830630000000  0.4247060000000 1.0
C      1  0.5678060000000  0.5641550000000  0.4710830000000 1.0
C      1  0.5003710000000  0.4351050000000  0.4424860000000 1.0
C      1  0.3876350000000  0.5143670000000  0.5192280000000 1.0
C      1  0.4579730000000  0.6054050000000  0.5120000000000 1.0
C      1  0.5244880000000  0.5906520000000  0.5043900000000 1.0
C      1  0.4038490000000  0.4389440000000  0.4209550000000 1.0
C      1  0.4975600000000  0.5274240000000  0.6131660000000 1.0
C      1  0.5075700000000  0.5008460000000  0.4816830000000 1.0
C      1  0.4483120000000  0.3993650000000  0.4911030000000 1.0
C      1  0.4627040000000  0.5470110000000  0.4362900000000 1.0
C      1  0.4691060000000  0.5830020000000  0.5526740000000 1.0
C      1  0.5096220000000  0.4988420000000  0.5114530000000 1.0
C      1  0.4024510000000  0.4783250000000  0.3966000000000 1.0
C      1  0.4203050000000  0.5523340000000  0.4930340000000 1.0
C      1  0.4941800000000  0.5662100000000  0.4014630000000 1.0
C      1  0.4659670000000  0.4040500000000  0.4436660000000 1.0
C      1  0.5365940000000  0.5397010000000  0.5824380000000 1.0
C      1  0.4751090000000  0.3947120000000  0.5003950000000 1.0
C      1  0.4919250000000  0.5952320000000  0.4521560000000 1.0
C      1  0.4730190000000  0.4747550000000  0.5496760000000 1.0
C      1  0.5544530000000  0.5303450000000  0.5369100000000 1.0
C      1  0.5758840000000  0.4757060000000  0.5718470000000 1.0
C      1  0.3973440000000  0.5107060000000  0.5463550000000 1.0
C      1  0.4896120000000  0.4554550000000  0.4597490000000 1.0
C      1  0.4827420000000  0.5616670000000  0.5083860000000 1.0
C      1  0.4688990000000  0.4972250000000  0.3950260000000 1.0
C      1  0.5373880000000  0.4218130000000  0.5733000000000 1.0
C      1  0.5302900000000  0.4922880000000  0.6075840000000 1.0
C      1  0.5093620000000  0.4238820000000  0.5201910000000 1.0
C      1  0.4795440000000  0.4392220000000  0.5952750000000 1.0
C      1  0.4683050000000  0.5054110000000  0.4218790000000 1.0
C      1  0.5071730000000  0.5167440000000  0.3818500000000 1.0
C      1  0.5001130000000  0.4810800000000  0.4575390000000 1.0
C      1  0.5592410000000  0.5335690000000  0.4141680000000 1.0
C      1  0.5841310000000  0.5229730000000  0.5739790000000 1.0
C      1  0.5357100000000  0.5637810000000  0.5058650000000 1.0
C      1  0.4432770000000  0.5117500000000  0.5061230000000 1.0
C      1  0.4675190000000  0.5340630000000  0.5472650000000 1.0
C      1  0.5304520000000  0.5795610000000  0.4280720000000 1.0
C      1  0.5947650000000  0.4977310000000  0.5677210000000 1.0
C      1  0.4264470000000  0.4011750000000  0.5086750000000 1.0
C      1  0.5569990000000  0.4355670000000  0.4479720000000 1.0
C      1  0.4728460000000  0.5846830000000  0.5242510000000 1.0
C      1  0.4492880000000  0.4807980000000  0.3837780000000 1.0
C      1  0.5326290000000  0.5098740000000  0.4449740000000 1.0
C      1  0.4942060000000  0.4603670000000  0.3906500000000 1.0
C      1  0.5381150000000  0.5512830000000  0.4236360000000 1.0
C      1  0.4163330000000  0.5321940000000  0.4483060000000 1.0
C      1  0.4212250000000  0.4221180000000  0.4599320000000 1.0
C      1  0.4464860000000  0.4831130000000  0.5477800000000 1.0
C      1  0.5172270000000  0.5502210000000  0.4667720000000 1.0
C      1  0.4662880000000  0.6024010000000  0.4644580000000 1.0
C      1  0.5742860000000  0.4420070000000  0.5240480000000 1.0
C      1  0.5987670000000  0.4514910000000  0.5125040000000 1.0
C      1  0.4850870000000  0.5212580000000  0.4794830000000 1.0
C      1  0.4048470000000  0.4414640000000  0.4488320000000 1.0
C      1  0.4456210000000  0.4268080000000  0.5615690000000 1.0
C      1  0.4664050000000  0.4526330000000  0.5052140000000 1.0
C      1  0.4193310000000  0.4319430000000  0.5496500000000 1.0
C      1  0.6142520000000  0.4910670000000  0.5470070000000 1.0
C      1  0.5599110000000  0.4084250000000  0.4958080000000 1.0
C      1  0.4391840000000  0.5400590000000  0.5416110000000 1.0
C      1  0.6483500000000  0.5271060000000  0.5257800000000 1.0
C      1  0.4028580000000  0.4832610000000  0.5591760000000 1.0
C      1  0.5321680000000  0.4416960000000  0.5917030000000 1.0
C      1  0.4596880000000  0.5113130000000  0.4839630000000 1.0
C      1  0.5880300000000  0.5095620000000  0.4814610000000 1.0
C      1  0.4713400000000  0.4430010000000  0.4030020000000 1.0
C      1  0.4312000000000  0.5155520000000  0.5815160000000 1.0
C      1  0.4262100000000  0.5802660000000  0.4874740000000 1.0
C      1  0.4615250000000  0.5549470000000  0.5973880000000 1.0
C      1  0.4856440000000  0.5396620000000  0.5266190000000 1.0
END
