TITL C-599893-4344-398 104477.618395897 125000 -1044.89829466199 0 0 173 (C1) n - 1
REM
REM in /home/nfs/bkarasulu/CARBON/AIRSS/Generating-Clusters/TERSOFF/Only-C1/FIRE-HFTN
REM
REM
REM
REM
REM
REM ./C.cell (11c1c37f851c82e70ff6c80c92926a4b)
REM AIRSS Version 0.9.1 bugfix July 2018 build 013d7b7c2542+ Fri, 06 Jul 2018 19:26:36 +0100
REM compiler GCC version 9.2.1 20190827 (Red Hat 9.2.1-1)
REM options -cpp -mtune=generic -march=x86-64 -g -O0 -fpre-include=/usr/include/finclude/math-vector-fortran.h
REM seed 1376649672 1841980840 -160935943 1870641421 2017260560 1404258989 428264841 -740280634 66544248 -441787366 -26277295 -336378116 615747685 -988835321 73713390 568515746 1516134783 -1101597918 160234095 556496424 -893807847 -79657051 512282677 -887301887 -1851431548 -1364841909 -671304767 391776425 -1958136891 -143843148 -1746104365 -1128279883 -1303780464
REM
CELL 1.54180   50.00000   50.00000   50.00000   90.00000   90.00000   90.00000
LATT -1
SFAC C  
C      1  0.5449970000000  0.5022720000000  0.4535010000000 1.0
C      1  0.4437030000000  0.4276170000000  0.4232980000000 1.0
C      1  0.5055700000000  0.4979130000000  0.6188800000000 1.0
C      1  0.5448490000000  0.4786100000000  0.4378900000000 1.0
C      1  0.5800510000000  0.4086950000000  0.4336180000000 1.0
C      1  0.4432060000000  0.3933090000000  0.4695290000000 1.0
C      1  0.4751990000000  0.4127020000000  0.5128960000000 1.0
C      1  0.5107150000000  0.4806940000000  0.5321900000000 1.0
C      1  0.4883940000000  0.5964310000000  0.4740650000000 1.0
C      1  0.6061950000000  0.4512480000000  0.5594720000000 1.0
C      1  0.5608100000000  0.5940640000000  0.5654210000000 1.0
C      1  0.4873070000000  0.4090200000000  0.4873710000000 1.0
C      1  0.5218640000000  0.4746500000000  0.6121460000000 1.0
C      1  0.4326960000000  0.5035360000000  0.4945870000000 1.0
C      1  0.3997760000000  0.5118120000000  0.5335270000000 1.0
C      1  0.4206530000000  0.3990900000000  0.4553560000000 1.0
C      1  0.5095450000000  0.5116310000000  0.4823960000000 1.0
C      1  0.4686760000000  0.4056980000000  0.4643780000000 1.0
C      1  0.5378870000000  0.5695300000000  0.5219250000000 1.0
C      1  0.5094430000000  0.5410340000000  0.3926810000000 1.0
C      1  0.4846100000000  0.5139680000000  0.4380220000000 1.0
C      1  0.4201170000000  0.4157700000000  0.4338230000000 1.0
C      1  0.4600150000000  0.5253890000000  0.5544170000000 1.0
C      1  0.4291840000000  0.5536510000000  0.5011340000000 1.0
C      1  0.5240860000000  0.4168340000000  0.4562920000000 1.0
C      1  0.5452720000000  0.5607240000000  0.4779120000000 1.0
C      1  0.4456090000000  0.4478460000000  0.4019110000000 1.0
C      1  0.5141690000000  0.5638520000000  0.5869130000000 1.0
C      1  0.4509230000000  0.4857970000000  0.4837020000000 1.0
C      1  0.4923960000000  0.4242360000000  0.4239650000000 1.0
C      1  0.4395500000000  0.4739710000000  0.5787730000000 1.0
C      1  0.4802480000000  0.4901050000000  0.4230620000000 1.0
C      1  0.4147230000000  0.4573460000000  0.5800790000000 1.0
C      1  0.4514060000000  0.5872580000000  0.5975780000000 1.0
C      1  0.4463330000000  0.5480560000000  0.5671330000000 1.0
C      1  0.5329410000000  0.3901420000000  0.5010240000000 1.0
C      1  0.4418590000000  0.5284540000000  0.5061480000000 1.0
C      1  0.4827860000000  0.5681360000000  0.4779530000000 1.0
C      1  0.4285510000000  0.5423470000000  0.4260270000000 1.0
C      1  0.5381860000000  0.5223240000000  0.5872790000000 1.0
C      1  0.5048990000000  0.4628030000000  0.5928950000000 1.0
C      1  0.4572630000000  0.4661480000000  0.5526080000000 1.0
C      1  0.5343350000000  0.3648670000000  0.4906310000000 1.0
C      1  0.4884240000000  0.4660130000000  0.5495760000000 1.0
C      1  0.6003410000000  0.4625220000000  0.5111540000000 1.0
C      1  0.5871010000000  0.4853400000000  0.4662200000000 1.0
C      1  0.5691390000000  0.4103240000000  0.4092730000000 1.0
C      1  0.5044580000000  0.5249270000000  0.5507940000000 1.0
C      1  0.5159800000000  0.5217030000000  0.6076670000000 1.0
C      1  0.5524470000000  0.5051440000000  0.5015200000000 1.0
C      1  0.4840450000000  0.5106410000000  0.5656030000000 1.0
C      1  0.4481530000000  0.6123610000000  0.6037680000000 1.0
C      1  0.4633700000000  0.4662930000000  0.4990330000000 1.0
C      1  0.6330630000000  0.5542970000000  0.5311060000000 1.0
C      1  0.4617420000000  0.5572340000000  0.4619730000000 1.0
C      1  0.4480970000000  0.4818090000000  0.4560070000000 1.0
C      1  0.3959410000000  0.4392960000000  0.5848670000000 1.0
C      1  0.5898870000000  0.4935950000000  0.4362580000000 1.0
C      1  0.5234680000000  0.5727500000000  0.4346610000000 1.0
C      1  0.3816080000000  0.4330880000000  0.5008980000000 1.0
C      1  0.5679730000000  0.4829400000000  0.4190870000000 1.0
C      1  0.4989710000000  0.4363810000000  0.5489600000000 1.0
C      1  0.5976400000000  0.4999620000000  0.5439860000000 1.0
C      1  0.5494320000000  0.6093090000000  0.5455190000000 1.0
C      1  0.5265820000000  0.5522880000000  0.5006260000000 1.0
C      1  0.5526680000000  0.5314140000000  0.4142740000000 1.0
C      1  0.5461490000000  0.4137630000000  0.5484710000000 1.0
C      1  0.3791630000000  0.4196610000000  0.5884200000000 1.0
C      1  0.4823730000000  0.5503190000000  0.5218280000000 1.0
C      1  0.5395600000000  0.4819110000000  0.5464500000000 1.0
C      1  0.6076140000000  0.4424800000000  0.5307350000000 1.0
C      1  0.4821610000000  0.4785130000000  0.3976300000000 1.0
C      1  0.4617500000000  0.5308100000000  0.5256510000000 1.0
C      1  0.5048210000000  0.6056000000000  0.5237290000000 1.0
C      1  0.5034090000000  0.5091540000000  0.4574960000000 1.0
C      1  0.5325300000000  0.5976460000000  0.5253170000000 1.0
C      1  0.5410400000000  0.5512410000000  0.5807380000000 1.0
C      1  0.5541440000000  0.5889740000000  0.4669590000000 1.0
C      1  0.4562840000000  0.4700140000000  0.6054530000000 1.0
C      1  0.4704570000000  0.5420870000000  0.6051960000000 1.0
C      1  0.5632610000000  0.5006010000000  0.4754110000000 1.0
C      1  0.4380180000000  0.6108750000000  0.5229210000000 1.0
C      1  0.4521740000000  0.5420890000000  0.4063360000000 1.0
C      1  0.5369040000000  0.5506110000000  0.3986990000000 1.0
C      1  0.4828530000000  0.5986880000000  0.4442920000000 1.0
C      1  0.4903530000000  0.4604260000000  0.4890990000000 1.0
C      1  0.5933740000000  0.5648650000000  0.4690600000000 1.0
C      1  0.4671690000000  0.5339460000000  0.4473310000000 1.0
C      1  0.4318950000000  0.5059760000000  0.5818360000000 1.0
C      1  0.5438370000000  0.5004600000000  0.5688510000000 1.0
C      1  0.4061080000000  0.4843290000000  0.5296530000000 1.0
C      1  0.6079390000000  0.5507270000000  0.5251090000000 1.0
C      1  0.5318590000000  0.5509840000000  0.4526950000000 1.0
C      1  0.5747550000000  0.5531740000000  0.4887600000000 1.0
C      1  0.5820080000000  0.4411760000000  0.5733510000000 1.0
C      1  0.4725990000000  0.4523240000000  0.3917790000000 1.0
C      1  0.4062900000000  0.4959060000000  0.4841310000000 1.0
C      1  0.4279100000000  0.4978530000000  0.4436330000000 1.0
C      1  0.4835630000000  0.3906820000000  0.5548790000000 1.0
C      1  0.4542510000000  0.5991210000000  0.4410240000000 1.0
C      1  0.4206820000000  0.5970910000000  0.5380280000000 1.0
C      1  0.4493140000000  0.4237900000000  0.5134930000000 1.0
C      1  0.5781630000000  0.5816780000000  0.4506000000000 1.0
C      1  0.5529910000000  0.4263280000000  0.3950420000000 1.0
C      1  0.4862610000000  0.4127600000000  0.5388560000000 1.0
C      1  0.4428830000000  0.5770080000000  0.4526300000000 1.0
C      1  0.5405510000000  0.3956820000000  0.5275680000000 1.0
C      1  0.4108220000000  0.5223650000000  0.5588720000000 1.0
C      1  0.4708690000000  0.4938150000000  0.6146250000000 1.0
C      1  0.5860630000000  0.4827970000000  0.5253650000000 1.0
C      1  0.4992240000000  0.5452830000000  0.6048580000000 1.0
C      1  0.5127520000000  0.4647920000000  0.5063080000000 1.0
C      1  0.3982010000000  0.4375750000000  0.5217130000000 1.0
C      1  0.4155250000000  0.5240080000000  0.4451210000000 1.0
C      1  0.5604550000000  0.5583830000000  0.5354690000000 1.0
C      1  0.4919080000000  0.4570590000000  0.4596190000000 1.0
C      1  0.5410300000000  0.4589550000000  0.5048850000000 1.0
C      1  0.4682040000000  0.4176300000000  0.4372250000000 1.0
C      1  0.4959010000000  0.5776290000000  0.4272780000000 1.0
C      1  0.5410730000000  0.4510570000000  0.4004460000000 1.0
C      1  0.4909970000000  0.4395600000000  0.6012190000000 1.0
C      1  0.5534420000000  0.4772380000000  0.3934120000000 1.0
C      1  0.5677000000000  0.4530460000000  0.5948360000000 1.0
C      1  0.5568630000000  0.4815890000000  0.5208600000000 1.0
C      1  0.5817130000000  0.4191370000000  0.4580870000000 1.0
C      1  0.4172860000000  0.4586790000000  0.5237440000000 1.0
C      1  0.5305040000000  0.4562340000000  0.4275180000000 1.0
C      1  0.5797530000000  0.5419570000000  0.4194590000000 1.0
C      1  0.4947650000000  0.5986170000000  0.5505890000000 1.0
C      1  0.4111310000000  0.5753600000000  0.5507170000000 1.0
C      1  0.5919850000000  0.4608650000000  0.4829450000000 1.0
C      1  0.5725520000000  0.5710930000000  0.4243500000000 1.0
C      1  0.4966330000000  0.5565240000000  0.4986000000000 1.0
C      1  0.3953040000000  0.5207050000000  0.4765790000000 1.0
C      1  0.4290490000000  0.4700460000000  0.3950080000000 1.0
C      1  0.3803130000000  0.4496030000000  0.4796390000000 1.0
C      1  0.5746380000000  0.4378150000000  0.4776920000000 1.0
C      1  0.5812820000000  0.5518620000000  0.5169840000000 1.0
C      1  0.6203230000000  0.5612120000000  0.4681010000000 1.0
C      1  0.4025320000000  0.5565840000000  0.5047840000000 1.0
C      1  0.5235460000000  0.4125660000000  0.4844600000000 1.0
C      1  0.4903000000000  0.4310710000000  0.3967680000000 1.0
C      1  0.5255620000000  0.4308470000000  0.5567820000000 1.0
C      1  0.5497160000000  0.4368640000000  0.4915540000000 1.0
C      1  0.5488230000000  0.4656260000000  0.6099410000000 1.0
C      1  0.4977260000000  0.5520420000000  0.5456510000000 1.0
C      1  0.4460770000000  0.5198560000000  0.3886440000000 1.0
C      1  0.5110560000000  0.4394500000000  0.4420530000000 1.0
C      1  0.4933260000000  0.4825300000000  0.5744750000000 1.0
C      1  0.4659200000000  0.4439730000000  0.6104060000000 1.0
C      1  0.4867880000000  0.6098090000000  0.5007130000000 1.0
C      1  0.5268540000000  0.5209410000000  0.5046870000000 1.0
C      1  0.3931000000000  0.4727940000000  0.4757780000000 1.0
C      1  0.5352830000000  0.4960890000000  0.3812420000000 1.0
C      1  0.4188590000000  0.5500260000000  0.5598060000000 1.0
C      1  0.5149200000000  0.5145770000000  0.3815650000000 1.0
C      1  0.5919560000000  0.4182050000000  0.5326440000000 1.0
C      1  0.4560550000000  0.5610390000000  0.5900570000000 1.0
C      1  0.6068830000000  0.5104690000000  0.5660140000000 1.0
C      1  0.4601500000000  0.6165430000000  0.5088640000000 1.0
C      1  0.4442330000000  0.4516020000000  0.5152340000000 1.0
C      1  0.4332630000000  0.4959160000000  0.3876390000000 1.0
C      1  0.5970280000000  0.5210230000000  0.4288950000000 1.0
C      1  0.3895750000000  0.5317290000000  0.5038760000000 1.0
C      1  0.5407630000000  0.5266750000000  0.4403220000000 1.0
C      1  0.5727930000000  0.4201060000000  0.5545160000000 1.0
C      1  0.4564120000000  0.5165130000000  0.6047850000000 1.0
C      1  0.4717060000000  0.4719000000000  0.4440000000000 1.0
C      1  0.5592590000000  0.5652660000000  0.5635690000000 1.0
C      1  0.5439570000000  0.5748220000000  0.4138820000000 1.0
C      1  0.4849620000000  0.5553500000000  0.4070860000000 1.0
C      1  0.5008540000000  0.5736860000000  0.5632820000000 1.0
C      1  0.5105600000000  0.5104900000000  0.5275220000000 1.0
END
