TITL C-599892-9790-526 3.74345833141199e-05 125000 -265.115291549407 0 0 46 (C1) n - 1
REM
REM in /home/nfs/bkarasulu/CARBON/AIRSS/Generating-Clusters/TERSOFF/Only-C1/FIRE-HFTN
REM
REM
REM
REM
REM
REM ./C.cell (11c1c37f851c82e70ff6c80c92926a4b)
REM AIRSS Version 0.9.1 bugfix July 2018 build 013d7b7c2542+ Fri, 06 Jul 2018 19:26:36 +0100
REM compiler GCC version 9.2.1 20190827 (Red Hat 9.2.1-1)
REM options -cpp -mtune=generic -march=x86-64 -g -O0 -fpre-include=/usr/include/finclude/math-vector-fortran.h
REM seed 243596876 403658353 1996516386 691583352 1806835557 1970245614 -463752534 -1189950108 -714620730 251145323 1350362632 757083701 1379855906 1939629001 -635211824 -394575573 169923290 -502353942 -586000397 -1485528571 -427891211 -1958676726 -816640961 -1196656943 1487381245 1364922154 -1557011537 1120596635 -1067540461 1787487966 -1534932855 1500851081 1169841589
REM
CELL 1.54180   50.00000   50.00000   50.00000   90.00000   90.00000   90.00000
LATT -1
SFAC C  
C      1  0.5008350000000  0.5047500000000  0.5809490000000 1.0
C      1  0.5408220000000  0.5506590000000  0.4650970000000 1.0
C      1  0.4582430000000  0.5365870000000  0.4946790000000 1.0
C      1  0.4165790000000  0.4304490000000  0.4873300000000 1.0
C      1  0.5226510000000  0.4687170000000  0.4447280000000 1.0
C      1  0.5450480000000  0.4673080000000  0.5385650000000 1.0
C      1  0.4790150000000  0.5542190000000  0.4875530000000 1.0
C      1  0.4794240000000  0.5227510000000  0.5456630000000 1.0
C      1  0.5657130000000  0.5096320000000  0.5181270000000 1.0
C      1  0.4906140000000  0.4345760000000  0.5409300000000 1.0
C      1  0.4695500000000  0.4313020000000  0.4976080000000 1.0
C      1  0.4493430000000  0.4766560000000  0.5367320000000 1.0
C      1  0.4949540000000  0.5676960000000  0.5070560000000 1.0
C      1  0.5596880000000  0.4917400000000  0.4680350000000 1.0
C      1  0.4410570000000  0.4925020000000  0.5167010000000 1.0
C      1  0.4800580000000  0.4183500000000  0.5207280000000 1.0
C      1  0.4943550000000  0.4602670000000  0.5512390000000 1.0
C      1  0.4888610000000  0.4725230000000  0.4741850000000 1.0
C      1  0.5422470000000  0.5560370000000  0.4169840000000 1.0
C      1  0.4943190000000  0.4775800000000  0.4452860000000 1.0
C      1  0.5181790000000  0.5010170000000  0.5576730000000 1.0
C      1  0.5091260000000  0.5057720000000  0.5083180000000 1.0
C      1  0.5283600000000  0.5509550000000  0.4399140000000 1.0
C      1  0.4894650000000  0.5241590000000  0.4256860000000 1.0
C      1  0.4450190000000  0.5147020000000  0.5023320000000 1.0
C      1  0.5057490000000  0.5157090000000  0.5345380000000 1.0
C      1  0.5336220000000  0.4841430000000  0.4674220000000 1.0
C      1  0.5236550000000  0.5693120000000  0.5065450000000 1.0
C      1  0.4849690000000  0.4980270000000  0.4290150000000 1.0
C      1  0.4421620000000  0.4306120000000  0.4922920000000 1.0
C      1  0.4684000000000  0.5929650000000  0.5468980000000 1.0
C      1  0.5003460000000  0.5458380000000  0.4397060000000 1.0
C      1  0.4851980000000  0.5570310000000  0.4604230000000 1.0
C      1  0.4747190000000  0.5032660000000  0.5677380000000 1.0
C      1  0.5624600000000  0.4845540000000  0.5271760000000 1.0
C      1  0.4872730000000  0.4441440000000  0.4799010000000 1.0
C      1  0.5407080000000  0.5506080000000  0.4931700000000 1.0
C      1  0.5112850000000  0.4881950000000  0.4866190000000 1.0
C      1  0.5065430000000  0.4288200000000  0.4649630000000 1.0
C      1  0.5357370000000  0.5905590000000  0.5192160000000 1.0
C      1  0.4799850000000  0.3911160000000  0.5228850000000 1.0
C      1  0.4814340000000  0.5810770000000  0.5277150000000 1.0
C      1  0.4703870000000  0.4770210000000  0.5556600000000 1.0
C      1  0.5205460000000  0.4730490000000  0.5511540000000 1.0
C      1  0.5241240000000  0.4403580000000  0.4473840000000 1.0
C      1  0.5571730000000  0.5326890000000  0.5074810000000 1.0
END
