TITL C-599896-8500-861 -3.2741636358466e-05 125000 -112.747319458256 0 0 20 (C1) n - 1
REM
REM in /home/nfs/bkarasulu/CARBON/AIRSS/Generating-Clusters/TERSOFF/Only-C1/FIRE-HFTN
REM
REM
REM
REM
REM
REM ./C.cell (11c1c37f851c82e70ff6c80c92926a4b)
REM AIRSS Version 0.9.1 bugfix July 2018 build 013d7b7c2542+ Fri, 06 Jul 2018 19:26:36 +0100
REM compiler GCC version 9.2.1 20190827 (Red Hat 9.2.1-1)
REM options -cpp -mtune=generic -march=x86-64 -g -O0 -fpre-include=/usr/include/finclude/math-vector-fortran.h
REM seed 1631796514 404144580 -353549103 -1102112866 489123951 -1206136890 -1639117791 -165421389 -96441503 1200653578 1478877583 1332625353 -24043167 -1612635388 -218493935 -317696309 1574285000 1980143900 -1825395435 640023678 990297388 1127309879 428809105 2042927472 706331952 1284011472 420316585 656759673 -1723717948 -205061609 -1638409829 1291230454 -2044525603
REM
CELL 1.54180   50.00000   50.00000   50.00000   90.00000   90.00000   90.00000
LATT -1
SFAC C  
C      1  0.4895760000000  0.5103360000000  0.4892050000000 1.0
C      1  0.5211070000000  0.5636930000000  0.4995830000000 1.0
C      1  0.5149260000000  0.4981380000000  0.4875500000000 1.0
C      1  0.4643240000000  0.4646560000000  0.5266890000000 1.0
C      1  0.4937630000000  0.5566870000000  0.5002220000000 1.0
C      1  0.4771130000000  0.5340810000000  0.4980390000000 1.0
C      1  0.5179670000000  0.4701410000000  0.4850050000000 1.0
C      1  0.5333170000000  0.4486450000000  0.4379160000000 1.0
C      1  0.4502480000000  0.5335590000000  0.5072200000000 1.0
C      1  0.5515450000000  0.4205690000000  0.5256300000000 1.0
C      1  0.5257720000000  0.4591090000000  0.4605590000000 1.0
C      1  0.4473660000000  0.4851380000000  0.5273320000000 1.0
C      1  0.5366950000000  0.5159090000000  0.4898850000000 1.0
C      1  0.5388140000000  0.5422590000000  0.4946700000000 1.0
C      1  0.5325740000000  0.4362240000000  0.5170140000000 1.0
C      1  0.4418640000000  0.5102340000000  0.5203920000000 1.0
C      1  0.5297560000000  0.5892430000000  0.5034240000000 1.0
C      1  0.5126160000000  0.4531000000000  0.5072110000000 1.0
C      1  0.4332750000000  0.5545530000000  0.5031580000000 1.0
C      1  0.4873810000000  0.4537250000000  0.5192940000000 1.0
END
