TITL C-599892-9790-1093 -0.0797460587557336 125000 -638.667130951745 0 0 107 (C1) n - 1
REM
REM in /home/nfs/bkarasulu/CARBON/AIRSS/Generating-Clusters/TERSOFF/Only-C1/FIRE-HFTN
REM
REM
REM
REM
REM
REM ./C.cell (11c1c37f851c82e70ff6c80c92926a4b)
REM AIRSS Version 0.9.1 bugfix July 2018 build 013d7b7c2542+ Fri, 06 Jul 2018 19:26:36 +0100
REM compiler GCC version 9.2.1 20190827 (Red Hat 9.2.1-1)
REM options -cpp -mtune=generic -march=x86-64 -g -O0 -fpre-include=/usr/include/finclude/math-vector-fortran.h
REM seed -819206877 -1942952229 -412711232 -599266798 -1490583954 -1580179119 -184005913 815043184 -158712590 -1007522051 -727420736 412598566 2089007383 581552541 1275091138 301633385 1650737916 -490190262 1602839834 -2142144541 788799590 -12151707 56961961 200226002 -361104272 -364075063 -1684139744 110249186 -281695541 1463373015 -1506935694 1638711350 219801032
REM
CELL 1.54180   50.00000   50.00000   50.00000   90.00000   90.00000   90.00000
LATT -1
SFAC C  
C      1  0.4811700000000  0.6181520000000  0.4147200000000 1.0
C      1  0.4609560000000  0.5120850000000  0.5132430000000 1.0
C      1  0.3905750000000  0.4933910000000  0.5070610000000 1.0
C      1  0.4931040000000  0.5241070000000  0.4735480000000 1.0
C      1  0.5053610000000  0.5745190000000  0.5174920000000 1.0
C      1  0.4150800000000  0.5531180000000  0.4595280000000 1.0
C      1  0.5535500000000  0.4833240000000  0.4917550000000 1.0
C      1  0.4687900000000  0.4529480000000  0.4113440000000 1.0
C      1  0.5001090000000  0.4800760000000  0.5524150000000 1.0
C      1  0.4819540000000  0.4723920000000  0.5317010000000 1.0
C      1  0.4699350000000  0.6425660000000  0.4069380000000 1.0
C      1  0.4742870000000  0.4449500000000  0.5697150000000 1.0
C      1  0.4804680000000  0.6627390000000  0.4230100000000 1.0
C      1  0.4133880000000  0.5298760000000  0.4460750000000 1.0
C      1  0.4859320000000  0.5251050000000  0.5973970000000 1.0
C      1  0.5232150000000  0.5773620000000  0.4936970000000 1.0
C      1  0.5774210000000  0.4817030000000  0.5067020000000 1.0
C      1  0.4627580000000  0.4560770000000  0.5454650000000 1.0
C      1  0.6212810000000  0.5587250000000  0.5108370000000 1.0
C      1  0.4773930000000  0.5729640000000  0.5055350000000 1.0
C      1  0.4589910000000  0.4288580000000  0.4028650000000 1.0
C      1  0.4540200000000  0.5679240000000  0.5214210000000 1.0
C      1  0.4928230000000  0.5505840000000  0.5860270000000 1.0
C      1  0.5252470000000  0.4416410000000  0.3674800000000 1.0
C      1  0.5271790000000  0.3946910000000  0.4260910000000 1.0
C      1  0.5000050000000  0.6222030000000  0.4369440000000 1.0
C      1  0.5084840000000  0.5242170000000  0.5170000000000 1.0
C      1  0.4967040000000  0.4631770000000  0.5759700000000 1.0
C      1  0.4984620000000  0.6512740000000  0.4411090000000 1.0
C      1  0.3931430000000  0.4442890000000  0.4227490000000 1.0
C      1  0.6434620000000  0.5450300000000  0.5055170000000 1.0
C      1  0.5700480000000  0.5601760000000  0.5010210000000 1.0
C      1  0.3958270000000  0.5179140000000  0.5172800000000 1.0
C      1  0.4290080000000  0.5591570000000  0.5095330000000 1.0
C      1  0.5447860000000  0.4428400000000  0.5505150000000 1.0
C      1  0.4691300000000  0.4885930000000  0.4622040000000 1.0
C      1  0.5223190000000  0.4615880000000  0.4562850000000 1.0
C      1  0.4921960000000  0.4028520000000  0.5544600000000 1.0
C      1  0.5127930000000  0.4729870000000  0.4308860000000 1.0
C      1  0.4850010000000  0.4131400000000  0.5003400000000 1.0
C      1  0.5236420000000  0.4936400000000  0.5469580000000 1.0
C      1  0.5166670000000  0.3977820000000  0.5677230000000 1.0
C      1  0.6014060000000  0.4754200000000  0.4935650000000 1.0
C      1  0.4315640000000  0.4709070000000  0.4990300000000 1.0
C      1  0.5318180000000  0.4841960000000  0.4739180000000 1.0
C      1  0.4600230000000  0.5681410000000  0.5493790000000 1.0
C      1  0.5144300000000  0.4486370000000  0.5069500000000 1.0
C      1  0.5788610000000  0.4868330000000  0.5344630000000 1.0
C      1  0.5398340000000  0.5349480000000  0.4697570000000 1.0
C      1  0.5314130000000  0.5560470000000  0.5593230000000 1.0
C      1  0.4516960000000  0.4732840000000  0.4219640000000 1.0
C      1  0.5090450000000  0.5697630000000  0.5455640000000 1.0
C      1  0.4632780000000  0.5114010000000  0.5900390000000 1.0
C      1  0.4254770000000  0.5047250000000  0.4487460000000 1.0
C      1  0.5221610000000  0.4618630000000  0.5889650000000 1.0
C      1  0.5551440000000  0.3912460000000  0.6297900000000 1.0
C      1  0.5611200000000  0.4905900000000  0.5834450000000 1.0
C      1  0.6473710000000  0.4972420000000  0.4895810000000 1.0
C      1  0.5446560000000  0.4013630000000  0.6081840000000 1.0
C      1  0.5117390000000  0.4503340000000  0.3880010000000 1.0
C      1  0.4755430000000  0.4688970000000  0.4826250000000 1.0
C      1  0.5477720000000  0.5621450000000  0.4817010000000 1.0
C      1  0.5080810000000  0.4273560000000  0.4890340000000 1.0
C      1  0.5757230000000  0.4895590000000  0.5609190000000 1.0
C      1  0.4863830000000  0.5193560000000  0.5011440000000 1.0
C      1  0.4447950000000  0.5031570000000  0.4696720000000 1.0
C      1  0.4232390000000  0.5647960000000  0.4822950000000 1.0
C      1  0.5295780000000  0.5167030000000  0.5330580000000 1.0
C      1  0.5420240000000  0.5974430000000  0.4442360000000 1.0
C      1  0.5949620000000  0.5622110000000  0.5099400000000 1.0
C      1  0.4811480000000  0.5729540000000  0.4764170000000 1.0
C      1  0.5346280000000  0.4883260000000  0.5939020000000 1.0
C      1  0.5299460000000  0.3771810000000  0.4069780000000 1.0
C      1  0.4108570000000  0.5401150000000  0.5207400000000 1.0
C      1  0.4976020000000  0.4588150000000  0.4107680000000 1.0
C      1  0.4044320000000  0.4615450000000  0.4406410000000 1.0
C      1  0.4748130000000  0.5154560000000  0.4196220000000 1.0
C      1  0.5054200000000  0.5881060000000  0.4720950000000 1.0
C      1  0.5151610000000  0.6033820000000  0.4505640000000 1.0
C      1  0.5202780000000  0.5126840000000  0.5975210000000 1.0
C      1  0.5565640000000  0.5792990000000  0.4579280000000 1.0
C      1  0.5224890000000  0.5454650000000  0.5845660000000 1.0
C      1  0.5333660000000  0.4125040000000  0.5853880000000 1.0
C      1  0.5375630000000  0.4397270000000  0.5778550000000 1.0
C      1  0.5236980000000  0.4133460000000  0.4445760000000 1.0
C      1  0.4809910000000  0.5477860000000  0.4633500000000 1.0
C      1  0.4510330000000  0.5098590000000  0.5663210000000 1.0
C      1  0.4695040000000  0.4927210000000  0.4339410000000 1.0
C      1  0.4420190000000  0.4984060000000  0.4973870000000 1.0
C      1  0.3961190000000  0.4622960000000  0.4679140000000 1.0
C      1  0.5207100000000  0.5120550000000  0.4625930000000 1.0
C      1  0.4556530000000  0.4034380000000  0.5871570000000 1.0
C      1  0.4034610000000  0.4717230000000  0.4936000000000 1.0
C      1  0.4519510000000  0.4520770000000  0.4903810000000 1.0
C      1  0.4884200000000  0.4012350000000  0.5262480000000 1.0
C      1  0.4849880000000  0.5654050000000  0.5625810000000 1.0
C      1  0.4250130000000  0.4798810000000  0.4329130000000 1.0
C      1  0.6269690000000  0.4801820000000  0.4879690000000 1.0
C      1  0.4732850000000  0.4167450000000  0.5711450000000 1.0
C      1  0.5179030000000  0.4335640000000  0.4628400000000 1.0
C      1  0.5347590000000  0.4456230000000  0.5258800000000 1.0
C      1  0.4930440000000  0.4677170000000  0.5061930000000 1.0
C      1  0.4545400000000  0.5145750000000  0.5403680000000 1.0
C      1  0.4593710000000  0.4248640000000  0.4940130000000 1.0
C      1  0.6538460000000  0.5220600000000  0.4968740000000 1.0
C      1  0.5173350000000  0.5021920000000  0.4333660000000 1.0
C      1  0.5453200000000  0.5373950000000  0.5435620000000 1.0
END
