TITL C-599893-4344-841 -0.000158254448966071 125000 -437.756126739643 0 0 74 (C1) n - 1
REM
REM in /home/nfs/bkarasulu/CARBON/AIRSS/Generating-Clusters/TERSOFF/Only-C1/FIRE-HFTN
REM
REM
REM
REM
REM
REM ./C.cell (11c1c37f851c82e70ff6c80c92926a4b)
REM AIRSS Version 0.9.1 bugfix July 2018 build 013d7b7c2542+ Fri, 06 Jul 2018 19:26:36 +0100
REM compiler GCC version 9.2.1 20190827 (Red Hat 9.2.1-1)
REM options -cpp -mtune=generic -march=x86-64 -g -O0 -fpre-include=/usr/include/finclude/math-vector-fortran.h
REM seed -1465295014 -366410176 -274906191 374355673 796838197 968245056 -1525075889 1371890664 -1948135329 69291275 -1507001862 -828446887 -1313154187 -869486485 -1926146442 353698943 -2066572348 -695775379 1677895864 1609721402 -1195942465 -2120428917 1376436105 511575881 -1435613619 -1524417593 -36161303 1560149750 -449718745 708931702 -1684953903 403236656 1620062010
REM
CELL 1.54180   50.00000   50.00000   50.00000   90.00000   90.00000   90.00000
LATT -1
SFAC C  
C      1  0.4358910000000  0.4433150000000  0.5253950000000 1.0
C      1  0.5674340000000  0.4626700000000  0.5242990000000 1.0
C      1  0.4744360000000  0.5497890000000  0.5102490000000 1.0
C      1  0.4762240000000  0.4072940000000  0.5373760000000 1.0
C      1  0.4807570000000  0.5093840000000  0.4386100000000 1.0
C      1  0.5288800000000  0.5066740000000  0.5714010000000 1.0
C      1  0.4556690000000  0.5207710000000  0.4484380000000 1.0
C      1  0.4994700000000  0.4499640000000  0.5321180000000 1.0
C      1  0.4677610000000  0.4581580000000  0.4899100000000 1.0
C      1  0.5446410000000  0.5066080000000  0.4946930000000 1.0
C      1  0.3906570000000  0.5049610000000  0.4679970000000 1.0
C      1  0.4443720000000  0.4433970000000  0.4983380000000 1.0
C      1  0.5146450000000  0.4446900000000  0.5561270000000 1.0
C      1  0.4572910000000  0.5466010000000  0.4638300000000 1.0
C      1  0.5117630000000  0.4506100000000  0.4658180000000 1.0
C      1  0.5240980000000  0.4668660000000  0.4441320000000 1.0
C      1  0.5505510000000  0.4756330000000  0.4534130000000 1.0
C      1  0.5521430000000  0.4983880000000  0.4701690000000 1.0
C      1  0.5413360000000  0.5077740000000  0.5224240000000 1.0
C      1  0.5540420000000  0.5819370000000  0.5266970000000 1.0
C      1  0.4447080000000  0.4743130000000  0.4422670000000 1.0
C      1  0.4898650000000  0.4251200000000  0.5218540000000 1.0
C      1  0.5328010000000  0.4802320000000  0.5814240000000 1.0
C      1  0.4480220000000  0.4940860000000  0.5171530000000 1.0
C      1  0.5519660000000  0.4414420000000  0.5118970000000 1.0
C      1  0.5295060000000  0.5364060000000  0.4305360000000 1.0
C      1  0.4860050000000  0.5489070000000  0.5368320000000 1.0
C      1  0.4797660000000  0.5235510000000  0.5486020000000 1.0
C      1  0.4955630000000  0.5013240000000  0.5404750000000 1.0
C      1  0.5413550000000  0.4425270000000  0.4850750000000 1.0
C      1  0.5672820000000  0.5771570000000  0.4740600000000 1.0
C      1  0.5596000000000  0.4734830000000  0.5716730000000 1.0
C      1  0.5607210000000  0.4520450000000  0.4663250000000 1.0
C      1  0.5162640000000  0.5229160000000  0.4092480000000 1.0
C      1  0.5034210000000  0.5510930000000  0.4712810000000 1.0
C      1  0.5575310000000  0.6283700000000  0.5540160000000 1.0
C      1  0.4563050000000  0.4665620000000  0.5624680000000 1.0
C      1  0.5633230000000  0.5381080000000  0.5466650000000 1.0
C      1  0.4264830000000  0.5607360000000  0.5012420000000 1.0
C      1  0.5095670000000  0.4629890000000  0.5771610000000 1.0
C      1  0.4935800000000  0.5356630000000  0.4945000000000 1.0
C      1  0.5627120000000  0.5803120000000  0.5000720000000 1.0
C      1  0.4585800000000  0.4160320000000  0.5562580000000 1.0
C      1  0.5466620000000  0.4202860000000  0.5299430000000 1.0
C      1  0.4154560000000  0.4132730000000  0.4641040000000 1.0
C      1  0.4465080000000  0.4413170000000  0.5519450000000 1.0
C      1  0.5512330000000  0.5539080000000  0.4309260000000 1.0
C      1  0.4831540000000  0.6057210000000  0.4252770000000 1.0
C      1  0.4809960000000  0.5628550000000  0.4575200000000 1.0
C      1  0.4470170000000  0.4882890000000  0.5455620000000 1.0
C      1  0.4267150000000  0.5006850000000  0.5000630000000 1.0
C      1  0.5138530000000  0.5577470000000  0.5413370000000 1.0
C      1  0.4655380000000  0.4567640000000  0.4441510000000 1.0
C      1  0.5334500000000  0.4239830000000  0.5533110000000 1.0
C      1  0.4298530000000  0.4281270000000  0.4799550000000 1.0
C      1  0.5221930000000  0.5074000000000  0.5436650000000 1.0
C      1  0.4806460000000  0.4682020000000  0.5789690000000 1.0
C      1  0.4997340000000  0.5076500000000  0.4606860000000 1.0
C      1  0.5432350000000  0.5587870000000  0.5398310000000 1.0
C      1  0.4814040000000  0.5852270000000  0.4412760000000 1.0
C      1  0.5108940000000  0.4766320000000  0.4210390000000 1.0
C      1  0.4893680000000  0.5072010000000  0.4875370000000 1.0
C      1  0.4829130000000  0.4515410000000  0.4665710000000 1.0
C      1  0.5643530000000  0.5686820000000  0.4489620000000 1.0
C      1  0.4364840000000  0.4997710000000  0.4526570000000 1.0
C      1  0.5173210000000  0.5313310000000  0.4557130000000 1.0
C      1  0.5704300000000  0.4819040000000  0.5459440000000 1.0
C      1  0.5661530000000  0.5103630000000  0.5381710000000 1.0
C      1  0.4913450000000  0.4768910000000  0.5263400000000 1.0
C      1  0.4172210000000  0.5018830000000  0.4735060000000 1.0
C      1  0.4739950000000  0.4846740000000  0.5029210000000 1.0
C      1  0.4509700000000  0.5522060000000  0.4927070000000 1.0
C      1  0.4979420000000  0.5018240000000  0.4161850000000 1.0
C      1  0.5559760000000  0.6060170000000  0.5407090000000 1.0
END
