TITL C-599895-9959-1025 -0.000217927222353756 125000 -297.599535833716 0 0 50 (C1) n - 1
REM
REM in /home/nfs/bkarasulu/CARBON/AIRSS/Generating-Clusters/TERSOFF/Only-C1/FIRE-HFTN
REM
REM
REM
REM
REM
REM ./C.cell (11c1c37f851c82e70ff6c80c92926a4b)
REM AIRSS Version 0.9.1 bugfix July 2018 build 013d7b7c2542+ Fri, 06 Jul 2018 19:26:36 +0100
REM compiler GCC version 9.2.1 20190827 (Red Hat 9.2.1-1)
REM options -cpp -mtune=generic -march=x86-64 -g -O0 -fpre-include=/usr/include/finclude/math-vector-fortran.h
REM seed -402342758 -1136500916 43102023 1943052273 970857174 -2101257458 1690056418 -288415453 -2048479703 1045532351 346393031 -1515250056 -653231561 -1687126301 22884453 372493023 -1477815148 -259750051 51456229 -1272101260 338135799 175210857 1274400519 48312103 1335483207 -1845794681 412895582 188945915 973231864 -2120640324 -89276084 1442093698 -1393488309
REM
CELL 1.54180   50.00000   50.00000   50.00000   90.00000   90.00000   90.00000
LATT -1
SFAC C  
C      1  0.5226230000000  0.4936630000000  0.5644650000000 1.0
C      1  0.5575170000000  0.5600880000000  0.4744050000000 1.0
C      1  0.4849280000000  0.5534420000000  0.4557910000000 1.0
C      1  0.4703730000000  0.5090290000000  0.4803980000000 1.0
C      1  0.4882860000000  0.4433490000000  0.4522490000000 1.0
C      1  0.4888250000000  0.5418950000000  0.5360230000000 1.0
C      1  0.5176810000000  0.4860420000000  0.5155180000000 1.0
C      1  0.5470240000000  0.5946020000000  0.5086880000000 1.0
C      1  0.5365150000000  0.4261380000000  0.4299290000000 1.0
C      1  0.5538480000000  0.5127950000000  0.4501690000000 1.0
C      1  0.4548380000000  0.5042950000000  0.5031210000000 1.0
C      1  0.4258940000000  0.4483200000000  0.6591590000000 1.0
C      1  0.5069980000000  0.4771120000000  0.6105260000000 1.0
C      1  0.4387840000000  0.5542020000000  0.3985940000000 1.0
C      1  0.4614940000000  0.4869000000000  0.4389100000000 1.0
C      1  0.5188180000000  0.5016950000000  0.4918670000000 1.0
C      1  0.5103610000000  0.4987050000000  0.5399930000000 1.0
C      1  0.4970340000000  0.5182250000000  0.4848020000000 1.0
C      1  0.5118930000000  0.4586550000000  0.5125560000000 1.0
C      1  0.4465450000000  0.4689920000000  0.5652790000000 1.0
C      1  0.5111620000000  0.4335820000000  0.4393850000000 1.0
C      1  0.4566270000000  0.4631040000000  0.6173900000000 1.0
C      1  0.5720750000000  0.4666130000000  0.4341350000000 1.0
C      1  0.4517360000000  0.5462900000000  0.4197780000000 1.0
C      1  0.4662340000000  0.4513420000000  0.5239030000000 1.0
C      1  0.4874150000000  0.4460890000000  0.5060250000000 1.0
C      1  0.4622810000000  0.5110100000000  0.4531250000000 1.0
C      1  0.5398250000000  0.5728050000000  0.4919950000000 1.0
C      1  0.5335070000000  0.6006220000000  0.5314820000000 1.0
C      1  0.5735090000000  0.4924900000000  0.4408620000000 1.0
C      1  0.5578400000000  0.4443570000000  0.4309330000000 1.0
C      1  0.4572780000000  0.4729670000000  0.5398880000000 1.0
C      1  0.5030020000000  0.5633010000000  0.5244830000000 1.0
C      1  0.4717520000000  0.4622250000000  0.4395690000000 1.0
C      1  0.4657780000000  0.5372800000000  0.4419750000000 1.0
C      1  0.5342610000000  0.5178500000000  0.4282070000000 1.0
C      1  0.5002080000000  0.5458790000000  0.4784280000000 1.0
C      1  0.5647960000000  0.5389110000000  0.4597420000000 1.0
C      1  0.5121270000000  0.5857610000000  0.5392680000000 1.0
C      1  0.5399940000000  0.5006410000000  0.4739150000000 1.0
C      1  0.4839830000000  0.4377440000000  0.4795080000000 1.0
C      1  0.4838120000000  0.4690110000000  0.6207090000000 1.0
C      1  0.4629920000000  0.4990970000000  0.5296920000000 1.0
C      1  0.4460020000000  0.4651660000000  0.5915410000000 1.0
C      1  0.5193400000000  0.5197390000000  0.4069430000000 1.0
C      1  0.5404500000000  0.4010510000000  0.4197200000000 1.0
C      1  0.4860250000000  0.5139560000000  0.5386580000000 1.0
C      1  0.4407510000000  0.4554660000000  0.6389740000000 1.0
C      1  0.5137530000000  0.5615320000000  0.4974570000000 1.0
C      1  0.5212000000000  0.4859750000000  0.5898680000000 1.0
END
