TITL C-599893-4344-1345 0.000240519625808902 125000 -211.023946717239 0 0 36 (C1) n - 1
REM
REM in /home/nfs/bkarasulu/CARBON/AIRSS/Generating-Clusters/TERSOFF/Only-C1/FIRE-HFTN
REM
REM
REM
REM
REM
REM ./C.cell (11c1c37f851c82e70ff6c80c92926a4b)
REM AIRSS Version 0.9.1 bugfix July 2018 build 013d7b7c2542+ Fri, 06 Jul 2018 19:26:36 +0100
REM compiler GCC version 9.2.1 20190827 (Red Hat 9.2.1-1)
REM options -cpp -mtune=generic -march=x86-64 -g -O0 -fpre-include=/usr/include/finclude/math-vector-fortran.h
REM seed 2033330239 613424330 -85185048 520518702 396355163 -533875270 817443574 -1512940669 -2089097854 992315397 -418262228 980762376 264982627 -57902177 1724228044 -1973455186 -378341386 275875074 -2004870851 -2098300702 796272548 1460107875 797824546 -1989565405 855295483 1750605774 763305948 -1968277313 2102245792 -1142317676 392423399 -27608784 -747324516
REM
CELL 1.54180   50.00000   50.00000   50.00000   90.00000   90.00000   90.00000
LATT -1
SFAC C  
C      1  0.5861050000000  0.4804900000000  0.5617340000000 1.0
C      1  0.5106200000000  0.5501530000000  0.4773280000000 1.0
C      1  0.4477080000000  0.4934060000000  0.5285440000000 1.0
C      1  0.4220800000000  0.4944150000000  0.5387210000000 1.0
C      1  0.4639230000000  0.5427280000000  0.4316860000000 1.0
C      1  0.5093740000000  0.5096120000000  0.5067430000000 1.0
C      1  0.4720220000000  0.4718990000000  0.4886410000000 1.0
C      1  0.4721990000000  0.4294800000000  0.5124960000000 1.0
C      1  0.5333370000000  0.5413010000000  0.5308640000000 1.0
C      1  0.4772860000000  0.5652430000000  0.4260420000000 1.0
C      1  0.4363740000000  0.5144110000000  0.4611760000000 1.0
C      1  0.5448290000000  0.4850040000000  0.5295020000000 1.0
C      1  0.5122790000000  0.4571700000000  0.5088390000000 1.0
C      1  0.4690060000000  0.4989420000000  0.5470060000000 1.0
C      1  0.5603540000000  0.5235780000000  0.4910100000000 1.0
C      1  0.5215890000000  0.4838490000000  0.5133580000000 1.0
C      1  0.5089610000000  0.5267630000000  0.5300200000000 1.0
C      1  0.4973430000000  0.5780220000000  0.4385710000000 1.0
C      1  0.5305680000000  0.4359750000000  0.5086180000000 1.0
C      1  0.5655220000000  0.4824930000000  0.5458660000000 1.0
C      1  0.4613070000000  0.5229080000000  0.4511930000000 1.0
C      1  0.4793820000000  0.4615190000000  0.5845950000000 1.0
C      1  0.5537010000000  0.5380990000000  0.5129130000000 1.0
C      1  0.5380180000000  0.4866300000000  0.4609380000000 1.0
C      1  0.5108310000000  0.5711080000000  0.4607420000000 1.0
C      1  0.4870220000000  0.4832170000000  0.4664770000000 1.0
C      1  0.5133400000000  0.4755560000000  0.4583040000000 1.0
C      1  0.4836970000000  0.5115340000000  0.4646830000000 1.0
C      1  0.4321940000000  0.4986940000000  0.4826040000000 1.0
C      1  0.4736840000000  0.4802310000000  0.5673760000000 1.0
C      1  0.5479410000000  0.4165680000000  0.5078190000000 1.0
C      1  0.4849830000000  0.4518700000000  0.5036560000000 1.0
C      1  0.4863180000000  0.5214600000000  0.5456810000000 1.0
C      1  0.4503660000000  0.4866830000000  0.5007040000000 1.0
C      1  0.5013640000000  0.5242750000000  0.4829460000000 1.0
C      1  0.5543700000000  0.5047110000000  0.4726030000000 1.0
END
