TITL C-599891-72-1184 463704.465111565 125000 -721.962072474623 0 0 119 (C1) n - 1
REM
REM in /home/nfs/bkarasulu/CARBON/AIRSS/Generating-Clusters/TERSOFF/Only-C1/FIRE-HFTN
REM
REM
REM
REM
REM
REM ./C.cell (11c1c37f851c82e70ff6c80c92926a4b)
REM AIRSS Version 0.9.1 bugfix July 2018 build 013d7b7c2542+ Fri, 06 Jul 2018 19:26:36 +0100
REM compiler GCC version 9.2.1 20190827 (Red Hat 9.2.1-1)
REM options -cpp -mtune=generic -march=x86-64 -g -O0 -fpre-include=/usr/include/finclude/math-vector-fortran.h
REM seed -1701100750 -989222033 -403671190 372305682 -2006171117 -2108719243 1984088334 1941661693 -418122087 -964994029 1342505807 -72784002 -554834533 -2099899294 -466517168 -1180594750 797047065 1183909444 -1610781865 2096520674 -365110388 -546516986 -912093006 1427967625 707421246 -1869808449 -1832382252 -1756860597 -1402736069 863669220 -667380982 2110285476 -985458183
REM
CELL 1.54180   50.00000   50.00000   50.00000   90.00000   90.00000   90.00000
LATT -1
SFAC C  
C      1  0.6170640000000  0.4495540000000  0.5293490000000 1.0
C      1  0.4660300000000  0.5898130000000  0.5370490000000 1.0
C      1  0.5402970000000  0.4381620000000  0.5283630000000 1.0
C      1  0.5698100000000  0.5483520000000  0.5360040000000 1.0
C      1  0.4691880000000  0.4427080000000  0.5828120000000 1.0
C      1  0.6068480000000  0.4722330000000  0.4443180000000 1.0
C      1  0.3924600000000  0.4735890000000  0.4988590000000 1.0
C      1  0.4432910000000  0.5222950000000  0.5805170000000 1.0
C      1  0.5827380000000  0.5608060000000  0.5137730000000 1.0
C      1  0.5132480000000  0.4860750000000  0.4885320000000 1.0
C      1  0.4193920000000  0.5137110000000  0.4720860000000 1.0
C      1  0.5088050000000  0.5318300000000  0.5524350000000 1.0
C      1  0.4082330000000  0.4620980000000  0.5652070000000 1.0
C      1  0.5078760000000  0.5444460000000  0.5016040000000 1.0
C      1  0.5549450000000  0.5116990000000  0.4911220000000 1.0
C      1  0.4982950000000  0.4796110000000  0.6078850000000 1.0
C      1  0.4887490000000  0.4732100000000  0.4266550000000 1.0
C      1  0.4864990000000  0.5257710000000  0.4991800000000 1.0
C      1  0.4086250000000  0.4572650000000  0.4829810000000 1.0
C      1  0.5328390000000  0.5006090000000  0.5038530000000 1.0
C      1  0.5511670000000  0.5157800000000  0.4223730000000 1.0
C      1  0.5490200000000  0.4545310000000  0.5050610000000 1.0
C      1  0.5075550000000  0.5449690000000  0.5782870000000 1.0
C      1  0.4718800000000  0.4878590000000  0.6013790000000 1.0
C      1  0.5206700000000  0.5701130000000  0.5789130000000 1.0
C      1  0.5514350000000  0.5323530000000  0.4731440000000 1.0
C      1  0.5116440000000  0.5583760000000  0.4759530000000 1.0
C      1  0.4316330000000  0.4749090000000  0.5754650000000 1.0
C      1  0.4883960000000  0.5344850000000  0.5963220000000 1.0
C      1  0.4885060000000  0.5241320000000  0.4419160000000 1.0
C      1  0.5780520000000  0.4188730000000  0.4943320000000 1.0
C      1  0.4213270000000  0.4612800000000  0.4568670000000 1.0
C      1  0.4351030000000  0.5004850000000  0.5638020000000 1.0
C      1  0.4726270000000  0.5087670000000  0.4608820000000 1.0
C      1  0.5050530000000  0.4874850000000  0.3841460000000 1.0
C      1  0.5025970000000  0.5481170000000  0.4497190000000 1.0
C      1  0.5408800000000  0.4177960000000  0.4648350000000 1.0
C      1  0.5354840000000  0.4118130000000  0.5152380000000 1.0
C      1  0.5697220000000  0.4652510000000  0.4176130000000 1.0
C      1  0.4861440000000  0.4926180000000  0.4047960000000 1.0
C      1  0.5771050000000  0.4465870000000  0.5010430000000 1.0
C      1  0.4071090000000  0.5731440000000  0.4811420000000 1.0
C      1  0.4087720000000  0.4708430000000  0.4346480000000 1.0
C      1  0.5434930000000  0.5581730000000  0.5392280000000 1.0
C      1  0.6303340000000  0.4421650000000  0.5505340000000 1.0
C      1  0.5093230000000  0.4019010000000  0.5179190000000 1.0
C      1  0.4418170000000  0.5087260000000  0.5107950000000 1.0
C      1  0.4034600000000  0.4349400000000  0.5688910000000 1.0
C      1  0.5711320000000  0.5708120000000  0.4892170000000 1.0
C      1  0.5734690000000  0.4405550000000  0.4341430000000 1.0
C      1  0.5545730000000  0.3974060000000  0.4229460000000 1.0
C      1  0.5174620000000  0.4480450000000  0.5727510000000 1.0
C      1  0.4041080000000  0.5405070000000  0.5342370000000 1.0
C      1  0.3954280000000  0.5192190000000  0.5162960000000 1.0
C      1  0.5987620000000  0.4459760000000  0.4475130000000 1.0
C      1  0.6002710000000  0.4876690000000  0.5042340000000 1.0
C      1  0.4597400000000  0.5324120000000  0.5099810000000 1.0
C      1  0.5479690000000  0.4810850000000  0.5509580000000 1.0
C      1  0.5785180000000  0.5141790000000  0.4309610000000 1.0
C      1  0.3908860000000  0.4908330000000  0.5216090000000 1.0
C      1  0.4861010000000  0.4178340000000  0.5180600000000 1.0
C      1  0.5812930000000  0.5046220000000  0.4968370000000 1.0
C      1  0.4808550000000  0.4650140000000  0.5297890000000 1.0
C      1  0.4249980000000  0.4368330000000  0.4949800000000 1.0
C      1  0.5516770000000  0.4081910000000  0.4904680000000 1.0
C      1  0.4688790000000  0.4578520000000  0.4393530000000 1.0
C      1  0.5690130000000  0.4990900000000  0.5589620000000 1.0
C      1  0.5160390000000  0.6042830000000  0.4593920000000 1.0
C      1  0.4912990000000  0.4371160000000  0.5653910000000 1.0
C      1  0.3926040000000  0.4776380000000  0.5468070000000 1.0
C      1  0.5337260000000  0.4948590000000  0.5308390000000 1.0
C      1  0.5382560000000  0.6036850000000  0.5149580000000 1.0
C      1  0.5149310000000  0.4778640000000  0.4370060000000 1.0
C      1  0.5327940000000  0.5797500000000  0.5551610000000 1.0
C      1  0.5298570000000  0.4766330000000  0.3830670000000 1.0
C      1  0.5253580000000  0.5834610000000  0.4745940000000 1.0
C      1  0.4846560000000  0.4383350000000  0.5376250000000 1.0
C      1  0.4477900000000  0.5595700000000  0.5036790000000 1.0
C      1  0.5221100000000  0.4389320000000  0.4681580000000 1.0
C      1  0.4502020000000  0.4332780000000  0.4813100000000 1.0
C      1  0.5870590000000  0.5378480000000  0.4459520000000 1.0
C      1  0.4335330000000  0.5477700000000  0.5723240000000 1.0
C      1  0.4485620000000  0.4499360000000  0.4571960000000 1.0
C      1  0.4890350000000  0.5016890000000  0.4834070000000 1.0
C      1  0.5334460000000  0.4971690000000  0.4341560000000 1.0
C      1  0.4703950000000  0.4200310000000  0.4949150000000 1.0
C      1  0.4439780000000  0.5726560000000  0.5296720000000 1.0
C      1  0.4870140000000  0.5154990000000  0.5471240000000 1.0
C      1  0.5381280000000  0.4533200000000  0.5530970000000 1.0
C      1  0.5265670000000  0.4602020000000  0.4861700000000 1.0
C      1  0.4542090000000  0.5332790000000  0.4135490000000 1.0
C      1  0.5108190000000  0.5635200000000  0.4272270000000 1.0
C      1  0.5761920000000  0.5242150000000  0.5503680000000 1.0
C      1  0.5276410000000  0.5577150000000  0.4071430000000 1.0
C      1  0.5433710000000  0.5361560000000  0.4048840000000 1.0
C      1  0.4032980000000  0.4089260000000  0.5671720000000 1.0
C      1  0.5993520000000  0.4606670000000  0.5109840000000 1.0
C      1  0.5210580000000  0.5438690000000  0.5283690000000 1.0
C      1  0.5472120000000  0.5881550000000  0.4924090000000 1.0
C      1  0.5168070000000  0.4635490000000  0.5965840000000 1.0
C      1  0.4248410000000  0.5572300000000  0.5465920000000 1.0
C      1  0.4442270000000  0.5640730000000  0.4533300000000 1.0
C      1  0.5206580000000  0.5988080000000  0.5372730000000 1.0
C      1  0.3902930000000  0.5519140000000  0.4810420000000 1.0
C      1  0.3987740000000  0.5258020000000  0.4881380000000 1.0
C      1  0.5879480000000  0.4872740000000  0.4284150000000 1.0
C      1  0.5520990000000  0.4679890000000  0.3956250000000 1.0
C      1  0.4659670000000  0.5313310000000  0.5390090000000 1.0
C      1  0.4431710000000  0.5395140000000  0.4392090000000 1.0
C      1  0.4353090000000  0.5694890000000  0.4797710000000 1.0
C      1  0.5718260000000  0.5514560000000  0.4668750000000 1.0
C      1  0.4377320000000  0.5011320000000  0.5362020000000 1.0
C      1  0.4788900000000  0.5186190000000  0.4144010000000 1.0
C      1  0.4864360000000  0.4884900000000  0.5411080000000 1.0
C      1  0.4666000000000  0.5160960000000  0.5964460000000 1.0
C      1  0.4551080000000  0.4666000000000  0.5897580000000 1.0
C      1  0.4917410000000  0.5990310000000  0.5366210000000 1.0
C      1  0.4439910000000  0.5166880000000  0.4579300000000 1.0
C      1  0.5564200000000  0.4184490000000  0.4404450000000 1.0
END
