TITL C-599895-9959-802 -1.33994577396698e-05 125000 -281.517965359119 0 0 46 (C1) n - 1
REM
REM in /home/nfs/bkarasulu/CARBON/AIRSS/Generating-Clusters/TERSOFF/Only-C1/FIRE-HFTN
REM
REM
REM
REM
REM
REM ./C.cell (11c1c37f851c82e70ff6c80c92926a4b)
REM AIRSS Version 0.9.1 bugfix July 2018 build 013d7b7c2542+ Fri, 06 Jul 2018 19:26:36 +0100
REM compiler GCC version 9.2.1 20190827 (Red Hat 9.2.1-1)
REM options -cpp -mtune=generic -march=x86-64 -g -O0 -fpre-include=/usr/include/finclude/math-vector-fortran.h
REM seed -858243733 -504162475 924386955 708572619 -21606590 742158199 988388559 -1820625899 996423766 -491848345 -684311955 1373872568 -1389115639 1035587959 380733776 2111738757 1674139240 -299369135 -323929497 1172222392 178476225 -38618227 1746051196 -288741462 -668589665 512217999 2045906011 -1703094144 -2033668701 836492158 -98279588 2021381499 1809605049
REM
CELL 1.54180   50.00000   50.00000   50.00000   90.00000   90.00000   90.00000
LATT -1
SFAC C  
C      1  0.4799290000000  0.4503260000000  0.4619170000000 1.0
C      1  0.5108740000000  0.4384330000000  0.5059910000000 1.0
C      1  0.4336510000000  0.5313920000000  0.5509610000000 1.0
C      1  0.4504100000000  0.5116260000000  0.5623740000000 1.0
C      1  0.5585050000000  0.4910160000000  0.5311790000000 1.0
C      1  0.4871380000000  0.4913170000000  0.5009890000000 1.0
C      1  0.4497140000000  0.5041710000000  0.4294020000000 1.0
C      1  0.5566490000000  0.4392500000000  0.5406760000000 1.0
C      1  0.5320860000000  0.5081850000000  0.4975700000000 1.0
C      1  0.5104350000000  0.5477440000000  0.5355880000000 1.0
C      1  0.5592970000000  0.5017640000000  0.5041400000000 1.0
C      1  0.5211620000000  0.5336340000000  0.4898950000000 1.0
C      1  0.4644940000000  0.5270160000000  0.4795720000000 1.0
C      1  0.5233610000000  0.4626580000000  0.5153940000000 1.0
C      1  0.5466160000000  0.4627060000000  0.4286760000000 1.0
C      1  0.5802280000000  0.4864470000000  0.4597320000000 1.0
C      1  0.4629580000000  0.4889830000000  0.5168630000000 1.0
C      1  0.4532860000000  0.5592730000000  0.5142810000000 1.0
C      1  0.5227550000000  0.4150660000000  0.5169180000000 1.0
C      1  0.4363190000000  0.5515700000000  0.5335310000000 1.0
C      1  0.4977210000000  0.5637190000000  0.5549130000000 1.0
C      1  0.4904490000000  0.4398980000000  0.4863120000000 1.0
C      1  0.5681280000000  0.4739950000000  0.4395340000000 1.0
C      1  0.4387780000000  0.4945730000000  0.5019810000000 1.0
C      1  0.5213920000000  0.4542730000000  0.4288940000000 1.0
C      1  0.4876770000000  0.5605150000000  0.5795610000000 1.0
C      1  0.4759940000000  0.5408910000000  0.5936460000000 1.0
C      1  0.4915590000000  0.5331560000000  0.4226870000000 1.0
C      1  0.5475440000000  0.4643420000000  0.5315030000000 1.0
C      1  0.4732820000000  0.5471170000000  0.4987010000000 1.0
C      1  0.5313320000000  0.5312360000000  0.5459690000000 1.0
C      1  0.5139310000000  0.4872860000000  0.5062330000000 1.0
C      1  0.4410650000000  0.5090220000000  0.4772740000000 1.0
C      1  0.5486950000000  0.5107790000000  0.5491720000000 1.0
C      1  0.4560350000000  0.4656370000000  0.4587430000000 1.0
C      1  0.4624940000000  0.5186700000000  0.5867680000000 1.0
C      1  0.5111730000000  0.5413620000000  0.4388820000000 1.0
C      1  0.4976810000000  0.4496600000000  0.4400240000000 1.0
C      1  0.5444970000000  0.4159610000000  0.5333580000000 1.0
C      1  0.4440910000000  0.4914130000000  0.4539850000000 1.0
C      1  0.4847970000000  0.5071370000000  0.4774750000000 1.0
C      1  0.4687810000000  0.5197170000000  0.4187320000000 1.0
C      1  0.5015420000000  0.5454650000000  0.5080600000000 1.0
C      1  0.5779360000000  0.4970480000000  0.4841030000000 1.0
C      1  0.4611000000000  0.4923670000000  0.5447280000000 1.0
C      1  0.5224590000000  0.5421840000000  0.4631150000000 1.0
END
