TITL C-599895-9959-713 0.0346427762767185 125000 -519.493220275781 0 0 85 (C1) n - 1
REM
REM in /home/nfs/bkarasulu/CARBON/AIRSS/Generating-Clusters/TERSOFF/Only-C1/FIRE-HFTN
REM
REM
REM
REM
REM
REM ./C.cell (11c1c37f851c82e70ff6c80c92926a4b)
REM AIRSS Version 0.9.1 bugfix July 2018 build 013d7b7c2542+ Fri, 06 Jul 2018 19:26:36 +0100
REM compiler GCC version 9.2.1 20190827 (Red Hat 9.2.1-1)
REM options -cpp -mtune=generic -march=x86-64 -g -O0 -fpre-include=/usr/include/finclude/math-vector-fortran.h
REM seed -275218793 993089342 -1972139567 1908518632 1001126955 793575527 401737105 1320312754 -353432765 -522486850 -1447500575 -2036466891 -2102325314 -1443732015 -1874120530 591216384 444731903 -1018620515 812364948 1208254736 -466324153 1650722738 -387101156 -1576777143 -639603600 -1684289284 -1907957311 -1745696567 1978761850 208587428 302841809 1746640082 -2139279720
REM
CELL 1.54180   50.00000   50.00000   50.00000   90.00000   90.00000   90.00000
LATT -1
SFAC C  
C      1  0.4871710000000  0.4130260000000  0.5613060000000 1.0
C      1  0.5882010000000  0.5472280000000  0.4980360000000 1.0
C      1  0.5816820000000  0.5425820000000  0.5263650000000 1.0
C      1  0.5281020000000  0.5140900000000  0.3490640000000 1.0
C      1  0.5808980000000  0.4733130000000  0.5556950000000 1.0
C      1  0.4801140000000  0.5676640000000  0.4958930000000 1.0
C      1  0.5564780000000  0.4591570000000  0.5610570000000 1.0
C      1  0.5352420000000  0.5026020000000  0.3998520000000 1.0
C      1  0.4221660000000  0.5399440000000  0.5341140000000 1.0
C      1  0.4224660000000  0.4562330000000  0.4716780000000 1.0
C      1  0.5551570000000  0.5828390000000  0.4818440000000 1.0
C      1  0.4833880000000  0.5610090000000  0.5475060000000 1.0
C      1  0.5341930000000  0.4771470000000  0.5649770000000 1.0
C      1  0.5879970000000  0.5170200000000  0.5374600000000 1.0
C      1  0.4860600000000  0.3880340000000  0.5521690000000 1.0
C      1  0.5374260000000  0.4989020000000  0.4274900000000 1.0
C      1  0.4531150000000  0.4094360000000  0.5044780000000 1.0
C      1  0.4754860000000  0.3751570000000  0.5312950000000 1.0
C      1  0.3970550000000  0.4327640000000  0.4303580000000 1.0
C      1  0.4136980000000  0.4646690000000  0.5186120000000 1.0
C      1  0.4730990000000  0.4610520000000  0.5711480000000 1.0
C      1  0.4837290000000  0.5368540000000  0.5643930000000 1.0
C      1  0.5743620000000  0.5028990000000  0.5597180000000 1.0
C      1  0.6008950000000  0.4969640000000  0.5194630000000 1.0
C      1  0.5120130000000  0.5758730000000  0.4231120000000 1.0
C      1  0.4755000000000  0.5354640000000  0.4558180000000 1.0
C      1  0.5788340000000  0.5717370000000  0.4875570000000 1.0
C      1  0.5098650000000  0.5727150000000  0.5464540000000 1.0
C      1  0.5908590000000  0.5246050000000  0.4795620000000 1.0
C      1  0.5318430000000  0.5601650000000  0.5333810000000 1.0
C      1  0.4595200000000  0.5812170000000  0.4525530000000 1.0
C      1  0.5015910000000  0.5219820000000  0.5164590000000 1.0
C      1  0.4057830000000  0.3990650000000  0.4995360000000 1.0
C      1  0.5642180000000  0.4984720000000  0.4403410000000 1.0
C      1  0.4264210000000  0.5036790000000  0.4657390000000 1.0
C      1  0.5064400000000  0.5343700000000  0.5815980000000 1.0
C      1  0.4109630000000  0.3724500000000  0.4991470000000 1.0
C      1  0.5468670000000  0.5139760000000  0.4778450000000 1.0
C      1  0.4669460000000  0.4755620000000  0.4729480000000 1.0
C      1  0.4991230000000  0.4534370000000  0.5333790000000 1.0
C      1  0.4196860000000  0.4462730000000  0.4982170000000 1.0
C      1  0.4680740000000  0.5395310000000  0.4850400000000 1.0
C      1  0.4840380000000  0.4867730000000  0.5639780000000 1.0
C      1  0.5317840000000  0.5081900000000  0.3741890000000 1.0
C      1  0.5156130000000  0.4999780000000  0.5283350000000 1.0
C      1  0.4747420000000  0.5203720000000  0.5086860000000 1.0
C      1  0.4393000000000  0.4788430000000  0.4684370000000 1.0
C      1  0.4752070000000  0.4265700000000  0.5012640000000 1.0
C      1  0.4882180000000  0.5642000000000  0.4182170000000 1.0
C      1  0.5419220000000  0.4838970000000  0.4764440000000 1.0
C      1  0.5473410000000  0.5034000000000  0.5713880000000 1.0
C      1  0.4917990000000  0.4494120000000  0.5055870000000 1.0
C      1  0.5092340000000  0.4791530000000  0.5476530000000 1.0
C      1  0.5441280000000  0.5253010000000  0.5024120000000 1.0
C      1  0.4927500000000  0.4678840000000  0.4827560000000 1.0
C      1  0.4723580000000  0.5115870000000  0.5562360000000 1.0
C      1  0.5152130000000  0.4783700000000  0.4680090000000 1.0
C      1  0.4844480000000  0.4399230000000  0.5553360000000 1.0
C      1  0.5218590000000  0.5439070000000  0.5094870000000 1.0
C      1  0.4674930000000  0.5880510000000  0.4776710000000 1.0
C      1  0.5285100000000  0.5783220000000  0.4737140000000 1.0
C      1  0.5102670000000  0.5648170000000  0.4914750000000 1.0
C      1  0.5426310000000  0.5046640000000  0.5220510000000 1.0
C      1  0.4379950000000  0.5567620000000  0.5172560000000 1.0
C      1  0.5310250000000  0.5234300000000  0.5824100000000 1.0
C      1  0.4568960000000  0.3814940000000  0.5114050000000 1.0
C      1  0.4699560000000  0.5584790000000  0.4389450000000 1.0
C      1  0.5991060000000  0.4988920000000  0.4910770000000 1.0
C      1  0.4658860000000  0.5667130000000  0.5244490000000 1.0
C      1  0.4362220000000  0.3636910000000  0.5037710000000 1.0
C      1  0.4155290000000  0.4889550000000  0.5296820000000 1.0
C      1  0.5687530000000  0.5207770000000  0.4597670000000 1.0
C      1  0.4300070000000  0.5125570000000  0.5332440000000 1.0
C      1  0.5235340000000  0.5822470000000  0.4463890000000 1.0
C      1  0.4583550000000  0.5113240000000  0.5310040000000 1.0
C      1  0.5657550000000  0.4759030000000  0.4605160000000 1.0
C      1  0.5599660000000  0.5578500000000  0.5375820000000 1.0
C      1  0.4918970000000  0.5148560000000  0.4455010000000 1.0
C      1  0.4093030000000  0.4445890000000  0.4500860000000 1.0
C      1  0.4258570000000  0.4190180000000  0.5020780000000 1.0
C      1  0.4215620000000  0.5282940000000  0.4752580000000 1.0
C      1  0.5127980000000  0.4957570000000  0.4440780000000 1.0
C      1  0.4382240000000  0.5454120000000  0.4899180000000 1.0
C      1  0.5995390000000  0.4720990000000  0.5340770000000 1.0
C      1  0.5902520000000  0.4761350000000  0.4755260000000 1.0
END
