TITL C-599895-9959-633 0.00269778731557076 125000 -819.293556407515 0 0 136 (C1) n - 1
REM
REM in /home/nfs/bkarasulu/CARBON/AIRSS/Generating-Clusters/TERSOFF/Only-C1/FIRE-HFTN
REM
REM
REM
REM
REM
REM ./C.cell (11c1c37f851c82e70ff6c80c92926a4b)
REM AIRSS Version 0.9.1 bugfix July 2018 build 013d7b7c2542+ Fri, 06 Jul 2018 19:26:36 +0100
REM compiler GCC version 9.2.1 20190827 (Red Hat 9.2.1-1)
REM options -cpp -mtune=generic -march=x86-64 -g -O0 -fpre-include=/usr/include/finclude/math-vector-fortran.h
REM seed -1809975814 -913413433 -1481675760 -1456977400 -2049792425 -951922177 -1918790578 818230750 -1945869212 -932857392 -653742276 -755624459 82302597 -1176515706 -1641350133 -795910472 895367708 1480130876 1530421748 879947353 1194881800 -2017054608 1513654393 -346825092 -65222771 -1648059454 2108560537 1066213968 -882486614 -1470493373 1228505894 1427748731 -1562903873
REM
CELL 1.54180   50.00000   50.00000   50.00000   90.00000   90.00000   90.00000
LATT -1
SFAC C  
C      1  0.5275260000000  0.3833090000000  0.5467990000000 1.0
C      1  0.4830610000000  0.5581800000000  0.5017170000000 1.0
C      1  0.4011670000000  0.5492960000000  0.5462340000000 1.0
C      1  0.6151920000000  0.4822850000000  0.4458470000000 1.0
C      1  0.6319960000000  0.4960750000000  0.5420220000000 1.0
C      1  0.5148720000000  0.4513980000000  0.5185170000000 1.0
C      1  0.5252750000000  0.5828570000000  0.4804790000000 1.0
C      1  0.5218850000000  0.3987630000000  0.4576190000000 1.0
C      1  0.3388290000000  0.5027610000000  0.5916970000000 1.0
C      1  0.4455450000000  0.4734230000000  0.4525780000000 1.0
C      1  0.5651300000000  0.5789750000000  0.5415430000000 1.0
C      1  0.5767020000000  0.5178290000000  0.4965540000000 1.0
C      1  0.3342640000000  0.4822730000000  0.6071560000000 1.0
C      1  0.4554980000000  0.5603480000000  0.5431360000000 1.0
C      1  0.5014260000000  0.5107390000000  0.4870150000000 1.0
C      1  0.5255330000000  0.4424310000000  0.6248200000000 1.0
C      1  0.4779730000000  0.5515790000000  0.5289580000000 1.0
C      1  0.4995170000000  0.4420150000000  0.3789950000000 1.0
C      1  0.5779630000000  0.4869820000000  0.5626270000000 1.0
C      1  0.5509320000000  0.5849920000000  0.4957590000000 1.0
C      1  0.5850430000000  0.5299910000000  0.5467130000000 1.0
C      1  0.4693780000000  0.5251810000000  0.3967290000000 1.0
C      1  0.5316350000000  0.5402410000000  0.5297530000000 1.0
C      1  0.4990970000000  0.4947000000000  0.5830490000000 1.0
C      1  0.4507970000000  0.3911480000000  0.4366710000000 1.0
C      1  0.5421850000000  0.5019190000000  0.6039210000000 1.0
C      1  0.4316740000000  0.6688920000000  0.5490830000000 1.0
C      1  0.5914950000000  0.5148210000000  0.5218430000000 1.0
C      1  0.4657570000000  0.5950670000000  0.4599360000000 1.0
C      1  0.5631680000000  0.5715440000000  0.4535330000000 1.0
C      1  0.3444770000000  0.5233100000000  0.5759570000000 1.0
C      1  0.4374960000000  0.5372930000000  0.4430510000000 1.0
C      1  0.4451520000000  0.4793550000000  0.4051470000000 1.0
C      1  0.5148130000000  0.4518130000000  0.5506450000000 1.0
C      1  0.5044600000000  0.5778070000000  0.5001150000000 1.0
C      1  0.4977420000000  0.4013650000000  0.4435840000000 1.0
C      1  0.6170700000000  0.5019110000000  0.5198420000000 1.0
C      1  0.4815960000000  0.4454810000000  0.4621480000000 1.0
C      1  0.5339160000000  0.5772080000000  0.4536500000000 1.0
C      1  0.5330540000000  0.5434100000000  0.4211000000000 1.0
C      1  0.5629600000000  0.4078290000000  0.5232520000000 1.0
C      1  0.5089800000000  0.4683710000000  0.3745750000000 1.0
C      1  0.4759930000000  0.4230160000000  0.5035280000000 1.0
C      1  0.3745180000000  0.5395400000000  0.5415950000000 1.0
C      1  0.5083650000000  0.4392720000000  0.4722670000000 1.0
C      1  0.4501680000000  0.5008850000000  0.4969340000000 1.0
C      1  0.4387640000000  0.6235790000000  0.5234070000000 1.0
C      1  0.5544080000000  0.3977110000000  0.4979900000000 1.0
C      1  0.5189040000000  0.5317820000000  0.3987710000000 1.0
C      1  0.4993920000000  0.5777880000000  0.5752060000000 1.0
C      1  0.4087140000000  0.5148960000000  0.5789960000000 1.0
C      1  0.4399120000000  0.4781150000000  0.5841610000000 1.0
C      1  0.4424290000000  0.5283740000000  0.4962330000000 1.0
C      1  0.5534420000000  0.4705370000000  0.4874820000000 1.0
C      1  0.4625840000000  0.4899010000000  0.5199440000000 1.0
C      1  0.5482700000000  0.4133370000000  0.4754550000000 1.0
C      1  0.5198050000000  0.4843450000000  0.6001030000000 1.0
C      1  0.5457930000000  0.5879960000000  0.5234390000000 1.0
C      1  0.5573570000000  0.5280770000000  0.4308190000000 1.0
C      1  0.5450480000000  0.4524610000000  0.5537440000000 1.0
C      1  0.4587820000000  0.4914450000000  0.4712610000000 1.0
C      1  0.4796700000000  0.3905000000000  0.5430180000000 1.0
C      1  0.5802200000000  0.4880390000000  0.4125650000000 1.0
C      1  0.4753400000000  0.4371070000000  0.3925830000000 1.0
C      1  0.5782840000000  0.4523160000000  0.4498350000000 1.0
C      1  0.4691870000000  0.4040410000000  0.5224800000000 1.0
C      1  0.4762210000000  0.5097250000000  0.5912440000000 1.0
C      1  0.4999240000000  0.4882900000000  0.4465060000000 1.0
C      1  0.5490750000000  0.5066300000000  0.4522450000000 1.0
C      1  0.5373890000000  0.4308470000000  0.4277920000000 1.0
C      1  0.3720020000000  0.5256680000000  0.5168260000000 1.0
C      1  0.4912990000000  0.5630460000000  0.4255460000000 1.0
C      1  0.4468520000000  0.5446980000000  0.5660110000000 1.0
C      1  0.3529490000000  0.5440140000000  0.5591840000000 1.0
C      1  0.4622580000000  0.5462750000000  0.4844080000000 1.0
C      1  0.3919170000000  0.5245920000000  0.4982780000000 1.0
C      1  0.5030550000000  0.4822070000000  0.5552800000000 1.0
C      1  0.5190800000000  0.5643580000000  0.4338760000000 1.0
C      1  0.5194410000000  0.4997520000000  0.5047940000000 1.0
C      1  0.4911810000000  0.5414210000000  0.4039880000000 1.0
C      1  0.5707200000000  0.5706340000000  0.4813310000000 1.0
C      1  0.5058500000000  0.5892310000000  0.5519470000000 1.0
C      1  0.5619130000000  0.5175250000000  0.5929650000000 1.0
C      1  0.5084440000000  0.4397170000000  0.5785790000000 1.0
C      1  0.5409200000000  0.3724690000000  0.5012320000000 1.0
C      1  0.5913940000000  0.4725970000000  0.4341790000000 1.0
C      1  0.5198880000000  0.4226380000000  0.3821920000000 1.0
C      1  0.5031270000000  0.3921130000000  0.5585570000000 1.0
C      1  0.4165320000000  0.5380560000000  0.5022850000000 1.0
C      1  0.4147430000000  0.5585260000000  0.5225050000000 1.0
C      1  0.5363440000000  0.4201730000000  0.4032990000000 1.0
C      1  0.5262800000000  0.4842270000000  0.3896500000000 1.0
C      1  0.5295330000000  0.4726370000000  0.5039390000000 1.0
C      1  0.4432670000000  0.5988590000000  0.5108670000000 1.0
C      1  0.5262650000000  0.4411840000000  0.4500830000000 1.0
C      1  0.5790770000000  0.5141800000000  0.5701120000000 1.0
C      1  0.6270650000000  0.4900540000000  0.4683830000000 1.0
C      1  0.5621850000000  0.4984510000000  0.4782780000000 1.0
C      1  0.4711480000000  0.4097620000000  0.4330540000000 1.0
C      1  0.4561250000000  0.4929960000000  0.6020470000000 1.0
C      1  0.5276680000000  0.3657440000000  0.5241920000000 1.0
C      1  0.4371910000000  0.5753100000000  0.5264480000000 1.0
C      1  0.4537060000000  0.5998260000000  0.4840320000000 1.0
C      1  0.5746950000000  0.5507900000000  0.4380490000000 1.0
C      1  0.5372800000000  0.5106650000000  0.3896170000000 1.0
C      1  0.5506830000000  0.4002340000000  0.5465280000000 1.0
C      1  0.5181200000000  0.4552910000000  0.6017230000000 1.0
C      1  0.4576240000000  0.5499490000000  0.4565450000000 1.0
C      1  0.4877490000000  0.4636640000000  0.4412950000000 1.0
C      1  0.4628700000000  0.4337920000000  0.4803160000000 1.0
C      1  0.5804420000000  0.5577210000000  0.5471230000000 1.0
C      1  0.4715410000000  0.5715100000000  0.4445040000000 1.0
C      1  0.5033690000000  0.4120190000000  0.5785070000000 1.0
C      1  0.6271390000000  0.4959710000000  0.4943000000000 1.0
C      1  0.5533590000000  0.4789990000000  0.5530250000000 1.0
C      1  0.4736270000000  0.4797140000000  0.5438500000000 1.0
C      1  0.4543040000000  0.4682550000000  0.5618630000000 1.0
C      1  0.5303590000000  0.4963950000000  0.5485120000000 1.0
C      1  0.4628780000000  0.4346900000000  0.4184580000000 1.0
C      1  0.5323310000000  0.4757310000000  0.4162910000000 1.0
C      1  0.4185190000000  0.5380110000000  0.5664020000000 1.0
C      1  0.4689820000000  0.5365650000000  0.5834500000000 1.0
C      1  0.5279130000000  0.5138840000000  0.5273190000000 1.0
C      1  0.4351620000000  0.6464460000000  0.5362900000000 1.0
C      1  0.5625550000000  0.4459240000000  0.4731540000000 1.0
C      1  0.5630930000000  0.5104490000000  0.4059330000000 1.0
C      1  0.4856290000000  0.5015120000000  0.4661230000000 1.0
C      1  0.4473120000000  0.4599320000000  0.4262900000000 1.0
C      1  0.4543570000000  0.5030250000000  0.3964550000000 1.0
C      1  0.3404390000000  0.5683360000000  0.5597740000000 1.0
C      1  0.5031950000000  0.4332290000000  0.5005930000000 1.0
C      1  0.5167330000000  0.5872980000000  0.5262630000000 1.0
C      1  0.4876810000000  0.5573810000000  0.5879570000000 1.0
C      1  0.5789880000000  0.5451590000000  0.4890300000000 1.0
C      1  0.4140580000000  0.4887250000000  0.5817100000000 1.0
C      1  0.5274020000000  0.4900720000000  0.4404340000000 1.0
END
