TITL C-599894-471-724 3.31124196241677e-07 125000 -278.058294722421 0 0 47 (C1) n - 1
REM
REM in /home/nfs/bkarasulu/CARBON/AIRSS/Generating-Clusters/TERSOFF/Only-C1/FIRE-HFTN
REM
REM
REM
REM
REM
REM ./C.cell (11c1c37f851c82e70ff6c80c92926a4b)
REM AIRSS Version 0.9.1 bugfix July 2018 build 013d7b7c2542+ Fri, 06 Jul 2018 19:26:36 +0100
REM compiler GCC version 9.2.1 20190827 (Red Hat 9.2.1-1)
REM options -cpp -mtune=generic -march=x86-64 -g -O0 -fpre-include=/usr/include/finclude/math-vector-fortran.h
REM seed -467081905 -1476846419 -854863388 1958573752 959292345 -1029851110 633356981 1508555404 -1918038669 189453271 486751703 74205183 2065244985 -1775467769 -832417443 -870170884 -1643195318 200994205 183621962 -1213599467 1886344497 293191172 160221957 -492747599 1099475682 772799500 1264423966 206115409 -528669265 1710851892 -1785634132 -1371737538 -1820505837
REM
CELL 1.54180   50.00000   50.00000   50.00000   90.00000   90.00000   90.00000
LATT -1
SFAC C  
C      1  0.4928490000000  0.4494630000000  0.5496600000000 1.0
C      1  0.4417420000000  0.5536610000000  0.4819450000000 1.0
C      1  0.4865170000000  0.5083780000000  0.5131990000000 1.0
C      1  0.4674040000000  0.5623800000000  0.4925590000000 1.0
C      1  0.4445330000000  0.5307620000000  0.4649410000000 1.0
C      1  0.4729900000000  0.5285350000000  0.5591400000000 1.0
C      1  0.4407860000000  0.5042080000000  0.4754800000000 1.0
C      1  0.5282780000000  0.5446100000000  0.4503930000000 1.0
C      1  0.5301730000000  0.5178900000000  0.4586750000000 1.0
C      1  0.5341460000000  0.4854160000000  0.5751590000000 1.0
C      1  0.4725860000000  0.5317100000000  0.4537970000000 1.0
C      1  0.4565610000000  0.5057330000000  0.5496680000000 1.0
C      1  0.5006620000000  0.5181170000000  0.5577790000000 1.0
C      1  0.5345930000000  0.5696430000000  0.4873130000000 1.0
C      1  0.4787780000000  0.4816050000000  0.4222570000000 1.0
C      1  0.4619530000000  0.4798960000000  0.5592230000000 1.0
C      1  0.5410810000000  0.4462900000000  0.5463170000000 1.0
C      1  0.4880300000000  0.4724020000000  0.5675200000000 1.0
C      1  0.5305950000000  0.4432030000000  0.4610040000000 1.0
C      1  0.5584710000000  0.5562410000000  0.4907650000000 1.0
C      1  0.5483770000000  0.4654320000000  0.5639030000000 1.0
C      1  0.4702390000000  0.5644160000000  0.5206460000000 1.0
C      1  0.5089860000000  0.4417770000000  0.5063230000000 1.0
C      1  0.5912990000000  0.5188580000000  0.4833280000000 1.0
C      1  0.5160250000000  0.4414850000000  0.5346500000000 1.0
C      1  0.5662040000000  0.5284700000000  0.4870020000000 1.0
C      1  0.5532910000000  0.4284710000000  0.4567370000000 1.0
C      1  0.4374070000000  0.5032940000000  0.5034380000000 1.0
C      1  0.5307700000000  0.5222920000000  0.5155760000000 1.0
C      1  0.4864870000000  0.5536130000000  0.4713000000000 1.0
C      1  0.4795610000000  0.4494130000000  0.5039840000000 1.0
C      1  0.4689840000000  0.5534560000000  0.5454730000000 1.0
C      1  0.4617280000000  0.4863290000000  0.4658790000000 1.0
C      1  0.5119270000000  0.4467670000000  0.4398480000000 1.0
C      1  0.5074200000000  0.4934290000000  0.5710570000000 1.0
C      1  0.5140780000000  0.5613370000000  0.4687850000000 1.0
C      1  0.5251550000000  0.4835820000000  0.4901590000000 1.0
C      1  0.4938520000000  0.4588190000000  0.4238790000000 1.0
C      1  0.5407960000000  0.5108170000000  0.4879990000000 1.0
C      1  0.4586900000000  0.5070600000000  0.5212450000000 1.0
C      1  0.4764350000000  0.4711570000000  0.4853030000000 1.0
C      1  0.5260410000000  0.4549250000000  0.4867030000000 1.0
C      1  0.4699060000000  0.4519240000000  0.5315100000000 1.0
C      1  0.5098470000000  0.5019690000000  0.4488120000000 1.0
C      1  0.4799660000000  0.5015700000000  0.4451560000000 1.0
C      1  0.4966270000000  0.4899470000000  0.4947500000000 1.0
C      1  0.5071710000000  0.5192480000000  0.5297570000000 1.0
END
