TITL C-599891-72-1038 -172.750367785827 125000 -1071.71779337178 0 0 173 (C1) n - 1
REM
REM in /home/nfs/bkarasulu/CARBON/AIRSS/Generating-Clusters/TERSOFF/Only-C1/FIRE-HFTN
REM
REM
REM
REM
REM
REM ./C.cell (11c1c37f851c82e70ff6c80c92926a4b)
REM AIRSS Version 0.9.1 bugfix July 2018 build 013d7b7c2542+ Fri, 06 Jul 2018 19:26:36 +0100
REM compiler GCC version 9.2.1 20190827 (Red Hat 9.2.1-1)
REM options -cpp -mtune=generic -march=x86-64 -g -O0 -fpre-include=/usr/include/finclude/math-vector-fortran.h
REM seed -1619388068 -2006698801 -1042588605 -142241151 -1792910061 368382537 1319618277 298995532 1204697992 1751801187 1371386448 -135848452 985741456 1229342141 -476128987 1090372622 1083987119 1167904034 1669229044 -1103616882 426891604 182462766 -2125385909 2116693994 -1878971904 -125675359 1496516152 -1680866532 439690800 -1818935395 1376401965 -662591749 214283338
REM
CELL 1.54180   50.00000   50.00000   50.00000   90.00000   90.00000   90.00000
LATT -1
SFAC C  
C      1  0.4297770000000  0.5982330000000  0.4718050000000 1.0
C      1  0.5297090000000  0.4653460000000  0.5537900000000 1.0
C      1  0.5158600000000  0.5169550000000  0.5358420000000 1.0
C      1  0.5318950000000  0.5901810000000  0.5358430000000 1.0
C      1  0.4268750000000  0.4070630000000  0.4551470000000 1.0
C      1  0.3850500000000  0.5185420000000  0.4568270000000 1.0
C      1  0.4741450000000  0.6078450000000  0.4431760000000 1.0
C      1  0.6586040000000  0.4828880000000  0.3986280000000 1.0
C      1  0.4414130000000  0.5702550000000  0.5803380000000 1.0
C      1  0.5013580000000  0.4637380000000  0.5560720000000 1.0
C      1  0.4709750000000  0.5510940000000  0.5464050000000 1.0
C      1  0.4683970000000  0.4730620000000  0.5186250000000 1.0
C      1  0.5606170000000  0.5798600000000  0.4634820000000 1.0
C      1  0.5481690000000  0.4785160000000  0.5716070000000 1.0
C      1  0.5464150000000  0.4483160000000  0.4582630000000 1.0
C      1  0.4461460000000  0.5138270000000  0.5693550000000 1.0
C      1  0.4158230000000  0.4337520000000  0.4136050000000 1.0
C      1  0.5350150000000  0.5703870000000  0.5924030000000 1.0
C      1  0.5846060000000  0.5457350000000  0.5090350000000 1.0
C      1  0.4152030000000  0.5517370000000  0.4822150000000 1.0
C      1  0.4545430000000  0.3734140000000  0.4790090000000 1.0
C      1  0.4892140000000  0.5549090000000  0.5928960000000 1.0
C      1  0.4616160000000  0.3506310000000  0.4905190000000 1.0
C      1  0.4572390000000  0.5689420000000  0.3853960000000 1.0
C      1  0.5351670000000  0.4177840000000  0.5828900000000 1.0
C      1  0.6107910000000  0.4821410000000  0.5163450000000 1.0
C      1  0.6072940000000  0.5376490000000  0.5809830000000 1.0
C      1  0.4144840000000  0.4882760000000  0.5028710000000 1.0
C      1  0.4432070000000  0.5234190000000  0.3828880000000 1.0
C      1  0.3881620000000  0.4319310000000  0.4121490000000 1.0
C      1  0.5298010000000  0.4561340000000  0.4115540000000 1.0
C      1  0.5085810000000  0.6408280000000  0.4929990000000 1.0
C      1  0.5033930000000  0.5692630000000  0.4409310000000 1.0
C      1  0.4306500000000  0.4540650000000  0.4002230000000 1.0
C      1  0.4462820000000  0.5048830000000  0.4040150000000 1.0
C      1  0.4465020000000  0.6020200000000  0.4948020000000 1.0
C      1  0.5227080000000  0.4188540000000  0.7140090000000 1.0
C      1  0.6016430000000  0.5521240000000  0.4615650000000 1.0
C      1  0.5951410000000  0.5010840000000  0.5304290000000 1.0
C      1  0.4896480000000  0.5076590000000  0.5436490000000 1.0
C      1  0.5788940000000  0.5188180000000  0.5151980000000 1.0
C      1  0.3967480000000  0.5165720000000  0.5636480000000 1.0
C      1  0.5090260000000  0.5750630000000  0.5810330000000 1.0
C      1  0.6186830000000  0.4752920000000  0.4678190000000 1.0
C      1  0.6037910000000  0.4545360000000  0.5168200000000 1.0
C      1  0.4500830000000  0.3992700000000  0.4699990000000 1.0
C      1  0.4696890000000  0.4468430000000  0.4716010000000 1.0
C      1  0.5228480000000  0.4822610000000  0.4035430000000 1.0
C      1  0.5275710000000  0.4288270000000  0.4983950000000 1.0
C      1  0.5274230000000  0.5745890000000  0.4266660000000 1.0
C      1  0.6241110000000  0.4889630000000  0.4921540000000 1.0
C      1  0.4824520000000  0.6344500000000  0.4850620000000 1.0
C      1  0.4491680000000  0.5261640000000  0.5952360000000 1.0
C      1  0.4121390000000  0.5699010000000  0.5736560000000 1.0
C      1  0.5156740000000  0.5039710000000  0.5987910000000 1.0
C      1  0.5595380000000  0.3972260000000  0.5433120000000 1.0
C      1  0.4355780000000  0.5054680000000  0.4966680000000 1.0
C      1  0.4672800000000  0.5232440000000  0.5515960000000 1.0
C      1  0.5571180000000  0.4140580000000  0.4261090000000 1.0
C      1  0.5283420000000  0.5300450000000  0.3990550000000 1.0
C      1  0.5413420000000  0.5027700000000  0.5860540000000 1.0
C      1  0.5840410000000  0.4139200000000  0.4957940000000 1.0
C      1  0.5130680000000  0.4426310000000  0.6392260000000 1.0
C      1  0.3751130000000  0.5323640000000  0.4783720000000 1.0
C      1  0.4267300000000  0.5056660000000  0.4249250000000 1.0
C      1  0.3891030000000  0.5297780000000  0.5874120000000 1.0
C      1  0.5101150000000  0.4985860000000  0.4489920000000 1.0
C      1  0.4330300000000  0.5338940000000  0.4967500000000 1.0
C      1  0.5670030000000  0.4070730000000  0.4735780000000 1.0
C      1  0.4174660000000  0.4765170000000  0.5484830000000 1.0
C      1  0.4749790000000  0.5783600000000  0.4371510000000 1.0
C      1  0.5602520000000  0.5245890000000  0.5863370000000 1.0
C      1  0.4549230000000  0.5523170000000  0.5010040000000 1.0
C      1  0.4574700000000  0.4472120000000  0.5225340000000 1.0
C      1  0.5532410000000  0.5110770000000  0.5065210000000 1.0
C      1  0.5725290000000  0.4651370000000  0.4551940000000 1.0
C      1  0.4645170000000  0.5774440000000  0.4094770000000 1.0
C      1  0.5277740000000  0.4571490000000  0.5030540000000 1.0
C      1  0.5448270000000  0.5914900000000  0.4424310000000 1.0
C      1  0.4737820000000  0.6213140000000  0.5309720000000 1.0
C      1  0.4848290000000  0.4805010000000  0.5403620000000 1.0
C      1  0.5352460000000  0.4999450000000  0.5243610000000 1.0
C      1  0.4046630000000  0.5105340000000  0.4398550000000 1.0
C      1  0.5353940000000  0.4955510000000  0.4642870000000 1.0
C      1  0.5316590000000  0.4683670000000  0.4766340000000 1.0
C      1  0.4344530000000  0.5781970000000  0.5344310000000 1.0
C      1  0.3617170000000  0.4304700000000  0.4127460000000 1.0
C      1  0.4727510000000  0.4348320000000  0.4073340000000 1.0
C      1  0.5890150000000  0.4513450000000  0.5746860000000 1.0
C      1  0.4633190000000  0.4926220000000  0.4935250000000 1.0
C      1  0.5616210000000  0.4917290000000  0.4484180000000 1.0
C      1  0.5406490000000  0.5179120000000  0.4824740000000 1.0
C      1  0.5369250000000  0.3809360000000  0.5382830000000 1.0
C      1  0.5304010000000  0.6281860000000  0.5016830000000 1.0
C      1  0.4675640000000  0.4205660000000  0.4747960000000 1.0
C      1  0.5419650000000  0.5044700000000  0.4064570000000 1.0
C      1  0.6436230000000  0.5490270000000  0.4280310000000 1.0
C      1  0.3966470000000  0.4271850000000  0.4931400000000 1.0
C      1  0.4710600000000  0.5455060000000  0.4779940000000 1.0
C      1  0.5195350000000  0.4267190000000  0.6893570000000 1.0
C      1  0.6463680000000  0.4805370000000  0.4215270000000 1.0
C      1  0.4145150000000  0.6172530000000  0.4598000000000 1.0
C      1  0.4591800000000  0.4267110000000  0.5398540000000 1.0
C      1  0.5033400000000  0.5214510000000  0.3875030000000 1.0
C      1  0.5115550000000  0.3891100000000  0.5293530000000 1.0
C      1  0.3859970000000  0.5278160000000  0.5398810000000 1.0
C      1  0.5956910000000  0.4402680000000  0.4934870000000 1.0
C      1  0.4683290000000  0.4856700000000  0.4005650000000 1.0
C      1  0.5109610000000  0.4296490000000  0.5924700000000 1.0
C      1  0.4604820000000  0.5436870000000  0.3739980000000 1.0
C      1  0.4087180000000  0.4690480000000  0.5225850000000 1.0
C      1  0.4590590000000  0.4586670000000  0.4003840000000 1.0
C      1  0.4578450000000  0.5612770000000  0.4564850000000 1.0
C      1  0.4870520000000  0.5355000000000  0.3697520000000 1.0
C      1  0.4591680000000  0.4140360000000  0.4186440000000 1.0
C      1  0.3943490000000  0.5561260000000  0.5906970000000 1.0
C      1  0.6336750000000  0.4784750000000  0.4446890000000 1.0
C      1  0.4531190000000  0.5712130000000  0.5542510000000 1.0
C      1  0.4794160000000  0.5183790000000  0.4847240000000 1.0
C      1  0.5190680000000  0.5447160000000  0.5328980000000 1.0
C      1  0.4939740000000  0.5574540000000  0.5320030000000 1.0
C      1  0.5339330000000  0.4718550000000  0.5261710000000 1.0
C      1  0.5410660000000  0.5624690000000  0.5312300000000 1.0
C      1  0.4859430000000  0.4870430000000  0.4501660000000 1.0
C      1  0.4868200000000  0.4208140000000  0.5804780000000 1.0
C      1  0.4210410000000  0.5012250000000  0.5619250000000 1.0
C      1  0.5123690000000  0.4086480000000  0.5093340000000 1.0
C      1  0.4651770000000  0.6217460000000  0.5038870000000 1.0
C      1  0.4774250000000  0.6295630000000  0.4580520000000 1.0
C      1  0.4467880000000  0.5780440000000  0.5097870000000 1.0
C      1  0.5404840000000  0.6035240000000  0.5099710000000 1.0
C      1  0.5423920000000  0.4385810000000  0.4297550000000 1.0
C      1  0.5018330000000  0.5290190000000  0.5996530000000 1.0
C      1  0.5263200000000  0.5412830000000  0.4785480000000 1.0
C      1  0.3898520000000  0.5500090000000  0.4959980000000 1.0
C      1  0.4900040000000  0.6113960000000  0.5499450000000 1.0
C      1  0.3918640000000  0.5520930000000  0.5258370000000 1.0
C      1  0.5751690000000  0.5565250000000  0.4520610000000 1.0
C      1  0.5959890000000  0.4574660000000  0.4694710000000 1.0
C      1  0.4961830000000  0.4937660000000  0.3959940000000 1.0
C      1  0.5625580000000  0.5632570000000  0.5117640000000 1.0
C      1  0.4048820000000  0.4150000000000  0.4707870000000 1.0
C      1  0.5100120000000  0.4505440000000  0.6124830000000 1.0
C      1  0.3357090000000  0.4290280000000  0.4138200000000 1.0
C      1  0.5524950000000  0.5503060000000  0.5943340000000 1.0
C      1  0.5894960000000  0.4984170000000  0.5581480000000 1.0
C      1  0.5763950000000  0.4751090000000  0.5677890000000 1.0
C      1  0.5399350000000  0.5512610000000  0.4151630000000 1.0
C      1  0.5618630000000  0.5104490000000  0.4269740000000 1.0
C      1  0.4799410000000  0.3094320000000  0.5175290000000 1.0
C      1  0.5567260000000  0.5848780000000  0.4924730000000 1.0
C      1  0.4705270000000  0.3294970000000  0.5038040000000 1.0
C      1  0.4751940000000  0.4107980000000  0.5567860000000 1.0
C      1  0.5821580000000  0.4255940000000  0.5756520000000 1.0
C      1  0.4321360000000  0.4152620000000  0.4283620000000 1.0
C      1  0.4592660000000  0.5534130000000  0.5958360000000 1.0
C      1  0.5625840000000  0.5399570000000  0.4315740000000 1.0
C      1  0.4301350000000  0.5701090000000  0.4642640000000 1.0
C      1  0.5441610000000  0.4238740000000  0.4758540000000 1.0
C      1  0.5864610000000  0.5209690000000  0.5752500000000 1.0
C      1  0.5096530000000  0.5572760000000  0.4655880000000 1.0
C      1  0.5773310000000  0.4031690000000  0.5216020000000 1.0
C      1  0.5063120000000  0.4784530000000  0.6074770000000 1.0
C      1  0.6233990000000  0.5496680000000  0.4444530000000 1.0
C      1  0.5108270000000  0.5933030000000  0.5569010000000 1.0
C      1  0.5589280000000  0.4117680000000  0.5681560000000 1.0
C      1  0.6041490000000  0.5508630000000  0.4895620000000 1.0
C      1  0.4078630000000  0.5706010000000  0.5431250000000 1.0
C      1  0.5704480000000  0.4003260000000  0.4460350000000 1.0
C      1  0.4883890000000  0.3886610000000  0.5451270000000 1.0
C      1  0.5163030000000  0.4347120000000  0.6642930000000 1.0
C      1  0.3987230000000  0.4445270000000  0.5134060000000 1.0
C      1  0.4699060000000  0.4746190000000  0.4697550000000 1.0
END
