TITL C-599893-4344-1354 0.00842593127480702 125000 -1128.33199586179 0 0 187 (C1) n - 1
REM
REM in /home/nfs/bkarasulu/CARBON/AIRSS/Generating-Clusters/TERSOFF/Only-C1/FIRE-HFTN
REM
REM
REM
REM
REM
REM ./C.cell (11c1c37f851c82e70ff6c80c92926a4b)
REM AIRSS Version 0.9.1 bugfix July 2018 build 013d7b7c2542+ Fri, 06 Jul 2018 19:26:36 +0100
REM compiler GCC version 9.2.1 20190827 (Red Hat 9.2.1-1)
REM options -cpp -mtune=generic -march=x86-64 -g -O0 -fpre-include=/usr/include/finclude/math-vector-fortran.h
REM seed -1947408643 410482353 -1465617542 -1165913540 -1488841760 460291898 1890639607 2026085984 -1231986895 568381253 911359598 -1373889783 -1321726309 -812990673 -972373397 480529508 282341152 -568249525 -876161181 -522014410 -1726935165 -1831218951 1554214406 -228255148 45511266 -1930252338 -1729202770 -1303776039 -1001469079 282910040 577374139 -486838818 88399043
REM
CELL 1.54180   50.00000   50.00000   50.00000   90.00000   90.00000   90.00000
LATT -1
SFAC C  
C      1  0.4902750000000  0.3765220000000  0.4431220000000 1.0
C      1  0.6061270000000  0.5234430000000  0.5558290000000 1.0
C      1  0.5954840000000  0.5672340000000  0.4763690000000 1.0
C      1  0.5147040000000  0.4845640000000  0.5524700000000 1.0
C      1  0.5233330000000  0.6197520000000  0.5693520000000 1.0
C      1  0.5000810000000  0.4914560000000  0.5285360000000 1.0
C      1  0.4595780000000  0.5828010000000  0.4670620000000 1.0
C      1  0.4787560000000  0.4265070000000  0.4993230000000 1.0
C      1  0.5009490000000  0.5763860000000  0.4108600000000 1.0
C      1  0.3790350000000  0.5006750000000  0.5243040000000 1.0
C      1  0.5762680000000  0.4935740000000  0.5790740000000 1.0
C      1  0.4585940000000  0.5691380000000  0.5158250000000 1.0
C      1  0.5083800000000  0.4211000000000  0.4378760000000 1.0
C      1  0.3845380000000  0.4876870000000  0.5512700000000 1.0
C      1  0.5670360000000  0.4390190000000  0.5877670000000 1.0
C      1  0.4330550000000  0.5678570000000  0.4772410000000 1.0
C      1  0.5122790000000  0.4787690000000  0.6141600000000 1.0
C      1  0.4613060000000  0.4787160000000  0.6139250000000 1.0
C      1  0.4650600000000  0.3754860000000  0.4519280000000 1.0
C      1  0.5874400000000  0.5681280000000  0.5445040000000 1.0
C      1  0.5503380000000  0.5028330000000  0.4099550000000 1.0
C      1  0.5422500000000  0.5304060000000  0.4128400000000 1.0
C      1  0.5931850000000  0.5741500000000  0.5721250000000 1.0
C      1  0.5545900000000  0.5423060000000  0.4365650000000 1.0
C      1  0.4453570000000  0.4563290000000  0.4246350000000 1.0
C      1  0.4677400000000  0.5370430000000  0.4731310000000 1.0
C      1  0.5295510000000  0.4097540000000  0.6011500000000 1.0
C      1  0.6150810000000  0.5013290000000  0.5110170000000 1.0
C      1  0.4649290000000  0.5081000000000  0.6140790000000 1.0
C      1  0.5166110000000  0.4467860000000  0.5159160000000 1.0
C      1  0.5152200000000  0.5034590000000  0.5984240000000 1.0
C      1  0.4204340000000  0.5015580000000  0.5927470000000 1.0
C      1  0.5984180000000  0.5332050000000  0.6009860000000 1.0
C      1  0.3762010000000  0.4983040000000  0.4511230000000 1.0
C      1  0.4325960000000  0.5196430000000  0.4518110000000 1.0
C      1  0.4580620000000  0.4376730000000  0.5436120000000 1.0
C      1  0.4899430000000  0.4580680000000  0.5803300000000 1.0
C      1  0.4920140000000  0.4535740000000  0.3980520000000 1.0
C      1  0.5439890000000  0.5753740000000  0.4871750000000 1.0
C      1  0.3932250000000  0.4610400000000  0.5468030000000 1.0
C      1  0.4127030000000  0.5674870000000  0.5340190000000 1.0
C      1  0.4931270000000  0.4600090000000  0.4660920000000 1.0
C      1  0.5818660000000  0.5909120000000  0.5267130000000 1.0
C      1  0.4867720000000  0.6142200000000  0.5210630000000 1.0
C      1  0.4932960000000  0.5722040000000  0.4718870000000 1.0
C      1  0.4484170000000  0.5466480000000  0.4943520000000 1.0
C      1  0.5394310000000  0.3841050000000  0.4487440000000 1.0
C      1  0.3757180000000  0.4841740000000  0.4760560000000 1.0
C      1  0.5838150000000  0.4474580000000  0.4097050000000 1.0
C      1  0.5967750000000  0.4541630000000  0.5218400000000 1.0
C      1  0.5221770000000  0.5057640000000  0.4728470000000 1.0
C      1  0.5964910000000  0.5596980000000  0.5948620000000 1.0
C      1  0.6128060000000  0.5887600000000  0.4775970000000 1.0
C      1  0.5151800000000  0.5302340000000  0.4000730000000 1.0
C      1  0.5575920000000  0.4777510000000  0.5094640000000 1.0
C      1  0.4123940000000  0.5253180000000  0.3963810000000 1.0
C      1  0.4408530000000  0.5315140000000  0.5472040000000 1.0
C      1  0.5273940000000  0.5859470000000  0.4078170000000 1.0
C      1  0.5679810000000  0.6104520000000  0.5125470000000 1.0
C      1  0.4947490000000  0.3940460000000  0.5283090000000 1.0
C      1  0.5387310000000  0.3844820000000  0.5150620000000 1.0
C      1  0.4258480000000  0.4508920000000  0.5869180000000 1.0
C      1  0.5601490000000  0.5699620000000  0.4414750000000 1.0
C      1  0.4357770000000  0.5194950000000  0.5003130000000 1.0
C      1  0.4999860000000  0.5386790000000  0.5352630000000 1.0
C      1  0.4811960000000  0.6236080000000  0.5472350000000 1.0
C      1  0.3814830000000  0.5704330000000  0.4695600000000 1.0
C      1  0.5550070000000  0.5061970000000  0.5632740000000 1.0
C      1  0.5548370000000  0.4390420000000  0.5398370000000 1.0
C      1  0.4409760000000  0.5103670000000  0.5268330000000 1.0
C      1  0.5621240000000  0.5289980000000  0.4614000000000 1.0
C      1  0.4328820000000  0.4549220000000  0.4500710000000 1.0
C      1  0.5123920000000  0.4575550000000  0.5624910000000 1.0
C      1  0.4995650000000  0.6333040000000  0.5040190000000 1.0
C      1  0.5133600000000  0.3941700000000  0.5057670000000 1.0
C      1  0.4424520000000  0.4275890000000  0.5883280000000 1.0
C      1  0.5739730000000  0.4655780000000  0.5862060000000 1.0
C      1  0.5851590000000  0.4794510000000  0.4449120000000 1.0
C      1  0.4040820000000  0.5664340000000  0.4862060000000 1.0
C      1  0.5046290000000  0.4113880000000  0.5491600000000 1.0
C      1  0.5279160000000  0.5017260000000  0.5714460000000 1.0
C      1  0.3677100000000  0.5498820000000  0.4584300000000 1.0
C      1  0.4237290000000  0.4296970000000  0.4580030000000 1.0
C      1  0.5001310000000  0.4785970000000  0.3840870000000 1.0
C      1  0.5065540000000  0.5056940000000  0.3854140000000 1.0
C      1  0.4041270000000  0.4301370000000  0.5096080000000 1.0
C      1  0.5133460000000  0.3923880000000  0.4404850000000 1.0
C      1  0.5193240000000  0.5819350000000  0.4742560000000 1.0
C      1  0.5500030000000  0.5875390000000  0.4222840000000 1.0
C      1  0.5573490000000  0.3923190000000  0.5355140000000 1.0
C      1  0.5324850000000  0.4899640000000  0.4280940000000 1.0
C      1  0.4582750000000  0.5302430000000  0.4472280000000 1.0
C      1  0.3967140000000  0.5549330000000  0.5126400000000 1.0
C      1  0.4393480000000  0.4598110000000  0.5430930000000 1.0
C      1  0.5867130000000  0.5030450000000  0.3774760000000 1.0
C      1  0.4819900000000  0.4738630000000  0.4875420000000 1.0
C      1  0.4701260000000  0.4745370000000  0.5688770000000 1.0
C      1  0.4854090000000  0.5483980000000  0.5553460000000 1.0
C      1  0.4668820000000  0.3877540000000  0.5253580000000 1.0
C      1  0.4955290000000  0.5482110000000  0.4106490000000 1.0
C      1  0.4943510000000  0.6150640000000  0.4393150000000 1.0
C      1  0.5412320000000  0.5712490000000  0.5153580000000 1.0
C      1  0.5695650000000  0.4619750000000  0.5296350000000 1.0
C      1  0.4415610000000  0.3952530000000  0.5186530000000 1.0
C      1  0.3839930000000  0.4903320000000  0.4243080000000 1.0
C      1  0.6138920000000  0.4725150000000  0.5089380000000 1.0
C      1  0.5607920000000  0.4338050000000  0.4183600000000 1.0
C      1  0.4937970000000  0.5441760000000  0.4778150000000 1.0
C      1  0.5861120000000  0.5386970000000  0.5408010000000 1.0
C      1  0.3840860000000  0.5295860000000  0.5265940000000 1.0
C      1  0.4265520000000  0.5485070000000  0.3970260000000 1.0
C      1  0.5635280000000  0.3868750000000  0.4607760000000 1.0
C      1  0.4598120000000  0.5439580000000  0.5648480000000 1.0
C      1  0.4620440000000  0.4223180000000  0.5682010000000 1.0
C      1  0.5367730000000  0.6018950000000  0.5547010000000 1.0
C      1  0.5051710000000  0.4864390000000  0.4262470000000 1.0
C      1  0.5089710000000  0.5236240000000  0.4897970000000 1.0
C      1  0.5117140000000  0.4347910000000  0.4659290000000 1.0
C      1  0.5675460000000  0.5734950000000  0.4695530000000 1.0
C      1  0.5394680000000  0.4929530000000  0.4547960000000 1.0
C      1  0.5210780000000  0.6270630000000  0.4859780000000 1.0
C      1  0.4915530000000  0.5182930000000  0.6072600000000 1.0
C      1  0.5982110000000  0.5124460000000  0.5814310000000 1.0
C      1  0.6177770000000  0.5150150000000  0.4852650000000 1.0
C      1  0.3911200000000  0.4542970000000  0.5179820000000 1.0
C      1  0.4168750000000  0.5466660000000  0.5525820000000 1.0
C      1  0.4172600000000  0.4557510000000  0.5599400000000 1.0
C      1  0.4400080000000  0.6174070000000  0.4127230000000 1.0
C      1  0.5752170000000  0.4939670000000  0.4004260000000 1.0
C      1  0.5598620000000  0.5067640000000  0.5117620000000 1.0
C      1  0.6076740000000  0.5410600000000  0.4795550000000 1.0
C      1  0.5415930000000  0.4417160000000  0.4693930000000 1.0
C      1  0.4487320000000  0.5457120000000  0.5907980000000 1.0
C      1  0.4672700000000  0.5000690000000  0.5658010000000 1.0
C      1  0.5532880000000  0.4132610000000  0.5857900000000 1.0
C      1  0.3811460000000  0.4792100000000  0.5037660000000 1.0
C      1  0.5547790000000  0.4638000000000  0.4840660000000 1.0
C      1  0.4315880000000  0.4758940000000  0.4692200000000 1.0
C      1  0.4905520000000  0.6593120000000  0.5043990000000 1.0
C      1  0.4495510000000  0.4829350000000  0.5282640000000 1.0
C      1  0.5240620000000  0.4366650000000  0.5436320000000 1.0
C      1  0.3978990000000  0.5039060000000  0.4049190000000 1.0
C      1  0.4803770000000  0.5872470000000  0.5153180000000 1.0
C      1  0.4358220000000  0.5815050000000  0.5281040000000 1.0
C      1  0.4086100000000  0.5314900000000  0.4447750000000 1.0
C      1  0.5475610000000  0.6222740000000  0.4979150000000 1.0
C      1  0.5107180000000  0.4349850000000  0.4118060000000 1.0
C      1  0.4771300000000  0.4743480000000  0.5166680000000 1.0
C      1  0.4414070000000  0.5703100000000  0.4033970000000 1.0
C      1  0.5116480000000  0.6242460000000  0.4585110000000 1.0
C      1  0.4547460000000  0.5941380000000  0.4124420000000 1.0
C      1  0.5627550000000  0.5220790000000  0.4877550000000 1.0
C      1  0.5928330000000  0.4258100000000  0.5138620000000 1.0
C      1  0.5367200000000  0.5559320000000  0.5617270000000 1.0
C      1  0.3942700000000  0.5310180000000  0.5562010000000 1.0
C      1  0.4882900000000  0.4116150000000  0.5727880000000 1.0
C      1  0.4282390000000  0.4071360000000  0.4738590000000 1.0
C      1  0.4315690000000  0.5033350000000  0.4758030000000 1.0
C      1  0.4824050000000  0.5957530000000  0.4209950000000 1.0
C      1  0.4232710000000  0.4098810000000  0.5020550000000 1.0
C      1  0.5043290000000  0.5176640000000  0.5173300000000 1.0
C      1  0.5565900000000  0.3932180000000  0.5646920000000 1.0
C      1  0.5030170000000  0.4076190000000  0.5964910000000 1.0
C      1  0.5702560000000  0.4165050000000  0.5288580000000 1.0
C      1  0.4978560000000  0.6281300000000  0.5678480000000 1.0
C      1  0.6257010000000  0.4920580000000  0.4683390000000 1.0
C      1  0.6217730000000  0.4657610000000  0.4810960000000 1.0
C      1  0.4743010000000  0.4435330000000  0.5211240000000 1.0
C      1  0.5873800000000  0.4744410000000  0.4171480000000 1.0
C      1  0.4738420000000  0.5368040000000  0.4249440000000 1.0
C      1  0.4645350000000  0.4522230000000  0.4061820000000 1.0
C      1  0.4888500000000  0.4730680000000  0.4420750000000 1.0
C      1  0.6156380000000  0.4390200000000  0.4737710000000 1.0
C      1  0.5376430000000  0.5761880000000  0.5432850000000 1.0
C      1  0.5635730000000  0.4805820000000  0.4625350000000 1.0
C      1  0.5025830000000  0.4150480000000  0.4877710000000 1.0
C      1  0.4331990000000  0.4747180000000  0.6015590000000 1.0
C      1  0.4874420000000  0.4646060000000  0.6086680000000 1.0
C      1  0.3815800000000  0.5265650000000  0.4516200000000 1.0
C      1  0.5844250000000  0.3990960000000  0.4728780000000 1.0
C      1  0.4431710000000  0.3858850000000  0.4631170000000 1.0
C      1  0.5566750000000  0.4328430000000  0.4464310000000 1.0
C      1  0.4411450000000  0.5214920000000  0.6034150000000 1.0
C      1  0.5375190000000  0.4330280000000  0.4023100000000 1.0
C      1  0.5637800000000  0.5192150000000  0.5377140000000 1.0
C      1  0.5991210000000  0.4192530000000  0.4865840000000 1.0
C      1  0.3978390000000  0.5057920000000  0.5706280000000 1.0
END
