TITL C-599890-3321-978 79898.3961491664 125000 -821.507624223439 0 0 137 (C1) n - 1
REM
REM in /home/nfs/bkarasulu/CARBON/AIRSS/Generating-Clusters/TERSOFF/Only-C1/FIRE-HFTN
REM
REM
REM
REM
REM
REM ./C.cell (11c1c37f851c82e70ff6c80c92926a4b)
REM AIRSS Version 0.9.1 bugfix July 2018 build 013d7b7c2542+ Fri, 06 Jul 2018 19:26:36 +0100
REM compiler GCC version 9.2.1 20190827 (Red Hat 9.2.1-1)
REM options -cpp -mtune=generic -march=x86-64 -g -O0 -fpre-include=/usr/include/finclude/math-vector-fortran.h
REM seed 1555290243 2104809839 1048610298 -178293967 -586622544 680189029 -358315702 340836251 -1550130258 -1053356045 1080974186 -272226353 158091936 -984337924 1425863010 -131248574 831728540 -1001516374 -963539375 -1998329241 -759421738 2036056832 442542771 1619729126 -1762190484 712678584 -2046161931 -2084450393 -640589699 -1856963154 1286385683 -783650357 -1140458924
REM
CELL 1.54180   50.00000   50.00000   50.00000   90.00000   90.00000   90.00000
LATT -1
SFAC C  
C      1  0.5323120000000  0.4130380000000  0.5268950000000 1.0
C      1  0.4115710000000  0.5084560000000  0.5003200000000 1.0
C      1  0.4034230000000  0.5107640000000  0.4731070000000 1.0
C      1  0.5378100000000  0.5607230000000  0.4870840000000 1.0
C      1  0.4185930000000  0.4783760000000  0.4345370000000 1.0
C      1  0.4818440000000  0.5768800000000  0.3960770000000 1.0
C      1  0.5824380000000  0.5357810000000  0.4145270000000 1.0
C      1  0.4073980000000  0.4531760000000  0.4998200000000 1.0
C      1  0.5541200000000  0.4045290000000  0.5100600000000 1.0
C      1  0.5903450000000  0.5072460000000  0.4507940000000 1.0
C      1  0.5840170000000  0.5359340000000  0.4628430000000 1.0
C      1  0.4299110000000  0.4836800000000  0.5810750000000 1.0
C      1  0.4727290000000  0.4886280000000  0.5996630000000 1.0
C      1  0.4765810000000  0.4995280000000  0.5258040000000 1.0
C      1  0.5236280000000  0.6090990000000  0.4707640000000 1.0
C      1  0.5292840000000  0.5594860000000  0.6065060000000 1.0
C      1  0.4498520000000  0.5024430000000  0.5894450000000 1.0
C      1  0.4250350000000  0.4514520000000  0.5198940000000 1.0
C      1  0.5795650000000  0.4917700000000  0.5210980000000 1.0
C      1  0.4915770000000  0.4397180000000  0.4329880000000 1.0
C      1  0.5402660000000  0.4197110000000  0.6505530000000 1.0
C      1  0.4325250000000  0.4522000000000  0.4324910000000 1.0
C      1  0.4409770000000  0.4399120000000  0.4565360000000 1.0
C      1  0.4568520000000  0.4906300000000  0.4638910000000 1.0
C      1  0.4892330000000  0.6009510000000  0.5100550000000 1.0
C      1  0.5713670000000  0.4247180000000  0.4990870000000 1.0
C      1  0.5699340000000  0.5994380000000  0.4875790000000 1.0
C      1  0.4611150000000  0.5455640000000  0.5190050000000 1.0
C      1  0.4836880000000  0.4652970000000  0.5873200000000 1.0
C      1  0.5847660000000  0.6214520000000  0.4816880000000 1.0
C      1  0.4038100000000  0.4852400000000  0.4587860000000 1.0
C      1  0.5535090000000  0.5306770000000  0.4749490000000 1.0
C      1  0.5829360000000  0.5520220000000  0.4369090000000 1.0
C      1  0.5590760000000  0.3779310000000  0.5058530000000 1.0
C      1  0.5780450000000  0.4611200000000  0.4266930000000 1.0
C      1  0.4887040000000  0.5630840000000  0.5810140000000 1.0
C      1  0.5059060000000  0.5626820000000  0.4801950000000 1.0
C      1  0.5793450000000  0.4573120000000  0.4565750000000 1.0
C      1  0.4619310000000  0.6029690000000  0.5024610000000 1.0
C      1  0.4726900000000  0.4165690000000  0.5817610000000 1.0
C      1  0.4607310000000  0.5618200000000  0.4022620000000 1.0
C      1  0.4557060000000  0.5603160000000  0.5434950000000 1.0
C      1  0.4718280000000  0.4184710000000  0.4883250000000 1.0
C      1  0.4632510000000  0.5377390000000  0.4694130000000 1.0
C      1  0.5690210000000  0.4325220000000  0.4717070000000 1.0
C      1  0.4524130000000  0.4044090000000  0.5654240000000 1.0
C      1  0.5028610000000  0.5597180000000  0.4517950000000 1.0
C      1  0.5352770000000  0.4509880000000  0.4276870000000 1.0
C      1  0.5644340000000  0.5137070000000  0.5183580000000 1.0
C      1  0.5144650000000  0.4606360000000  0.4735990000000 1.0
C      1  0.4123470000000  0.5173350000000  0.5480350000000 1.0
C      1  0.5679050000000  0.4852410000000  0.4127820000000 1.0
C      1  0.5404990000000  0.4022040000000  0.5790970000000 1.0
C      1  0.4261010000000  0.4105770000000  0.5742470000000 1.0
C      1  0.5163610000000  0.6055450000000  0.4207140000000 1.0
C      1  0.4862080000000  0.4683180000000  0.5593990000000 1.0
C      1  0.4354090000000  0.4966490000000  0.4175990000000 1.0
C      1  0.4854740000000  0.4890500000000  0.3971110000000 1.0
C      1  0.4919730000000  0.4582320000000  0.4543070000000 1.0
C      1  0.4675080000000  0.5493710000000  0.5689810000000 1.0
C      1  0.5680590000000  0.3979780000000  0.6222500000000 1.0
C      1  0.5038740000000  0.5091580000000  0.4890430000000 1.0
C      1  0.5831190000000  0.5080520000000  0.4215660000000 1.0
C      1  0.4478170000000  0.5295550000000  0.5798620000000 1.0
C      1  0.6021650000000  0.5464110000000  0.4834790000000 1.0
C      1  0.4262050000000  0.5114130000000  0.5239260000000 1.0
C      1  0.5123650000000  0.4319210000000  0.5183030000000 1.0
C      1  0.5153930000000  0.5273820000000  0.5110890000000 1.0
C      1  0.5447070000000  0.5622020000000  0.5442690000000 1.0
C      1  0.4564830000000  0.3975150000000  0.5375910000000 1.0
C      1  0.5055460000000  0.5154250000000  0.4601660000000 1.0
C      1  0.4276210000000  0.4592730000000  0.5673110000000 1.0
C      1  0.4959220000000  0.4086120000000  0.4749480000000 1.0
C      1  0.4402850000000  0.5213740000000  0.4304400000000 1.0
C      1  0.5373590000000  0.4694740000000  0.5204380000000 1.0
C      1  0.5095840000000  0.6148300000000  0.4463760000000 1.0
C      1  0.5345660000000  0.4732970000000  0.4572480000000 1.0
C      1  0.5408050000000  0.4889560000000  0.4010520000000 1.0
C      1  0.4248530000000  0.5839840000000  0.4744820000000 1.0
C      1  0.4693080000000  0.4118220000000  0.5166350000000 1.0
C      1  0.5531510000000  0.5668980000000  0.5176920000000 1.0
C      1  0.5489120000000  0.4267940000000  0.4315850000000 1.0
C      1  0.4223530000000  0.5371790000000  0.5656420000000 1.0
C      1  0.5270140000000  0.4201210000000  0.6247470000000 1.0
C      1  0.5660920000000  0.4672870000000  0.5222630000000 1.0
C      1  0.5994140000000  0.5645230000000  0.5032980000000 1.0
C      1  0.5430250000000  0.5345950000000  0.5524580000000 1.0
C      1  0.5110150000000  0.4447830000000  0.4150560000000 1.0
C      1  0.4472660000000  0.5171460000000  0.4584540000000 1.0
C      1  0.5087080000000  0.6146070000000  0.4946060000000 1.0
C      1  0.5151940000000  0.5716940000000  0.5850480000000 1.0
C      1  0.5252040000000  0.5498470000000  0.4356700000000 1.0
C      1  0.5243980000000  0.4898050000000  0.5361840000000 1.0
C      1  0.4627900000000  0.4734150000000  0.4869180000000 1.0
C      1  0.4006940000000  0.5376710000000  0.4645800000000 1.0
C      1  0.4580420000000  0.6161180000000  0.4573240000000 1.0
C      1  0.4824910000000  0.6230400000000  0.4488440000000 1.0
C      1  0.5331490000000  0.4051840000000  0.5537970000000 1.0
C      1  0.5132620000000  0.4909400000000  0.3970120000000 1.0
C      1  0.4276440000000  0.5623010000000  0.5515370000000 1.0
C      1  0.4850910000000  0.4379670000000  0.5964050000000 1.0
C      1  0.5223770000000  0.4077650000000  0.4676200000000 1.0
C      1  0.4417470000000  0.4549710000000  0.5424030000000 1.0
C      1  0.4728590000000  0.5513960000000  0.4926700000000 1.0
C      1  0.5645950000000  0.4064730000000  0.6484780000000 1.0
C      1  0.5459230000000  0.5919230000000  0.4745180000000 1.0
C      1  0.5489800000000  0.5261900000000  0.5786010000000 1.0
C      1  0.5783650000000  0.4854280000000  0.4656690000000 1.0
C      1  0.4775060000000  0.4815160000000  0.4467850000000 1.0
C      1  0.5442640000000  0.5372240000000  0.6027700000000 1.0
C      1  0.5265600000000  0.5223460000000  0.4410100000000 1.0
C      1  0.4981910000000  0.5780740000000  0.5240380000000 1.0
C      1  0.5048910000000  0.5519030000000  0.5222290000000 1.0
C      1  0.4857690000000  0.5362560000000  0.4521470000000 1.0
C      1  0.5368580000000  0.5164100000000  0.5297570000000 1.0
C      1  0.5451980000000  0.4058710000000  0.6061120000000 1.0
C      1  0.5030100000000  0.4313050000000  0.6168050000000 1.0
C      1  0.4094280000000  0.5629900000000  0.4678380000000 1.0
C      1  0.4857240000000  0.4322380000000  0.5282390000000 1.0
C      1  0.4834300000000  0.4901440000000  0.4998300000000 1.0
C      1  0.5480680000000  0.4172190000000  0.4580080000000 1.0
C      1  0.5209730000000  0.4541130000000  0.5018650000000 1.0
C      1  0.5315170000000  0.5794520000000  0.5627530000000 1.0
C      1  0.4576410000000  0.4818440000000  0.4032090000000 1.0
C      1  0.5032360000000  0.5918510000000  0.4017220000000 1.0
C      1  0.3984090000000  0.4634930000000  0.4766560000000 1.0
C      1  0.4544600000000  0.5174410000000  0.5239200000000 1.0
C      1  0.5799900000000  0.4438380000000  0.5173610000000 1.0
C      1  0.4964990000000  0.4898020000000  0.5446020000000 1.0
C      1  0.5508900000000  0.4958390000000  0.4691700000000 1.0
C      1  0.5766320000000  0.5803860000000  0.5083150000000 1.0
C      1  0.4162590000000  0.4355840000000  0.5777920000000 1.0
C      1  0.4706310000000  0.4511040000000  0.5431300000000 1.0
C      1  0.4464320000000  0.6017590000000  0.4786760000000 1.0
C      1  0.4497600000000  0.4541650000000  0.4091180000000 1.0
C      1  0.4455360000000  0.5445360000000  0.4157030000000 1.0
C      1  0.4579630000000  0.4435630000000  0.4798470000000 1.0
END
