TITL C-599895-9959-478 0.613014381433198 125000 -1224.31212888705 0 0 196 (C1) n - 1
REM
REM in /home/nfs/bkarasulu/CARBON/AIRSS/Generating-Clusters/TERSOFF/Only-C1/FIRE-HFTN
REM
REM
REM
REM
REM
REM ./C.cell (11c1c37f851c82e70ff6c80c92926a4b)
REM AIRSS Version 0.9.1 bugfix July 2018 build 013d7b7c2542+ Fri, 06 Jul 2018 19:26:36 +0100
REM compiler GCC version 9.2.1 20190827 (Red Hat 9.2.1-1)
REM options -cpp -mtune=generic -march=x86-64 -g -O0 -fpre-include=/usr/include/finclude/math-vector-fortran.h
REM seed 521409497 -1997918223 -1474505886 1205983742 1977032040 54804661 -1656932737 1005330754 97664238 -1557202204 -1840714361 1018475471 564354194 1323294387 1157020977 649234147 1319569174 697755382 1687183322 -1124906288 -779139132 -1804209899 585976536 1448623817 -1837058312 -1486010853 1274485980 481477020 -616238998 1830806783 2081406136 -586474780 332291610
REM
CELL 1.54180   50.00000   50.00000   50.00000   90.00000   90.00000   90.00000
LATT -1
SFAC C  
C      1  0.4700810000000  0.5635020000000  0.5467040000000 1.0
C      1  0.4042410000000  0.3752880000000  0.5153680000000 1.0
C      1  0.4679300000000  0.4902350000000  0.5594990000000 1.0
C      1  0.5471530000000  0.5939810000000  0.4323790000000 1.0
C      1  0.5886960000000  0.5044200000000  0.6299270000000 1.0
C      1  0.4086220000000  0.4463270000000  0.4324740000000 1.0
C      1  0.6411730000000  0.4563110000000  0.5248470000000 1.0
C      1  0.6219970000000  0.4815300000000  0.4601420000000 1.0
C      1  0.3709460000000  0.5106630000000  0.4602050000000 1.0
C      1  0.5784270000000  0.4833140000000  0.4195990000000 1.0
C      1  0.6419420000000  0.4838630000000  0.5364260000000 1.0
C      1  0.5302310000000  0.4823730000000  0.4864190000000 1.0
C      1  0.4718140000000  0.5852700000000  0.4345980000000 1.0
C      1  0.5076780000000  0.4292850000000  0.5822380000000 1.0
C      1  0.6181220000000  0.5266640000000  0.4812560000000 1.0
C      1  0.3832800000000  0.4766790000000  0.5152550000000 1.0
C      1  0.5331620000000  0.3945780000000  0.5226640000000 1.0
C      1  0.4196920000000  0.4448370000000  0.5363670000000 1.0
C      1  0.5958450000000  0.5681520000000  0.5143930000000 1.0
C      1  0.3902110000000  0.5263170000000  0.4753630000000 1.0
C      1  0.5143660000000  0.6151040000000  0.4943790000000 1.0
C      1  0.4277980000000  0.4612030000000  0.3496550000000 1.0
C      1  0.4496330000000  0.4637990000000  0.6035010000000 1.0
C      1  0.5364170000000  0.5149240000000  0.3689140000000 1.0
C      1  0.5841830000000  0.4629580000000  0.4397570000000 1.0
C      1  0.5133270000000  0.4725990000000  0.5999920000000 1.0
C      1  0.5770240000000  0.5803540000000  0.5621660000000 1.0
C      1  0.5398420000000  0.5312140000000  0.5314550000000 1.0
C      1  0.4998230000000  0.5927350000000  0.4391070000000 1.0
C      1  0.5543000000000  0.5977110000000  0.5228740000000 1.0
C      1  0.4886850000000  0.3904260000000  0.5487770000000 1.0
C      1  0.5353140000000  0.5850380000000  0.5405610000000 1.0
C      1  0.5471360000000  0.6171130000000  0.4501540000000 1.0
C      1  0.4566320000000  0.5955430000000  0.4575310000000 1.0
C      1  0.5226300000000  0.5802300000000  0.4269430000000 1.0
C      1  0.4055940000000  0.4978870000000  0.5908510000000 1.0
C      1  0.5001340000000  0.4566520000000  0.5823890000000 1.0
C      1  0.6066120000000  0.5478910000000  0.4663310000000 1.0
C      1  0.5963680000000  0.5707420000000  0.4831620000000 1.0
C      1  0.5621110000000  0.5179410000000  0.5849540000000 1.0
C      1  0.5879520000000  0.3881140000000  0.4861180000000 1.0
C      1  0.6417160000000  0.4979640000000  0.5610500000000 1.0
C      1  0.5207250000000  0.5081090000000  0.4919120000000 1.0
C      1  0.4597680000000  0.4884940000000  0.6151980000000 1.0
C      1  0.4291880000000  0.4529420000000  0.5856740000000 1.0
C      1  0.5597050000000  0.5748880000000  0.5834570000000 1.0
C      1  0.4855890000000  0.5363160000000  0.4681090000000 1.0
C      1  0.4889710000000  0.4906870000000  0.5208300000000 1.0
C      1  0.4437720000000  0.4080620000000  0.5603900000000 1.0
C      1  0.5602200000000  0.5449300000000  0.4887620000000 1.0
C      1  0.6209110000000  0.5251160000000  0.5093900000000 1.0
C      1  0.5177320000000  0.5984540000000  0.5578380000000 1.0
C      1  0.5129020000000  0.5112040000000  0.5703610000000 1.0
C      1  0.4679390000000  0.5664180000000  0.6023990000000 1.0
C      1  0.5796300000000  0.5853290000000  0.5324300000000 1.0
C      1  0.4444240000000  0.3958460000000  0.5324130000000 1.0
C      1  0.5121850000000  0.5875650000000  0.5844970000000 1.0
C      1  0.3773570000000  0.5492340000000  0.5168520000000 1.0
C      1  0.5425660000000  0.4362790000000  0.5429400000000 1.0
C      1  0.4496000000000  0.4167260000000  0.4357090000000 1.0
C      1  0.4304590000000  0.5099940000000  0.5828770000000 1.0
C      1  0.5658670000000  0.3745350000000  0.4934960000000 1.0
C      1  0.3502590000000  0.5223810000000  0.4466810000000 1.0
C      1  0.4565110000000  0.4634910000000  0.4605290000000 1.0
C      1  0.5406950000000  0.4198420000000  0.4678120000000 1.0
C      1  0.5324490000000  0.5698410000000  0.5947030000000 1.0
C      1  0.5454130000000  0.4208280000000  0.5183360000000 1.0
C      1  0.5254410000000  0.4207080000000  0.5613340000000 1.0
C      1  0.4419000000000  0.5132940000000  0.3851920000000 1.0
C      1  0.6246080000000  0.5186530000000  0.5663660000000 1.0
C      1  0.6049570000000  0.4781420000000  0.5105690000000 1.0
C      1  0.4410690000000  0.5771250000000  0.4719320000000 1.0
C      1  0.4739090000000  0.5889430000000  0.5588750000000 1.0
C      1  0.4728140000000  0.5390960000000  0.5611880000000 1.0
C      1  0.5131650000000  0.4616070000000  0.4944220000000 1.0
C      1  0.4771520000000  0.5141520000000  0.5140720000000 1.0
C      1  0.5109540000000  0.5214940000000  0.4687400000000 1.0
C      1  0.5762060000000  0.4796120000000  0.5020290000000 1.0
C      1  0.3422220000000  0.5436220000000  0.6103410000000 1.0
C      1  0.4550700000000  0.5138070000000  0.4977860000000 1.0
C      1  0.3218860000000  0.5592930000000  0.6148720000000 1.0
C      1  0.4939660000000  0.5363760000000  0.5164540000000 1.0
C      1  0.4987930000000  0.5334120000000  0.6178150000000 1.0
C      1  0.4578000000000  0.5310360000000  0.4757450000000 1.0
C      1  0.5595690000000  0.5120360000000  0.5378980000000 1.0
C      1  0.3629230000000  0.5277860000000  0.6055190000000 1.0
C      1  0.4350860000000  0.4370720000000  0.4173960000000 1.0
C      1  0.4938450000000  0.5628160000000  0.4734810000000 1.0
C      1  0.6070560000000  0.5434340000000  0.5268870000000 1.0
C      1  0.4710880000000  0.3990870000000  0.5715260000000 1.0
C      1  0.4706830000000  0.6171670000000  0.4700620000000 1.0
C      1  0.4598800000000  0.5187530000000  0.4051750000000 1.0
C      1  0.5012980000000  0.3792590000000  0.4663030000000 1.0
C      1  0.5513640000000  0.4629360000000  0.5422770000000 1.0
C      1  0.4221450000000  0.5027490000000  0.5322580000000 1.0
C      1  0.5362590000000  0.5268740000000  0.4548530000000 1.0
C      1  0.5175010000000  0.3688410000000  0.4850040000000 1.0
C      1  0.4109620000000  0.5497630000000  0.4337290000000 1.0
C      1  0.4993060000000  0.6123420000000  0.4684990000000 1.0
C      1  0.5784910000000  0.5011630000000  0.4792770000000 1.0
C      1  0.4710150000000  0.5386750000000  0.6084940000000 1.0
C      1  0.5229770000000  0.5432390000000  0.6032640000000 1.0
C      1  0.4306700000000  0.4345680000000  0.5622550000000 1.0
C      1  0.5011220000000  0.5442520000000  0.3953500000000 1.0
C      1  0.4767650000000  0.4270600000000  0.5217630000000 1.0
C      1  0.6019340000000  0.4106150000000  0.4811990000000 1.0
C      1  0.4870450000000  0.4116710000000  0.5912130000000 1.0
C      1  0.5206070000000  0.5532110000000  0.4153740000000 1.0
C      1  0.6087250000000  0.4568790000000  0.4551760000000 1.0
C      1  0.6185560000000  0.4524920000000  0.5062870000000 1.0
C      1  0.5889310000000  0.5114670000000  0.4263270000000 1.0
C      1  0.5105350000000  0.5203740000000  0.3805920000000 1.0
C      1  0.4931190000000  0.6062960000000  0.5444450000000 1.0
C      1  0.3942660000000  0.4725070000000  0.4397030000000 1.0
C      1  0.4828220000000  0.5848810000000  0.5868540000000 1.0
C      1  0.5798840000000  0.5893770000000  0.4679070000000 1.0
C      1  0.5167650000000  0.3960220000000  0.5467880000000 1.0
C      1  0.3744790000000  0.4817350000000  0.4605650000000 1.0
C      1  0.5047010000000  0.4681330000000  0.3930040000000 1.0
C      1  0.5204660000000  0.5026450000000  0.4212330000000 1.0
C      1  0.5196970000000  0.5249940000000  0.5139440000000 1.0
C      1  0.5220770000000  0.4320670000000  0.4193020000000 1.0
C      1  0.4336710000000  0.4146830000000  0.4608950000000 1.0
C      1  0.4360360000000  0.5492900000000  0.4724180000000 1.0
C      1  0.4173800000000  0.4389030000000  0.4605000000000 1.0
C      1  0.4594340000000  0.5657280000000  0.4175290000000 1.0
C      1  0.4641880000000  0.4999870000000  0.4258760000000 1.0
C      1  0.4980840000000  0.4695780000000  0.4484040000000 1.0
C      1  0.4354980000000  0.4970480000000  0.5074500000000 1.0
C      1  0.4853780000000  0.5134350000000  0.5640650000000 1.0
C      1  0.4328270000000  0.3978570000000  0.4836260000000 1.0
C      1  0.4293580000000  0.4719430000000  0.4972570000000 1.0
C      1  0.4395550000000  0.4572240000000  0.3725740000000 1.0
C      1  0.4992300000000  0.5108940000000  0.6353230000000 1.0
C      1  0.5600560000000  0.5224550000000  0.4717370000000 1.0
C      1  0.4056450000000  0.4694600000000  0.5879210000000 1.0
C      1  0.5387540000000  0.3756760000000  0.5022300000000 1.0
C      1  0.4819990000000  0.4636110000000  0.5609740000000 1.0
C      1  0.6233440000000  0.4983390000000  0.5187000000000 1.0
C      1  0.4596440000000  0.4373430000000  0.5023760000000 1.0
C      1  0.4108870000000  0.5409770000000  0.4610670000000 1.0
C      1  0.3690740000000  0.5706160000000  0.5292300000000 1.0
C      1  0.5418270000000  0.5640570000000  0.4899370000000 1.0
C      1  0.4393710000000  0.5001410000000  0.5566260000000 1.0
C      1  0.4589550000000  0.6395750000000  0.4800530000000 1.0
C      1  0.5526850000000  0.4296730000000  0.4922940000000 1.0
C      1  0.5439570000000  0.6108000000000  0.4988760000000 1.0
C      1  0.6069010000000  0.5027750000000  0.4710030000000 1.0
C      1  0.5005800000000  0.4660540000000  0.5187590000000 1.0
C      1  0.4271510000000  0.3895900000000  0.5105620000000 1.0
C      1  0.3931660000000  0.4554010000000  0.5321470000000 1.0
C      1  0.5721600000000  0.5815820000000  0.4398430000000 1.0
C      1  0.4718310000000  0.4789120000000  0.4424900000000 1.0
C      1  0.4176370000000  0.4870270000000  0.4499200000000 1.0
C      1  0.5634740000000  0.4614140000000  0.4591700000000 1.0
C      1  0.4881690000000  0.4483370000000  0.5365810000000 1.0
C      1  0.5727220000000  0.4516440000000  0.4869490000000 1.0
C      1  0.4709340000000  0.4459300000000  0.4780370000000 1.0
C      1  0.4813890000000  0.5605080000000  0.5213810000000 1.0
C      1  0.5959430000000  0.5384760000000  0.4390420000000 1.0
C      1  0.5243880000000  0.4168740000000  0.4447010000000 1.0
C      1  0.4736490000000  0.5442170000000  0.4046180000000 1.0
C      1  0.4976610000000  0.6161840000000  0.5182470000000 1.0
C      1  0.5172070000000  0.5708440000000  0.4833100000000 1.0
C      1  0.3741400000000  0.4717480000000  0.4880230000000 1.0
C      1  0.5604270000000  0.6107650000000  0.4754030000000 1.0
C      1  0.4779970000000  0.4117570000000  0.4321300000000 1.0
C      1  0.4360820000000  0.4493120000000  0.5129240000000 1.0
C      1  0.5532210000000  0.4950730000000  0.3778700000000 1.0
C      1  0.4520150000000  0.4491780000000  0.3963500000000 1.0
C      1  0.5312040000000  0.5290060000000  0.4274910000000 1.0
C      1  0.4519270000000  0.5146710000000  0.6030590000000 1.0
C      1  0.5216800000000  0.4821960000000  0.4407500000000 1.0
C      1  0.5377620000000  0.5569930000000  0.5420100000000 1.0
C      1  0.5606750000000  0.4853290000000  0.5273710000000 1.0
C      1  0.4994890000000  0.4009930000000  0.4487160000000 1.0
C      1  0.5063150000000  0.4964330000000  0.3968550000000 1.0
C      1  0.4926590000000  0.4280050000000  0.4126850000000 1.0
C      1  0.5847190000000  0.5610920000000  0.4258070000000 1.0
C      1  0.5564420000000  0.4758140000000  0.3997890000000 1.0
C      1  0.4806990000000  0.4909260000000  0.6342790000000 1.0
C      1  0.5759100000000  0.5200530000000  0.5598050000000 1.0
C      1  0.4291130000000  0.4667220000000  0.4688820000000 1.0
C      1  0.4728880000000  0.3996040000000  0.5267580000000 1.0
C      1  0.4813710000000  0.4498410000000  0.3977460000000 1.0
C      1  0.3873000000000  0.5260400000000  0.5045930000000 1.0
C      1  0.5320210000000  0.4557630000000  0.4030360000000 1.0
C      1  0.5411400000000  0.4777420000000  0.4602710000000 1.0
C      1  0.5336060000000  0.5224360000000  0.5861640000000 1.0
C      1  0.6019810000000  0.5309140000000  0.5534400000000 1.0
C      1  0.5759940000000  0.5108380000000  0.6080990000000 1.0
C      1  0.4977520000000  0.4526830000000  0.4725330000000 1.0
C      1  0.3837170000000  0.5124590000000  0.5996690000000 1.0
C      1  0.6028150000000  0.4405660000000  0.4820290000000 1.0
C      1  0.4309340000000  0.5617000000000  0.4195150000000 1.0
C      1  0.3939990000000  0.5034430000000  0.5219910000000 1.0
END
