TITL C-599896-8500-1142 28216.8327939344 125000 -645.656795462938 0 0 107 (C1) n - 1
REM
REM in /home/nfs/bkarasulu/CARBON/AIRSS/Generating-Clusters/TERSOFF/Only-C1/FIRE-HFTN
REM
REM
REM
REM
REM
REM ./C.cell (11c1c37f851c82e70ff6c80c92926a4b)
REM AIRSS Version 0.9.1 bugfix July 2018 build 013d7b7c2542+ Fri, 06 Jul 2018 19:26:36 +0100
REM compiler GCC version 9.2.1 20190827 (Red Hat 9.2.1-1)
REM options -cpp -mtune=generic -march=x86-64 -g -O0 -fpre-include=/usr/include/finclude/math-vector-fortran.h
REM seed -573674531 -1727831499 234798159 -1850671605 2054562220 -1468111237 1342715812 849699638 -224287040 -150681535 1178304806 2121362422 872540969 -447386889 1149064884 797893116 1581714311 -2084287790 -2036763347 -1652324987 -1457795704 1490880005 461348822 -883827924 1829599420 -2046722360 1290137685 1562863131 1445325239 -679289369 220170825 1273381982 -1163208307
REM
CELL 1.54180   50.00000   50.00000   50.00000   90.00000   90.00000   90.00000
LATT -1
SFAC C  
C      1  0.4771390000000  0.4325680000000  0.5347820000000 1.0
C      1  0.5254910000000  0.4114430000000  0.4227930000000 1.0
C      1  0.5593390000000  0.4470770000000  0.4243570000000 1.0
C      1  0.4748130000000  0.5067200000000  0.5548510000000 1.0
C      1  0.4818580000000  0.5725910000000  0.4500340000000 1.0
C      1  0.4734820000000  0.5039000000000  0.4597350000000 1.0
C      1  0.4336800000000  0.5771470000000  0.4643990000000 1.0
C      1  0.4657550000000  0.4786780000000  0.4600410000000 1.0
C      1  0.4833160000000  0.5688530000000  0.5944560000000 1.0
C      1  0.5675070000000  0.5514000000000  0.5516850000000 1.0
C      1  0.4931490000000  0.4455450000000  0.4423940000000 1.0
C      1  0.4164720000000  0.4879110000000  0.4409580000000 1.0
C      1  0.5520510000000  0.5638600000000  0.4546490000000 1.0
C      1  0.4901730000000  0.5267220000000  0.5402100000000 1.0
C      1  0.4887230000000  0.4542130000000  0.5196550000000 1.0
C      1  0.5859650000000  0.5415190000000  0.5077200000000 1.0
C      1  0.4357520000000  0.5615060000000  0.5248060000000 1.0
C      1  0.4807290000000  0.5463140000000  0.4380330000000 1.0
C      1  0.4749490000000  0.4499190000000  0.4670220000000 1.0
C      1  0.5974630000000  0.4722690000000  0.5206790000000 1.0
C      1  0.4898080000000  0.4702690000000  0.5846740000000 1.0
C      1  0.5491760000000  0.4231200000000  0.4179070000000 1.0
C      1  0.5478280000000  0.4397310000000  0.5662180000000 1.0
C      1  0.5315860000000  0.5140400000000  0.5623530000000 1.0
C      1  0.4874220000000  0.5544720000000  0.6163400000000 1.0
C      1  0.4251820000000  0.4474790000000  0.4656850000000 1.0
C      1  0.4542940000000  0.4765040000000  0.4111180000000 1.0
C      1  0.5505080000000  0.5743200000000  0.5540510000000 1.0
C      1  0.5852500000000  0.4631180000000  0.5442970000000 1.0
C      1  0.5038280000000  0.5771500000000  0.4697350000000 1.0
C      1  0.4286750000000  0.4622790000000  0.5371530000000 1.0
C      1  0.5199030000000  0.5300940000000  0.4741390000000 1.0
C      1  0.5302780000000  0.5849980000000  0.5391460000000 1.0
C      1  0.5216120000000  0.4283790000000  0.5628020000000 1.0
C      1  0.5673680000000  0.4716410000000  0.4661100000000 1.0
C      1  0.5417340000000  0.4911670000000  0.5519800000000 1.0
C      1  0.5529210000000  0.4686260000000  0.4412060000000 1.0
C      1  0.5481810000000  0.4363310000000  0.4948490000000 1.0
C      1  0.4240600000000  0.5140030000000  0.5410390000000 1.0
C      1  0.4670950000000  0.5925030000000  0.5007330000000 1.0
C      1  0.5390580000000  0.5309090000000  0.5197140000000 1.0
C      1  0.4847240000000  0.5121970000000  0.4039720000000 1.0
C      1  0.4680670000000  0.4595430000000  0.5965770000000 1.0
C      1  0.5097520000000  0.4771050000000  0.4856910000000 1.0
C      1  0.5530320000000  0.4636490000000  0.4892480000000 1.0
C      1  0.5052110000000  0.5856720000000  0.5256160000000 1.0
C      1  0.5984880000000  0.5080060000000  0.4579970000000 1.0
C      1  0.5650510000000  0.5411590000000  0.5250970000000 1.0
C      1  0.6077990000000  0.4757920000000  0.4944620000000 1.0
C      1  0.4986650000000  0.5397740000000  0.4957390000000 1.0
C      1  0.4200530000000  0.5397660000000  0.4318120000000 1.0
C      1  0.5290670000000  0.4794280000000  0.5298590000000 1.0
C      1  0.4462880000000  0.4733100000000  0.4989960000000 1.0
C      1  0.4495170000000  0.4333010000000  0.4739890000000 1.0
C      1  0.6349540000000  0.4703270000000  0.4902100000000 1.0
C      1  0.4885760000000  0.5261720000000  0.4556850000000 1.0
C      1  0.4804830000000  0.5337650000000  0.5149170000000 1.0
C      1  0.5923330000000  0.5324530000000  0.4494170000000 1.0
C      1  0.4822580000000  0.4843020000000  0.4112520000000 1.0
C      1  0.4065220000000  0.4908110000000  0.4921440000000 1.0
C      1  0.4398270000000  0.4528370000000  0.4189270000000 1.0
C      1  0.4402820000000  0.5258960000000  0.4178560000000 1.0
C      1  0.4211140000000  0.4585350000000  0.4402740000000 1.0
C      1  0.5843630000000  0.5058720000000  0.5737280000000 1.0
C      1  0.5921480000000  0.4844530000000  0.4718150000000 1.0
C      1  0.5793310000000  0.5323590000000  0.5695210000000 1.0
C      1  0.4484240000000  0.4344020000000  0.5270820000000 1.0
C      1  0.5028430000000  0.4206320000000  0.4338500000000 1.0
C      1  0.4136670000000  0.5335730000000  0.4592710000000 1.0
C      1  0.5801320000000  0.4778890000000  0.5697980000000 1.0
C      1  0.5268310000000  0.5589340000000  0.4655100000000 1.0
C      1  0.4565440000000  0.5814680000000  0.5258430000000 1.0
C      1  0.4123290000000  0.4928270000000  0.5226460000000 1.0
C      1  0.4808560000000  0.5788160000000  0.5700310000000 1.0
C      1  0.5279000000000  0.4832080000000  0.4373180000000 1.0
C      1  0.5025190000000  0.4720340000000  0.5362830000000 1.0
C      1  0.4373620000000  0.5457080000000  0.5004880000000 1.0
C      1  0.5020480000000  0.4182010000000  0.5434100000000 1.0
C      1  0.4806910000000  0.5821710000000  0.5424540000000 1.0
C      1  0.4914790000000  0.4565220000000  0.4915660000000 1.0
C      1  0.4215760000000  0.4661690000000  0.4867580000000 1.0
C      1  0.5190500000000  0.5296020000000  0.5421390000000 1.0
C      1  0.6603600000000  0.4661470000000  0.4861790000000 1.0
C      1  0.5157160000000  0.4059880000000  0.5212740000000 1.0
C      1  0.4905310000000  0.4830340000000  0.5595960000000 1.0
C      1  0.4435310000000  0.4609720000000  0.5853590000000 1.0
C      1  0.4551270000000  0.4978900000000  0.5027420000000 1.0
C      1  0.4562310000000  0.5251730000000  0.5044190000000 1.0
C      1  0.4086800000000  0.5052010000000  0.4648880000000 1.0
C      1  0.5756880000000  0.5532380000000  0.4483620000000 1.0
C      1  0.4459680000000  0.5016990000000  0.5565120000000 1.0
C      1  0.4921720000000  0.5384520000000  0.6363500000000 1.0
C      1  0.4961350000000  0.5879950000000  0.4965380000000 1.0
C      1  0.4248760000000  0.5529920000000  0.4766540000000 1.0
C      1  0.5344710000000  0.4845740000000  0.5005860000000 1.0
C      1  0.5680330000000  0.4394610000000  0.5448810000000 1.0
C      1  0.5593210000000  0.4609750000000  0.5834280000000 1.0
C      1  0.5023360000000  0.4704490000000  0.4284110000000 1.0
C      1  0.4456330000000  0.4229180000000  0.5007750000000 1.0
C      1  0.4354060000000  0.4978800000000  0.4196390000000 1.0
C      1  0.5281130000000  0.5092190000000  0.4482760000000 1.0
C      1  0.4566970000000  0.5852480000000  0.4528190000000 1.0
C      1  0.4377200000000  0.4738850000000  0.5611520000000 1.0
C      1  0.5340900000000  0.4154190000000  0.5039250000000 1.0
C      1  0.4227000000000  0.5427990000000  0.5426100000000 1.0
C      1  0.5364510000000  0.5149550000000  0.4956400000000 1.0
C      1  0.4682830000000  0.5335110000000  0.4152300000000 1.0
END
