TITL C-599897-7526-107 7.46541491441152e-05 125000 -837.459280240506 0 0 136 (C1) n - 1
REM
REM in /home/nfs/bkarasulu/CARBON/AIRSS/Generating-Clusters/TERSOFF/Only-C1/FIRE-HFTN
REM
REM
REM
REM
REM
REM ./C.cell (11c1c37f851c82e70ff6c80c92926a4b)
REM AIRSS Version 0.9.1 bugfix July 2018 build 013d7b7c2542+ Fri, 06 Jul 2018 19:26:36 +0100
REM compiler GCC version 9.2.1 20190827 (Red Hat 9.2.1-1)
REM options -cpp -mtune=generic -march=x86-64 -g -O0 -fpre-include=/usr/include/finclude/math-vector-fortran.h
REM seed 1348924578 -1663206824 -1996055266 -1785711284 1593475814 1096310255 1382011780 -1568653103 235639005 1241425922 -1590939033 -1344956790 -606972104 1817747961 2101630375 991617134 -536187103 -645622838 352951419 -2069532672 -1284127444 -2022738104 44545446 567807509 -76716844 -345893942 89457228 1812448076 2143620902 624409305 1872624879 -1986610974 -973826728
REM
CELL 1.54180   50.00000   50.00000   50.00000   90.00000   90.00000   90.00000
LATT -1
SFAC C  
C      1  0.5744810000000  0.5014440000000  0.5260380000000 1.0
C      1  0.5578770000000  0.6170580000000  0.4986660000000 1.0
C      1  0.4682850000000  0.4841850000000  0.4709580000000 1.0
C      1  0.4309550000000  0.5408990000000  0.5790980000000 1.0
C      1  0.4251710000000  0.5020140000000  0.4323110000000 1.0
C      1  0.5619930000000  0.4562380000000  0.5873460000000 1.0
C      1  0.5505510000000  0.5270110000000  0.4328130000000 1.0
C      1  0.4230100000000  0.4963690000000  0.5211930000000 1.0
C      1  0.4802630000000  0.5351030000000  0.5407530000000 1.0
C      1  0.4421150000000  0.4762440000000  0.3801080000000 1.0
C      1  0.4721220000000  0.4941930000000  0.5181610000000 1.0
C      1  0.4711950000000  0.4466890000000  0.5383070000000 1.0
C      1  0.4583170000000  0.5220990000000  0.5230070000000 1.0
C      1  0.4957550000000  0.5586770000000  0.5822610000000 1.0
C      1  0.4657750000000  0.5124810000000  0.4734530000000 1.0
C      1  0.4290800000000  0.4683480000000  0.5811660000000 1.0
C      1  0.5225120000000  0.5114200000000  0.4699140000000 1.0
C      1  0.5005870000000  0.5396160000000  0.5184550000000 1.0
C      1  0.5539080000000  0.4975860000000  0.5467520000000 1.0
C      1  0.5252090000000  0.5524280000000  0.5807500000000 1.0
C      1  0.5827000000000  0.5751950000000  0.5370160000000 1.0
C      1  0.4392990000000  0.5168020000000  0.5951280000000 1.0
C      1  0.5184770000000  0.3532860000000  0.4579740000000 1.0
C      1  0.4665010000000  0.5240400000000  0.6031520000000 1.0
C      1  0.5298430000000  0.5977110000000  0.5599620000000 1.0
C      1  0.5792880000000  0.4819930000000  0.5053310000000 1.0
C      1  0.5220210000000  0.4344380000000  0.6003820000000 1.0
C      1  0.4939030000000  0.5503900000000  0.4674670000000 1.0
C      1  0.4243200000000  0.5366580000000  0.4824640000000 1.0
C      1  0.4753780000000  0.5747600000000  0.4111790000000 1.0
C      1  0.5541060000000  0.5047990000000  0.5748510000000 1.0
C      1  0.3920590000000  0.5203390000000  0.5634110000000 1.0
C      1  0.4452210000000  0.4387830000000  0.6150950000000 1.0
C      1  0.5949700000000  0.4603770000000  0.4954620000000 1.0
C      1  0.5406510000000  0.6211520000000  0.5186440000000 1.0
C      1  0.5151720000000  0.4595700000000  0.4632240000000 1.0
C      1  0.5152360000000  0.5072360000000  0.4043890000000 1.0
C      1  0.3941340000000  0.4936560000000  0.4737030000000 1.0
C      1  0.4886930000000  0.5990890000000  0.4969400000000 1.0
C      1  0.4396490000000  0.4454560000000  0.4630170000000 1.0
C      1  0.4298040000000  0.4757450000000  0.5025180000000 1.0
C      1  0.4879640000000  0.5108910000000  0.5906810000000 1.0
C      1  0.5630610000000  0.4343230000000  0.4691710000000 1.0
C      1  0.5347910000000  0.5243950000000  0.5866730000000 1.0
C      1  0.5581960000000  0.5630270000000  0.5452620000000 1.0
C      1  0.5359530000000  0.5756400000000  0.4545250000000 1.0
C      1  0.5729190000000  0.5302810000000  0.4513920000000 1.0
C      1  0.5041900000000  0.4807050000000  0.4024360000000 1.0
C      1  0.5762370000000  0.5525010000000  0.4700240000000 1.0
C      1  0.5408820000000  0.4202160000000  0.5588350000000 1.0
C      1  0.4780720000000  0.4563760000000  0.5844080000000 1.0
C      1  0.5251740000000  0.5285740000000  0.5260920000000 1.0
C      1  0.5722150000000  0.5286760000000  0.5152310000000 1.0
C      1  0.5616270000000  0.5768490000000  0.4659470000000 1.0
C      1  0.4623300000000  0.4342100000000  0.4492250000000 1.0
C      1  0.4736200000000  0.5208530000000  0.4275580000000 1.0
C      1  0.4839390000000  0.5619140000000  0.5558690000000 1.0
C      1  0.4723320000000  0.5532720000000  0.5994340000000 1.0
C      1  0.5076130000000  0.3863190000000  0.4961730000000 1.0
C      1  0.5376910000000  0.4450830000000  0.4629500000000 1.0
C      1  0.5355170000000  0.4938960000000  0.4869770000000 1.0
C      1  0.4388300000000  0.5729970000000  0.4451330000000 1.0
C      1  0.5858830000000  0.5472410000000  0.4973830000000 1.0
C      1  0.5366020000000  0.3930470000000  0.3948270000000 1.0
C      1  0.5780930000000  0.5057070000000  0.4640580000000 1.0
C      1  0.4550750000000  0.5809120000000  0.5235240000000 1.0
C      1  0.5499470000000  0.5418780000000  0.5281140000000 1.0
C      1  0.4893760000000  0.4692420000000  0.4570860000000 1.0
C      1  0.5673600000000  0.6006600000000  0.4798050000000 1.0
C      1  0.5862280000000  0.4510510000000  0.4692010000000 1.0
C      1  0.5259020000000  0.4977680000000  0.5351340000000 1.0
C      1  0.4915210000000  0.5552130000000  0.4013430000000 1.0
C      1  0.5087060000000  0.5743400000000  0.4602110000000 1.0
C      1  0.4800180000000  0.4677130000000  0.4101750000000 1.0
C      1  0.5417570000000  0.4166180000000  0.3836770000000 1.0
C      1  0.5401200000000  0.5717550000000  0.5651220000000 1.0
C      1  0.3876000000000  0.4698260000000  0.4908550000000 1.0
C      1  0.5013340000000  0.4879220000000  0.5519180000000 1.0
C      1  0.5205340000000  0.4844340000000  0.5088020000000 1.0
C      1  0.4011380000000  0.5196590000000  0.4844640000000 1.0
C      1  0.5639970000000  0.4830070000000  0.5902540000000 1.0
C      1  0.5116170000000  0.3619780000000  0.4822800000000 1.0
C      1  0.4754470000000  0.4133660000000  0.4630990000000 1.0
C      1  0.5314940000000  0.3728660000000  0.4113540000000 1.0
C      1  0.5653730000000  0.4088320000000  0.4801870000000 1.0
C      1  0.4145880000000  0.4560200000000  0.5594770000000 1.0
C      1  0.5542210000000  0.4672560000000  0.3861710000000 1.0
C      1  0.4214290000000  0.4941710000000  0.5909800000000 1.0
C      1  0.4610450000000  0.5861310000000  0.4331060000000 1.0
C      1  0.5959170000000  0.5686370000000  0.5138630000000 1.0
C      1  0.5919000000000  0.4635230000000  0.4443810000000 1.0
C      1  0.5292230000000  0.3951510000000  0.5128610000000 1.0
C      1  0.4946430000000  0.5279540000000  0.4087220000000 1.0
C      1  0.5443160000000  0.5090060000000  0.4109420000000 1.0
C      1  0.4926290000000  0.4799020000000  0.5079480000000 1.0
C      1  0.4078150000000  0.4571750000000  0.5083570000000 1.0
C      1  0.4050770000000  0.4916920000000  0.4472500000000 1.0
C      1  0.5254920000000  0.3583220000000  0.4327910000000 1.0
C      1  0.4567730000000  0.4822040000000  0.4022730000000 1.0
C      1  0.5213940000000  0.6101100000000  0.5358480000000 1.0
C      1  0.4466330000000  0.5627100000000  0.5890550000000 1.0
C      1  0.6162530000000  0.4490340000000  0.5091880000000 1.0
C      1  0.6356040000000  0.4378000000000  0.5225450000000 1.0
C      1  0.4189870000000  0.4450280000000  0.5332800000000 1.0
C      1  0.4875280000000  0.5112480000000  0.5619490000000 1.0
C      1  0.4468600000000  0.4369800000000  0.5309630000000 1.0
C      1  0.4886010000000  0.4033170000000  0.4841680000000 1.0
C      1  0.4946480000000  0.5985490000000  0.4685170000000 1.0
C      1  0.4959410000000  0.6029400000000  0.5256140000000 1.0
C      1  0.3945940000000  0.5020080000000  0.5836560000000 1.0
C      1  0.4263010000000  0.5577830000000  0.4634900000000 1.0
C      1  0.4883640000000  0.5526070000000  0.4957680000000 1.0
C      1  0.5437410000000  0.4352580000000  0.5825630000000 1.0
C      1  0.4779710000000  0.4539990000000  0.4350110000000 1.0
C      1  0.4785040000000  0.5293300000000  0.4545210000000 1.0
C      1  0.4168910000000  0.5324830000000  0.5556720000000 1.0
C      1  0.4705040000000  0.5751810000000  0.5001830000000 1.0
C      1  0.5295560000000  0.4069140000000  0.5384480000000 1.0
C      1  0.5633470000000  0.4918610000000  0.4835180000000 1.0
C      1  0.5140260000000  0.5108320000000  0.6014810000000 1.0
C      1  0.4455330000000  0.4685870000000  0.4796700000000 1.0
C      1  0.5612620000000  0.4860330000000  0.4059380000000 1.0
C      1  0.4507290000000  0.5040080000000  0.4200210000000 1.0
C      1  0.4748410000000  0.6053780000000  0.4492590000000 1.0
C      1  0.4857010000000  0.4628430000000  0.5571210000000 1.0
C      1  0.5817170000000  0.4773880000000  0.4236680000000 1.0
C      1  0.4285240000000  0.5844630000000  0.5268140000000 1.0
C      1  0.4770120000000  0.5860310000000  0.5422190000000 1.0
C      1  0.5477200000000  0.4422360000000  0.3797780000000 1.0
C      1  0.4979200000000  0.4456640000000  0.6010030000000 1.0
C      1  0.4509020000000  0.4547330000000  0.5933980000000 1.0
C      1  0.4315830000000  0.5189780000000  0.5354470000000 1.0
C      1  0.5277290000000  0.5275410000000  0.4495300000000 1.0
C      1  0.4494640000000  0.5265770000000  0.4929500000000 1.0
C      1  0.4150260000000  0.4342070000000  0.4592640000000 1.0
C      1  0.5541620000000  0.3946080000000  0.4996680000000 1.0
END
