TITL C-599896-8500-1467 2.26736920977388e-05 125000 -773.531348701331 0 0 124 (C1) n - 1
REM
REM in /home/nfs/bkarasulu/CARBON/AIRSS/Generating-Clusters/TERSOFF/Only-C1/FIRE-HFTN
REM
REM
REM
REM
REM
REM ./C.cell (11c1c37f851c82e70ff6c80c92926a4b)
REM AIRSS Version 0.9.1 bugfix July 2018 build 013d7b7c2542+ Fri, 06 Jul 2018 19:26:36 +0100
REM compiler GCC version 9.2.1 20190827 (Red Hat 9.2.1-1)
REM options -cpp -mtune=generic -march=x86-64 -g -O0 -fpre-include=/usr/include/finclude/math-vector-fortran.h
REM seed 578843670 -105290973 986210255 1333767011 1712708352 -650672558 -730200734 1108682825 -724504670 1093350863 -540455978 161447548 1466641561 -1271902746 -756280156 2036913945 1811756186 869481209 397735997 -980249202 -1101828233 1343485525 -1894339262 -960532782 -2104858436 -1555311562 1031328210 -698065204 1452417757 690215802 -655095458 243431090 47038016
REM
CELL 1.54180   50.00000   50.00000   50.00000   90.00000   90.00000   90.00000
LATT -1
SFAC C  
C      1  0.5909530000000  0.5378160000000  0.5010620000000 1.0
C      1  0.5295150000000  0.3913740000000  0.4737550000000 1.0
C      1  0.4682760000000  0.4040100000000  0.5136150000000 1.0
C      1  0.4462920000000  0.4389300000000  0.4204810000000 1.0
C      1  0.4520670000000  0.3924400000000  0.5575420000000 1.0
C      1  0.4607870000000  0.3846340000000  0.5330010000000 1.0
C      1  0.5617600000000  0.4874020000000  0.4381700000000 1.0
C      1  0.4842810000000  0.5485470000000  0.5207930000000 1.0
C      1  0.5606200000000  0.5704580000000  0.4734400000000 1.0
C      1  0.5743860000000  0.5118440000000  0.5745960000000 1.0
C      1  0.5185670000000  0.5791010000000  0.4542670000000 1.0
C      1  0.4549220000000  0.5581250000000  0.5956380000000 1.0
C      1  0.4314440000000  0.5431850000000  0.5901380000000 1.0
C      1  0.3967580000000  0.5229800000000  0.5179300000000 1.0
C      1  0.6095170000000  0.4863830000000  0.5185090000000 1.0
C      1  0.4302400000000  0.5190250000000  0.4344680000000 1.0
C      1  0.4361470000000  0.4921390000000  0.4431230000000 1.0
C      1  0.4232580000000  0.4926100000000  0.5875090000000 1.0
C      1  0.4505100000000  0.5369480000000  0.4214410000000 1.0
C      1  0.4588100000000  0.5093830000000  0.5360920000000 1.0
C      1  0.6014950000000  0.5088870000000  0.5649220000000 1.0
C      1  0.4378340000000  0.5748690000000  0.4881310000000 1.0
C      1  0.5250320000000  0.5364510000000  0.5017020000000 1.0
C      1  0.4855400000000  0.6026010000000  0.4805620000000 1.0
C      1  0.5023640000000  0.3976860000000  0.4785800000000 1.0
C      1  0.4936400000000  0.4608200000000  0.4072830000000 1.0
C      1  0.4650760000000  0.5735120000000  0.5743010000000 1.0
C      1  0.4952250000000  0.4059680000000  0.5048850000000 1.0
C      1  0.5082130000000  0.5107690000000  0.5395320000000 1.0
C      1  0.5251170000000  0.5039660000000  0.4090850000000 1.0
C      1  0.4025450000000  0.5553180000000  0.5540840000000 1.0
C      1  0.5130990000000  0.6052660000000  0.5860700000000 1.0
C      1  0.4528040000000  0.4283600000000  0.5156940000000 1.0
C      1  0.6036970000000  0.5083400000000  0.5363400000000 1.0
C      1  0.5485550000000  0.4555670000000  0.5330020000000 1.0
C      1  0.5388260000000  0.5823110000000  0.5282160000000 1.0
C      1  0.4876780000000  0.4727110000000  0.4811860000000 1.0
C      1  0.5497990000000  0.5062200000000  0.4554610000000 1.0
C      1  0.5947500000000  0.5251150000000  0.4559930000000 1.0
C      1  0.4849120000000  0.5326970000000  0.4752160000000 1.0
C      1  0.4332220000000  0.5173080000000  0.5777120000000 1.0
C      1  0.4776500000000  0.5050070000000  0.3945410000000 1.0
C      1  0.5162630000000  0.4767950000000  0.4799290000000 1.0
C      1  0.5336850000000  0.5744860000000  0.5548990000000 1.0
C      1  0.4317900000000  0.4511230000000  0.4700450000000 1.0
C      1  0.4669780000000  0.5575420000000  0.6200980000000 1.0
C      1  0.4810270000000  0.4354870000000  0.4524500000000 1.0
C      1  0.5776750000000  0.4064380000000  0.4740180000000 1.0
C      1  0.4020810000000  0.4805330000000  0.5731110000000 1.0
C      1  0.5397480000000  0.4765440000000  0.5511120000000 1.0
C      1  0.5670500000000  0.5286980000000  0.4520160000000 1.0
C      1  0.5124230000000  0.4456510000000  0.4218330000000 1.0
C      1  0.5323920000000  0.4440560000000  0.5120860000000 1.0
C      1  0.4829150000000  0.5246910000000  0.5364130000000 1.0
C      1  0.4875650000000  0.4102400000000  0.4582710000000 1.0
C      1  0.5497890000000  0.4881310000000  0.4119950000000 1.0
C      1  0.4344060000000  0.4365910000000  0.4451350000000 1.0
C      1  0.3917880000000  0.4719950000000  0.5499890000000 1.0
C      1  0.5575480000000  0.4414960000000  0.4132220000000 1.0
C      1  0.5575460000000  0.4644820000000  0.3981000000000 1.0
C      1  0.4537310000000  0.4383330000000  0.5434820000000 1.0
C      1  0.4781700000000  0.5779910000000  0.5252110000000 1.0
C      1  0.4443860000000  0.4505470000000  0.6066860000000 1.0
C      1  0.4165870000000  0.5373430000000  0.4541380000000 1.0
C      1  0.4913080000000  0.4682610000000  0.5603220000000 1.0
C      1  0.5308490000000  0.5214480000000  0.5243090000000 1.0
C      1  0.5641270000000  0.5366750000000  0.5855050000000 1.0
C      1  0.5854590000000  0.4758820000000  0.4484120000000 1.0
C      1  0.5763010000000  0.4502270000000  0.5324980000000 1.0
C      1  0.4092190000000  0.5580980000000  0.5802750000000 1.0
C      1  0.5358660000000  0.5837150000000  0.4782780000000 1.0
C      1  0.6086010000000  0.4923700000000  0.4899070000000 1.0
C      1  0.5016950000000  0.5169740000000  0.4593000000000 1.0
C      1  0.4471980000000  0.4289970000000  0.5911950000000 1.0
C      1  0.4226540000000  0.4785910000000  0.4653360000000 1.0
C      1  0.5239710000000  0.5003830000000  0.4655370000000 1.0
C      1  0.4396700000000  0.5553390000000  0.4656570000000 1.0
C      1  0.5564020000000  0.5539270000000  0.4499810000000 1.0
C      1  0.5372930000000  0.4393970000000  0.4333700000000 1.0
C      1  0.5325930000000  0.4536840000000  0.4843810000000 1.0
C      1  0.4482300000000  0.4479920000000  0.4948220000000 1.0
C      1  0.4999720000000  0.4888250000000  0.4019570000000 1.0
C      1  0.4196060000000  0.4952880000000  0.4877530000000 1.0
C      1  0.5828880000000  0.5249250000000  0.5245140000000 1.0
C      1  0.5251380000000  0.5891220000000  0.5044720000000 1.0
C      1  0.4502560000000  0.5810930000000  0.5116770000000 1.0
C      1  0.5503270000000  0.4099330000000  0.4696480000000 1.0
C      1  0.5494650000000  0.5557090000000  0.5696030000000 1.0
C      1  0.4986170000000  0.5439030000000  0.4967830000000 1.0
C      1  0.5306610000000  0.5575460000000  0.4371580000000 1.0
C      1  0.4353270000000  0.5196140000000  0.5487450000000 1.0
C      1  0.5201370000000  0.5381130000000  0.4174360000000 1.0
C      1  0.4671210000000  0.4631140000000  0.5469630000000 1.0
C      1  0.3991310000000  0.4971670000000  0.5067900000000 1.0
C      1  0.6107080000000  0.4448710000000  0.4747910000000 1.0
C      1  0.5102620000000  0.5871350000000  0.5656450000000 1.0
C      1  0.4621130000000  0.4825020000000  0.5264150000000 1.0
C      1  0.4839150000000  0.5818820000000  0.5550030000000 1.0
C      1  0.4670990000000  0.4491540000000  0.4058590000000 1.0
C      1  0.5124150000000  0.4849100000000  0.5520670000000 1.0
C      1  0.6031900000000  0.4716130000000  0.4703630000000 1.0
C      1  0.4128030000000  0.5345350000000  0.5376680000000 1.0
C      1  0.4782320000000  0.4634360000000  0.4557780000000 1.0
C      1  0.4964890000000  0.5942910000000  0.5058090000000 1.0
C      1  0.4665070000000  0.4710630000000  0.5004360000000 1.0
C      1  0.5684070000000  0.5421740000000  0.6120660000000 1.0
C      1  0.5411500000000  0.4362650000000  0.4619790000000 1.0
C      1  0.3907370000000  0.4762290000000  0.5235300000000 1.0
C      1  0.6034430000000  0.5198110000000  0.4822100000000 1.0
C      1  0.4367950000000  0.4761810000000  0.6057120000000 1.0
C      1  0.5569310000000  0.5165910000000  0.5326070000000 1.0
C      1  0.4625170000000  0.4817970000000  0.4409540000000 1.0
C      1  0.4529660000000  0.5606270000000  0.4387330000000 1.0
C      1  0.5138950000000  0.4232220000000  0.5174850000000 1.0
C      1  0.4719660000000  0.5308310000000  0.4041510000000 1.0
C      1  0.4943850000000  0.5935260000000  0.4563880000000 1.0
C      1  0.4955890000000  0.5464160000000  0.4058350000000 1.0
C      1  0.4568630000000  0.5329050000000  0.4775680000000 1.0
C      1  0.5800590000000  0.5622050000000  0.4919630000000 1.0
C      1  0.4412160000000  0.5134610000000  0.4903550000000 1.0
C      1  0.6001830000000  0.4611830000000  0.5271730000000 1.0
C      1  0.6005050000000  0.4201920000000  0.4759000000000 1.0
C      1  0.4496880000000  0.4196790000000  0.5650140000000 1.0
C      1  0.5571580000000  0.4987300000000  0.5556580000000 1.0
END
