TITL C-599896-8500-471 7855.18679987805 125000 -972.422456747965 0 0 159 (C1) n - 1
REM
REM in /home/nfs/bkarasulu/CARBON/AIRSS/Generating-Clusters/TERSOFF/Only-C1/FIRE-HFTN
REM
REM
REM
REM
REM
REM ./C.cell (11c1c37f851c82e70ff6c80c92926a4b)
REM AIRSS Version 0.9.1 bugfix July 2018 build 013d7b7c2542+ Fri, 06 Jul 2018 19:26:36 +0100
REM compiler GCC version 9.2.1 20190827 (Red Hat 9.2.1-1)
REM options -cpp -mtune=generic -march=x86-64 -g -O0 -fpre-include=/usr/include/finclude/math-vector-fortran.h
REM seed -745820450 -2005054800 -1702070192 -794365536 1944736019 -374747256 1344824636 -473734241 -360044156 1722653078 1746246365 -1834007242 1895855866 1550574152 1503093123 168783570 -1657207806 937236911 -1424464889 -913681997 -401733024 1789856325 616520238 -412397530 1822007100 -2061146891 -1652778129 -7950116 -1936068216 -1105552141 1080483919 -223916798 -373021663
REM
CELL 1.54180   50.00000   50.00000   50.00000   90.00000   90.00000   90.00000
LATT -1
SFAC C  
C      1  0.5913870000000  0.5167940000000  0.4606780000000 1.0
C      1  0.5484960000000  0.4097600000000  0.5445280000000 1.0
C      1  0.4519870000000  0.4480300000000  0.4802410000000 1.0
C      1  0.4480850000000  0.4823550000000  0.5786690000000 1.0
C      1  0.6067540000000  0.4976650000000  0.5105350000000 1.0
C      1  0.5418290000000  0.3892950000000  0.4976050000000 1.0
C      1  0.4828150000000  0.6319150000000  0.5007200000000 1.0
C      1  0.5432140000000  0.6230070000000  0.6337310000000 1.0
C      1  0.4079540000000  0.5406770000000  0.4838340000000 1.0
C      1  0.5743680000000  0.5054340000000  0.4155540000000 1.0
C      1  0.5856450000000  0.5891110000000  0.5119220000000 1.0
C      1  0.5288370000000  0.5151110000000  0.5663110000000 1.0
C      1  0.5504690000000  0.5827680000000  0.5731330000000 1.0
C      1  0.4164020000000  0.4671010000000  0.3988720000000 1.0
C      1  0.4664320000000  0.3837650000000  0.5100880000000 1.0
C      1  0.4658040000000  0.4833440000000  0.5557530000000 1.0
C      1  0.5657060000000  0.5615490000000  0.5837610000000 1.0
C      1  0.5831700000000  0.4693510000000  0.4555020000000 1.0
C      1  0.3978940000000  0.4200270000000  0.5173480000000 1.0
C      1  0.3770040000000  0.5116790000000  0.4574140000000 1.0
C      1  0.4401310000000  0.3880740000000  0.5134640000000 1.0
C      1  0.3984350000000  0.4984870000000  0.5777550000000 1.0
C      1  0.5645360000000  0.5525660000000  0.4154260000000 1.0
C      1  0.4891100000000  0.3758080000000  0.4489550000000 1.0
C      1  0.4664110000000  0.5592510000000  0.5643200000000 1.0
C      1  0.4847200000000  0.4262640000000  0.5897160000000 1.0
C      1  0.5113620000000  0.4954640000000  0.5807590000000 1.0
C      1  0.5170250000000  0.5386090000000  0.4790170000000 1.0
C      1  0.4916960000000  0.4885520000000  0.5037900000000 1.0
C      1  0.5177990000000  0.5373620000000  0.5530750000000 1.0
C      1  0.4737640000000  0.4423460000000  0.4987800000000 1.0
C      1  0.5977580000000  0.4307010000000  0.4835610000000 1.0
C      1  0.5740090000000  0.5370360000000  0.5905610000000 1.0
C      1  0.4562510000000  0.4423160000000  0.4527980000000 1.0
C      1  0.5319010000000  0.4761430000000  0.4389640000000 1.0
C      1  0.5223850000000  0.5901250000000  0.4524600000000 1.0
C      1  0.5679050000000  0.5619240000000  0.4422480000000 1.0
C      1  0.5249730000000  0.5289880000000  0.4535680000000 1.0
C      1  0.5946180000000  0.4744650000000  0.5234380000000 1.0
C      1  0.4358370000000  0.4513530000000  0.5383280000000 1.0
C      1  0.4545810000000  0.5263500000000  0.4044080000000 1.0
C      1  0.4210580000000  0.4618260000000  0.4253600000000 1.0
C      1  0.4100960000000  0.4811140000000  0.4873360000000 1.0
C      1  0.4790530000000  0.5788010000000  0.4291840000000 1.0
C      1  0.6178730000000  0.5212940000000  0.5212040000000 1.0
C      1  0.5721870000000  0.4182200000000  0.5570210000000 1.0
C      1  0.5676010000000  0.4374260000000  0.5780990000000 1.0
C      1  0.5141140000000  0.3845830000000  0.4924880000000 1.0
C      1  0.5658720000000  0.5140560000000  0.5355220000000 1.0
C      1  0.5515580000000  0.5895340000000  0.5458260000000 1.0
C      1  0.5753020000000  0.4784500000000  0.4820120000000 1.0
C      1  0.6006010000000  0.4290030000000  0.4338520000000 1.0
C      1  0.4877910000000  0.5000130000000  0.6001940000000 1.0
C      1  0.4669570000000  0.4850590000000  0.4315670000000 1.0
C      1  0.4247830000000  0.5643880000000  0.4793700000000 1.0
C      1  0.5066620000000  0.6093410000000  0.4672900000000 1.0
C      1  0.5527870000000  0.5544590000000  0.5127940000000 1.0
C      1  0.4947520000000  0.4867390000000  0.5554980000000 1.0
C      1  0.4910410000000  0.4239300000000  0.5127000000000 1.0
C      1  0.4758460000000  0.5261060000000  0.6011930000000 1.0
C      1  0.4386640000000  0.6123320000000  0.4825280000000 1.0
C      1  0.5063980000000  0.4348880000000  0.5373970000000 1.0
C      1  0.5946790000000  0.4429430000000  0.4573350000000 1.0
C      1  0.4318660000000  0.5269850000000  0.4192190000000 1.0
C      1  0.4911840000000  0.4741090000000  0.3846150000000 1.0
C      1  0.4791450000000  0.4839470000000  0.4062120000000 1.0
C      1  0.4746090000000  0.5324660000000  0.4570760000000 1.0
C      1  0.5066990000000  0.3711260000000  0.4687050000000 1.0
C      1  0.5060150000000  0.5721870000000  0.4372130000000 1.0
C      1  0.4531720000000  0.5397340000000  0.5196750000000 1.0
C      1  0.3678110000000  0.4865900000000  0.4566950000000 1.0
C      1  0.5303610000000  0.5955090000000  0.5886770000000 1.0
C      1  0.4476770000000  0.4635590000000  0.4357370000000 1.0
C      1  0.4822580000000  0.4033250000000  0.6045630000000 1.0
C      1  0.4891000000000  0.5466050000000  0.4776600000000 1.0
C      1  0.4836340000000  0.5669080000000  0.4961900000000 1.0
C      1  0.3932340000000  0.4691090000000  0.5274440000000 1.0
C      1  0.6013610000000  0.5441880000000  0.5208330000000 1.0
C      1  0.4169070000000  0.4011580000000  0.5162220000000 1.0
C      1  0.5734510000000  0.5370680000000  0.5221900000000 1.0
C      1  0.5116690000000  0.5313270000000  0.5260660000000 1.0
C      1  0.3869290000000  0.5159960000000  0.5603620000000 1.0
C      1  0.4012340000000  0.5317620000000  0.5411240000000 1.0
C      1  0.5138150000000  0.4632740000000  0.3753300000000 1.0
C      1  0.5501460000000  0.5824530000000  0.4520740000000 1.0
C      1  0.5384980000000  0.4585410000000  0.3876930000000 1.0
C      1  0.4786670000000  0.4941650000000  0.4790730000000 1.0
C      1  0.3976350000000  0.4930360000000  0.5101960000000 1.0
C      1  0.5311060000000  0.5242690000000  0.3942520000000 1.0
C      1  0.4679500000000  0.4778930000000  0.5998850000000 1.0
C      1  0.5143070000000  0.5452430000000  0.4321890000000 1.0
C      1  0.3975900000000  0.5600340000000  0.4214500000000 1.0
C      1  0.5826630000000  0.4627430000000  0.5716040000000 1.0
C      1  0.4221010000000  0.5460070000000  0.5546260000000 1.0
C      1  0.4294180000000  0.5413380000000  0.5829770000000 1.0
C      1  0.4476470000000  0.5533760000000  0.5430870000000 1.0
C      1  0.4099200000000  0.5383670000000  0.4332870000000 1.0
C      1  0.5105800000000  0.4644850000000  0.5452300000000 1.0
C      1  0.4474100000000  0.5187790000000  0.5045030000000 1.0
C      1  0.4750590000000  0.3971260000000  0.4406040000000 1.0
C      1  0.5957210000000  0.4237740000000  0.4082150000000 1.0
C      1  0.4128620000000  0.4642600000000  0.5482810000000 1.0
C      1  0.3993380000000  0.4540330000000  0.4419480000000 1.0
C      1  0.5579900000000  0.5266680000000  0.4049650000000 1.0
C      1  0.3856330000000  0.4450450000000  0.5117030000000 1.0
C      1  0.5964490000000  0.4568630000000  0.5457130000000 1.0
C      1  0.4584790000000  0.4669730000000  0.5346560000000 1.0
C      1  0.5856070000000  0.4956150000000  0.4400350000000 1.0
C      1  0.5364970000000  0.4743890000000  0.5377560000000 1.0
C      1  0.4948850000000  0.4242470000000  0.5632370000000 1.0
C      1  0.3783530000000  0.4605610000000  0.4599180000000 1.0
C      1  0.5586650000000  0.4415830000000  0.3785500000000 1.0
C      1  0.5592460000000  0.5816360000000  0.5199940000000 1.0
C      1  0.4788590000000  0.5407020000000  0.3994830000000 1.0
C      1  0.5839300000000  0.5440030000000  0.4576920000000 1.0
C      1  0.5667370000000  0.3988990000000  0.5024740000000 1.0
C      1  0.5029530000000  0.4348360000000  0.4495420000000 1.0
C      1  0.5319160000000  0.5021890000000  0.4493340000000 1.0
C      1  0.5200950000000  0.4548130000000  0.4524820000000 1.0
C      1  0.4365010000000  0.4727660000000  0.4849160000000 1.0
C      1  0.5915770000000  0.4281620000000  0.5367810000000 1.0
C      1  0.4759700000000  0.5037280000000  0.4522150000000 1.0
C      1  0.5411630000000  0.4699430000000  0.4132450000000 1.0
C      1  0.5711730000000  0.4658520000000  0.5069390000000 1.0
C      1  0.5802740000000  0.4284010000000  0.3869920000000 1.0
C      1  0.5366850000000  0.6098350000000  0.6116900000000 1.0
C      1  0.5455550000000  0.4996730000000  0.5475370000000 1.0
C      1  0.4516050000000  0.4964840000000  0.4886040000000 1.0
C      1  0.5752720000000  0.5102930000000  0.5916500000000 1.0
C      1  0.4841140000000  0.5803110000000  0.5675380000000 1.0
C      1  0.4731830000000  0.5686290000000  0.4037140000000 1.0
C      1  0.4397500000000  0.5865590000000  0.4679470000000 1.0
C      1  0.5040320000000  0.5930620000000  0.5795570000000 1.0
C      1  0.4766720000000  0.4660240000000  0.5138040000000 1.0
C      1  0.4625400000000  0.6283620000000  0.4806330000000 1.0
C      1  0.5926330000000  0.5022750000000  0.4854280000000 1.0
C      1  0.4192020000000  0.4801860000000  0.5719470000000 1.0
C      1  0.4916730000000  0.3962320000000  0.5065910000000 1.0
C      1  0.5069540000000  0.5341650000000  0.4063440000000 1.0
C      1  0.4769970000000  0.4509720000000  0.6015050000000 1.0
C      1  0.4630660000000  0.5916970000000  0.4486990000000 1.0
C      1  0.5383970000000  0.4743860000000  0.5911770000000 1.0
C      1  0.4985580000000  0.5068810000000  0.5235540000000 1.0
C      1  0.3987470000000  0.5294510000000  0.4585330000000 1.0
C      1  0.5496830000000  0.6359030000000  0.6554440000000 1.0
C      1  0.4781640000000  0.6148660000000  0.4587540000000 1.0
C      1  0.5668960000000  0.4840730000000  0.5855940000000 1.0
C      1  0.3751210000000  0.4481620000000  0.4852920000000 1.0
C      1  0.6061300000000  0.5712700000000  0.5144810000000 1.0
C      1  0.5354260000000  0.4295420000000  0.5289070000000 1.0
C      1  0.4004110000000  0.5226710000000  0.5129140000000 1.0
C      1  0.4770910000000  0.4246020000000  0.4457210000000 1.0
C      1  0.4581580000000  0.5433620000000  0.5876740000000 1.0
C      1  0.5036720000000  0.6119660000000  0.4967970000000 1.0
C      1  0.5877550000000  0.4183580000000  0.5079540000000 1.0
C      1  0.5491580000000  0.4549990000000  0.5208970000000 1.0
C      1  0.5282230000000  0.5419910000000  0.5049050000000 1.0
C      1  0.5427040000000  0.4455560000000  0.5909070000000 1.0
C      1  0.4969410000000  0.5870480000000  0.5083370000000 1.0
END
