TITL C-599892-9790-1222 225.73423690323 125000 -713.558619482325 0 0 121 (C1) n - 1
REM
REM in /home/nfs/bkarasulu/CARBON/AIRSS/Generating-Clusters/TERSOFF/Only-C1/FIRE-HFTN
REM
REM
REM
REM
REM
REM ./C.cell (11c1c37f851c82e70ff6c80c92926a4b)
REM AIRSS Version 0.9.1 bugfix July 2018 build 013d7b7c2542+ Fri, 06 Jul 2018 19:26:36 +0100
REM compiler GCC version 9.2.1 20190827 (Red Hat 9.2.1-1)
REM options -cpp -mtune=generic -march=x86-64 -g -O0 -fpre-include=/usr/include/finclude/math-vector-fortran.h
REM seed -1234215752 1600495475 -171490793 324726243 -81414497 1699430041 -2069684217 -1087072509 -1567231205 -1472888598 242685869 670782532 1972122439 -1544667092 -867085903 219798671 428848291 -439039499 383073152 -906647586 1081744024 236994304 -771467897 60257582 -840083308 1310494942 -1627945196 1572490271 -14084251 1414250576 1144159079 1806060102 216920189
REM
CELL 1.54180   50.00000   50.00000   50.00000   90.00000   90.00000   90.00000
LATT -1
SFAC C  
C      1  0.3992630000000  0.5073550000000  0.5309920000000 1.0
C      1  0.5462500000000  0.5671060000000  0.4359050000000 1.0
C      1  0.4397100000000  0.5209690000000  0.5736820000000 1.0
C      1  0.5763950000000  0.5469200000000  0.4709540000000 1.0
C      1  0.5470670000000  0.4576520000000  0.4979140000000 1.0
C      1  0.4093250000000  0.4909700000000  0.5527570000000 1.0
C      1  0.5199860000000  0.4153390000000  0.5474860000000 1.0
C      1  0.4963090000000  0.5111750000000  0.4933670000000 1.0
C      1  0.4870070000000  0.5561620000000  0.5825870000000 1.0
C      1  0.5126360000000  0.5505120000000  0.4997110000000 1.0
C      1  0.4836940000000  0.5922020000000  0.5134910000000 1.0
C      1  0.4780590000000  0.5085410000000  0.5335880000000 1.0
C      1  0.5438080000000  0.5060470000000  0.5524650000000 1.0
C      1  0.5287610000000  0.5264330000000  0.4607860000000 1.0
C      1  0.6065700000000  0.5116210000000  0.4883590000000 1.0
C      1  0.4909470000000  0.4689080000000  0.4744000000000 1.0
C      1  0.5695640000000  0.5436970000000  0.5747510000000 1.0
C      1  0.4865590000000  0.4867860000000  0.5513410000000 1.0
C      1  0.5391850000000  0.4035910000000  0.4974470000000 1.0
C      1  0.4430310000000  0.4850130000000  0.4670830000000 1.0
C      1  0.5518250000000  0.4312940000000  0.4254700000000 1.0
C      1  0.4785130000000  0.4659930000000  0.4994100000000 1.0
C      1  0.5802450000000  0.4570330000000  0.4627300000000 1.0
C      1  0.5153440000000  0.5510720000000  0.4617070000000 1.0
C      1  0.5431910000000  0.5810510000000  0.4928580000000 1.0
C      1  0.5026420000000  0.4458490000000  0.4025320000000 1.0
C      1  0.5813550000000  0.5247580000000  0.4906750000000 1.0
C      1  0.5109480000000  0.4929970000000  0.3978590000000 1.0
C      1  0.4045800000000  0.5361360000000  0.5347330000000 1.0
C      1  0.5433090000000  0.5390840000000  0.4199820000000 1.0
C      1  0.4679580000000  0.5173360000000  0.4431500000000 1.0
C      1  0.5464670000000  0.4535280000000  0.4105580000000 1.0
C      1  0.5539670000000  0.4167030000000  0.4754020000000 1.0
C      1  0.4869260000000  0.5438580000000  0.4091100000000 1.0
C      1  0.4901820000000  0.5045700000000  0.4342630000000 1.0
C      1  0.5388510000000  0.4722230000000  0.5898150000000 1.0
C      1  0.5852130000000  0.5396840000000  0.4442950000000 1.0
C      1  0.4875220000000  0.4388050000000  0.4248970000000 1.0
C      1  0.4928170000000  0.5650820000000  0.4563580000000 1.0
C      1  0.4538550000000  0.4742980000000  0.4204630000000 1.0
C      1  0.5154220000000  0.4808090000000  0.6042560000000 1.0
C      1  0.4790630000000  0.4318540000000  0.5805360000000 1.0
C      1  0.4320500000000  0.4685210000000  0.4877920000000 1.0
C      1  0.5031290000000  0.4581190000000  0.6167420000000 1.0
C      1  0.4496380000000  0.4274000000000  0.4470650000000 1.0
C      1  0.4300930000000  0.4902580000000  0.4414220000000 1.0
C      1  0.4589600000000  0.4466710000000  0.4268210000000 1.0
C      1  0.5547480000000  0.5684480000000  0.4674700000000 1.0
C      1  0.4308970000000  0.5246790000000  0.4971060000000 1.0
C      1  0.5048470000000  0.5112970000000  0.5198590000000 1.0
C      1  0.4141960000000  0.5152840000000  0.4509980000000 1.0
C      1  0.4508890000000  0.5025040000000  0.5163620000000 1.0
C      1  0.4747000000000  0.5280920000000  0.4848650000000 1.0
C      1  0.5739300000000  0.4959260000000  0.4311790000000 1.0
C      1  0.4773850000000  0.5761380000000  0.5651860000000 1.0
C      1  0.6084730000000  0.4947820000000  0.4658090000000 1.0
C      1  0.5886090000000  0.4810790000000  0.4508840000000 1.0
C      1  0.5453390000000  0.4592430000000  0.5648270000000 1.0
C      1  0.3956900000000  0.4961680000000  0.5036250000000 1.0
C      1  0.5254560000000  0.5219250000000  0.5387110000000 1.0
C      1  0.4986200000000  0.4530640000000  0.5180230000000 1.0
C      1  0.5574540000000  0.5723670000000  0.5160670000000 1.0
C      1  0.5189330000000  0.4040710000000  0.5188350000000 1.0
C      1  0.6455110000000  0.5184450000000  0.5248430000000 1.0
C      1  0.5629130000000  0.5182340000000  0.5689040000000 1.0
C      1  0.4073330000000  0.5126670000000  0.4823610000000 1.0
C      1  0.4596020000000  0.5092900000000  0.4686490000000 1.0
C      1  0.5681240000000  0.5235870000000  0.4274530000000 1.0
C      1  0.5072000000000  0.4457800000000  0.4704950000000 1.0
C      1  0.4714850000000  0.4146720000000  0.4620990000000 1.0
C      1  0.4513890000000  0.4682690000000  0.5100590000000 1.0
C      1  0.5080220000000  0.4716580000000  0.5393510000000 1.0
C      1  0.4922040000000  0.4230070000000  0.5563820000000 1.0
C      1  0.5429030000000  0.5723360000000  0.5429130000000 1.0
C      1  0.4282850000000  0.4293940000000  0.5352820000000 1.0
C      1  0.4513290000000  0.4425840000000  0.5269790000000 1.0
C      1  0.4897460000000  0.4066130000000  0.5109530000000 1.0
C      1  0.4946170000000  0.5312490000000  0.5928530000000 1.0
C      1  0.5170050000000  0.5272600000000  0.4054090000000 1.0
C      1  0.5230980000000  0.4662120000000  0.3996680000000 1.0
C      1  0.4271740000000  0.5532840000000  0.5408470000000 1.0
C      1  0.4774730000000  0.4881080000000  0.5775610000000 1.0
C      1  0.4673410000000  0.5795710000000  0.4926850000000 1.0
C      1  0.4544680000000  0.4471850000000  0.5800730000000 1.0
C      1  0.4516230000000  0.4755260000000  0.5798170000000 1.0
C      1  0.4845860000000  0.4898950000000  0.4111870000000 1.0
C      1  0.5513770000000  0.4144110000000  0.4469080000000 1.0
C      1  0.4308550000000  0.4937440000000  0.5715420000000 1.0
C      1  0.4962840000000  0.5017230000000  0.5948410000000 1.0
C      1  0.5578170000000  0.5092880000000  0.5000110000000 1.0
C      1  0.5391730000000  0.4783560000000  0.5419480000000 1.0
C      1  0.4304760000000  0.5438740000000  0.4504440000000 1.0
C      1  0.4588840000000  0.5398500000000  0.4308210000000 1.0
C      1  0.5206500000000  0.4464370000000  0.4969820000000 1.0
C      1  0.4663890000000  0.5862410000000  0.5389780000000 1.0
C      1  0.5515210000000  0.4818220000000  0.5128800000000 1.0
C      1  0.4388320000000  0.5761570000000  0.5279520000000 1.0
C      1  0.4934740000000  0.4358230000000  0.6046930000000 1.0
C      1  0.5646980000000  0.4431200000000  0.4815240000000 1.0
C      1  0.5613490000000  0.5677600000000  0.5653550000000 1.0
C      1  0.4397600000000  0.5740040000000  0.4987110000000 1.0
C      1  0.4983490000000  0.5535180000000  0.5263660000000 1.0
C      1  0.4737370000000  0.5381740000000  0.5394220000000 1.0
C      1  0.5044700000000  0.4925850000000  0.4740650000000 1.0
C      1  0.5367340000000  0.5251090000000  0.4891180000000 1.0
C      1  0.5219750000000  0.5498020000000  0.5433030000000 1.0
C      1  0.4954750000000  0.4284930000000  0.4511890000000 1.0
C      1  0.4887010000000  0.5864510000000  0.4401710000000 1.0
C      1  0.5443180000000  0.5903820000000  0.4219940000000 1.0
C      1  0.5134890000000  0.5047550000000  0.4505550000000 1.0
C      1  0.4756280000000  0.4020130000000  0.4868970000000 1.0
C      1  0.5408030000000  0.4315930000000  0.5587000000000 1.0
C      1  0.4754560000000  0.5571930000000  0.4774760000000 1.0
C      1  0.4066530000000  0.4166290000000  0.5422240000000 1.0
C      1  0.6270520000000  0.5150220000000  0.5067690000000 1.0
C      1  0.4483280000000  0.5395230000000  0.5542730000000 1.0
C      1  0.4797850000000  0.4301130000000  0.5292190000000 1.0
C      1  0.5256270000000  0.5968910000000  0.5375560000000 1.0
C      1  0.4317430000000  0.5514050000000  0.4823950000000 1.0
C      1  0.4048840000000  0.4698790000000  0.4965070000000 1.0
C      1  0.5134700000000  0.5959790000000  0.5116170000000 1.0
END
