TITL C-599897-7526-1116 1.03017421006046 125000 -1133.04144817142 0 0 186 (C1) n - 1
REM
REM in /home/nfs/bkarasulu/CARBON/AIRSS/Generating-Clusters/TERSOFF/Only-C1/FIRE-HFTN
REM
REM
REM
REM
REM
REM ./C.cell (11c1c37f851c82e70ff6c80c92926a4b)
REM AIRSS Version 0.9.1 bugfix July 2018 build 013d7b7c2542+ Fri, 06 Jul 2018 19:26:36 +0100
REM compiler GCC version 9.2.1 20190827 (Red Hat 9.2.1-1)
REM options -cpp -mtune=generic -march=x86-64 -g -O0 -fpre-include=/usr/include/finclude/math-vector-fortran.h
REM seed -967708433 1772783346 -49141902 -662853487 -1079947293 21448982 -324781280 950860096 -734985429 2010160008 80059213 842150769 -417002979 409202580 -621851433 1006714142 2132961851 -1437329857 -309678828 -1912952282 1783298819 512545689 -1509224861 890594872 1783069539 183864806 1800811475 -237072369 781970419 -1997389341 1462268236 43136928 2107321755
REM
CELL 1.54180   50.00000   50.00000   50.00000   90.00000   90.00000   90.00000
LATT -1
SFAC C  
C      1  0.5411180000000  0.5971670000000  0.4434670000000 1.0
C      1  0.5340460000000  0.6195330000000  0.5536190000000 1.0
C      1  0.5626920000000  0.4835280000000  0.5389090000000 1.0
C      1  0.3827600000000  0.5229790000000  0.4864680000000 1.0
C      1  0.6059310000000  0.4923610000000  0.5848940000000 1.0
C      1  0.3947230000000  0.5388200000000  0.4637390000000 1.0
C      1  0.5989640000000  0.4943320000000  0.4676120000000 1.0
C      1  0.4715110000000  0.4633810000000  0.5838660000000 1.0
C      1  0.4635070000000  0.6070600000000  0.5318570000000 1.0
C      1  0.3941690000000  0.4582290000000  0.5148860000000 1.0
C      1  0.3951940000000  0.5160760000000  0.5407280000000 1.0
C      1  0.5032480000000  0.4830360000000  0.3898970000000 1.0
C      1  0.5901870000000  0.5377170000000  0.4456590000000 1.0
C      1  0.4075520000000  0.5779990000000  0.4388990000000 1.0
C      1  0.3785140000000  0.4759830000000  0.4992790000000 1.0
C      1  0.4364890000000  0.5828780000000  0.5626600000000 1.0
C      1  0.5687410000000  0.5203110000000  0.4348850000000 1.0
C      1  0.4278830000000  0.5549260000000  0.5667430000000 1.0
C      1  0.5128740000000  0.5914160000000  0.4345610000000 1.0
C      1  0.4347070000000  0.4788120000000  0.4221570000000 1.0
C      1  0.5348910000000  0.5116920000000  0.5660250000000 1.0
C      1  0.5838750000000  0.5654280000000  0.4566530000000 1.0
C      1  0.5770740000000  0.4765590000000  0.3778030000000 1.0
C      1  0.4520480000000  0.3912510000000  0.5709630000000 1.0
C      1  0.6155970000000  0.4898540000000  0.5114040000000 1.0
C      1  0.6191140000000  0.5203340000000  0.5144210000000 1.0
C      1  0.4362240000000  0.3883280000000  0.5070040000000 1.0
C      1  0.4640770000000  0.5850420000000  0.5734610000000 1.0
C      1  0.5040720000000  0.5242260000000  0.4671490000000 1.0
C      1  0.4771770000000  0.3583590000000  0.5436880000000 1.0
C      1  0.4722530000000  0.5620350000000  0.5898790000000 1.0
C      1  0.5238560000000  0.5420220000000  0.6108770000000 1.0
C      1  0.5602690000000  0.5018740000000  0.5601850000000 1.0
C      1  0.5359710000000  0.5394930000000  0.5664040000000 1.0
C      1  0.5410680000000  0.3833150000000  0.3978780000000 1.0
C      1  0.4135070000000  0.3886320000000  0.5224010000000 1.0
C      1  0.5064950000000  0.4357240000000  0.5260810000000 1.0
C      1  0.5153540000000  0.5809720000000  0.5775490000000 1.0
C      1  0.4896770000000  0.3333620000000  0.4487080000000 1.0
C      1  0.6248150000000  0.5225880000000  0.5437360000000 1.0
C      1  0.5393520000000  0.5481870000000  0.4597910000000 1.0
C      1  0.5653210000000  0.5747000000000  0.6023040000000 1.0
C      1  0.4528030000000  0.6163110000000  0.4861030000000 1.0
C      1  0.3843700000000  0.4867850000000  0.3712110000000 1.0
C      1  0.6079440000000  0.5381380000000  0.4923690000000 1.0
C      1  0.5452280000000  0.5835880000000  0.4924040000000 1.0
C      1  0.6200940000000  0.5461680000000  0.5587430000000 1.0
C      1  0.4425590000000  0.4803450000000  0.5148480000000 1.0
C      1  0.5040660000000  0.5805230000000  0.5503380000000 1.0
C      1  0.4019050000000  0.4748480000000  0.3863500000000 1.0
C      1  0.5707420000000  0.4963850000000  0.5146150000000 1.0
C      1  0.4678730000000  0.4145010000000  0.5747000000000 1.0
C      1  0.5444340000000  0.4640630000000  0.4842960000000 1.0
C      1  0.4029250000000  0.4900100000000  0.5527040000000 1.0
C      1  0.4632620000000  0.5675460000000  0.4426390000000 1.0
C      1  0.4644600000000  0.3349830000000  0.4570390000000 1.0
C      1  0.5278310000000  0.3660270000000  0.4626650000000 1.0
C      1  0.5691960000000  0.4390260000000  0.4246020000000 1.0
C      1  0.5022670000000  0.3707020000000  0.5388930000000 1.0
C      1  0.4733400000000  0.6136660000000  0.5061280000000 1.0
C      1  0.5272870000000  0.4443860000000  0.4729500000000 1.0
C      1  0.4375340000000  0.5975080000000  0.4713730000000 1.0
C      1  0.5870180000000  0.4499000000000  0.4434510000000 1.0
C      1  0.5727920000000  0.4589790000000  0.4878050000000 1.0
C      1  0.4612940000000  0.5103080000000  0.4793200000000 1.0
C      1  0.5276070000000  0.6045470000000  0.5044510000000 1.0
C      1  0.5517610000000  0.4577360000000  0.5410380000000 1.0
C      1  0.4366600000000  0.4440080000000  0.5490150000000 1.0
C      1  0.4991550000000  0.6024010000000  0.4973260000000 1.0
C      1  0.4647740000000  0.4897240000000  0.5737810000000 1.0
C      1  0.4798000000000  0.5938230000000  0.5510320000000 1.0
C      1  0.5870670000000  0.6066770000000  0.4313670000000 1.0
C      1  0.5792690000000  0.5217840000000  0.5674530000000 1.0
C      1  0.4930600000000  0.4686790000000  0.6037470000000 1.0
C      1  0.5630840000000  0.5456450000000  0.5280840000000 1.0
C      1  0.4132390000000  0.4472430000000  0.4966330000000 1.0
C      1  0.5232670000000  0.4434910000000  0.4064980000000 1.0
C      1  0.5139020000000  0.4966150000000  0.5089700000000 1.0
C      1  0.5111960000000  0.4176620000000  0.5977150000000 1.0
C      1  0.5595240000000  0.5025590000000  0.6131440000000 1.0
C      1  0.4709930000000  0.5592270000000  0.4871160000000 1.0
C      1  0.5270900000000  0.5048330000000  0.4644540000000 1.0
C      1  0.4601770000000  0.4902270000000  0.4152670000000 1.0
C      1  0.4359110000000  0.6012450000000  0.5399620000000 1.0
C      1  0.4157760000000  0.4924430000000  0.5776780000000 1.0
C      1  0.4869370000000  0.5042720000000  0.5618970000000 1.0
C      1  0.4471900000000  0.4333750000000  0.5230720000000 1.0
C      1  0.5410480000000  0.3989320000000  0.4204930000000 1.0
C      1  0.5114000000000  0.4913080000000  0.6017920000000 1.0
C      1  0.5088850000000  0.5223820000000  0.5193230000000 1.0
C      1  0.4781420000000  0.4112810000000  0.4913250000000 1.0
C      1  0.5428890000000  0.5551140000000  0.5447030000000 1.0
C      1  0.4943980000000  0.4436550000000  0.4156960000000 1.0
C      1  0.5632740000000  0.5914050000000  0.5795450000000 1.0
C      1  0.4510100000000  0.3890490000000  0.3977770000000 1.0
C      1  0.5912140000000  0.5650110000000  0.4869690000000 1.0
C      1  0.5135560000000  0.3449440000000  0.4507030000000 1.0
C      1  0.3892850000000  0.4950660000000  0.4813030000000 1.0
C      1  0.5378130000000  0.3861920000000  0.4455610000000 1.0
C      1  0.5673080000000  0.5239600000000  0.5133930000000 1.0
C      1  0.6367190000000  0.5674750000000  0.5605400000000 1.0
C      1  0.5195020000000  0.5657020000000  0.5322150000000 1.0
C      1  0.4412950000000  0.5000490000000  0.5857000000000 1.0
C      1  0.5901480000000  0.4831810000000  0.4955710000000 1.0
C      1  0.5275540000000  0.3666840000000  0.4909570000000 1.0
C      1  0.4560140000000  0.5482740000000  0.5106000000000 1.0
C      1  0.5556000000000  0.4831630000000  0.3933930000000 1.0
C      1  0.4927270000000  0.5803500000000  0.4796310000000 1.0
C      1  0.5704200000000  0.5989640000000  0.5279520000000 1.0
C      1  0.3794050000000  0.5224320000000  0.5160510000000 1.0
C      1  0.4625230000000  0.5272640000000  0.5288300000000 1.0
C      1  0.4208990000000  0.4630020000000  0.4030340000000 1.0
C      1  0.4850050000000  0.4714630000000  0.4639580000000 1.0
C      1  0.4671060000000  0.3686870000000  0.3953590000000 1.0
C      1  0.4154910000000  0.5994900000000  0.4537600000000 1.0
C      1  0.5317020000000  0.4401720000000  0.5382380000000 1.0
C      1  0.4749050000000  0.4859250000000  0.4850540000000 1.0
C      1  0.5329290000000  0.5584720000000  0.4857680000000 1.0
C      1  0.5024130000000  0.5598900000000  0.5956860000000 1.0
C      1  0.5840990000000  0.4400790000000  0.4700470000000 1.0
C      1  0.5033120000000  0.4511560000000  0.4590950000000 1.0
C      1  0.4816960000000  0.4704100000000  0.4061640000000 1.0
C      1  0.5437730000000  0.6134340000000  0.5274050000000 1.0
C      1  0.4569540000000  0.4412060000000  0.5712710000000 1.0
C      1  0.5035700000000  0.4174530000000  0.5040830000000 1.0
C      1  0.4466920000000  0.5433150000000  0.4310400000000 1.0
C      1  0.4477100000000  0.5457280000000  0.5880150000000 1.0
C      1  0.5363410000000  0.6010070000000  0.5756890000000 1.0
C      1  0.5734350000000  0.5831010000000  0.5027640000000 1.0
C      1  0.5303270000000  0.5112780000000  0.6138490000000 1.0
C      1  0.4495770000000  0.5716990000000  0.4689700000000 1.0
C      1  0.4551070000000  0.4096620000000  0.5088460000000 1.0
C      1  0.6043970000000  0.5227110000000  0.4665530000000 1.0
C      1  0.4897020000000  0.5829570000000  0.4496940000000 1.0
C      1  0.5255070000000  0.4196820000000  0.4863280000000 1.0
C      1  0.4876740000000  0.5218320000000  0.5392940000000 1.0
C      1  0.4069000000000  0.4632990000000  0.5412020000000 1.0
C      1  0.4333630000000  0.5160400000000  0.4829580000000 1.0
C      1  0.4789320000000  0.5322190000000  0.4745650000000 1.0
C      1  0.5789380000000  0.5937060000000  0.5551940000000 1.0
C      1  0.4899360000000  0.4583380000000  0.5249300000000 1.0
C      1  0.5177960000000  0.3658420000000  0.5159280000000 1.0
C      1  0.4115280000000  0.5531990000000  0.5191140000000 1.0
C      1  0.4014100000000  0.5790530000000  0.5149210000000 1.0
C      1  0.5173500000000  0.5481450000000  0.5089430000000 1.0
C      1  0.4623210000000  0.5209760000000  0.4158930000000 1.0
C      1  0.4903330000000  0.4314850000000  0.4422120000000 1.0
C      1  0.5340920000000  0.5535920000000  0.4319420000000 1.0
C      1  0.4128110000000  0.6016210000000  0.5242320000000 1.0
C      1  0.6205380000000  0.4773030000000  0.5370600000000 1.0
C      1  0.4367850000000  0.4113540000000  0.3994460000000 1.0
C      1  0.5077250000000  0.3915250000000  0.5573500000000 1.0
C      1  0.5443790000000  0.4272200000000  0.4172410000000 1.0
C      1  0.5482280000000  0.5580500000000  0.6152110000000 1.0
C      1  0.4265070000000  0.4357190000000  0.4010080000000 1.0
C      1  0.4135530000000  0.5501340000000  0.4431030000000 1.0
C      1  0.5163470000000  0.5688890000000  0.4163830000000 1.0
C      1  0.4775790000000  0.4135790000000  0.4617070000000 1.0
C      1  0.5063960000000  0.5105620000000  0.3968600000000 1.0
C      1  0.5316590000000  0.4890990000000  0.4883970000000 1.0
C      1  0.5953150000000  0.5429940000000  0.5715770000000 1.0
C      1  0.5204360000000  0.4930890000000  0.4387070000000 1.0
C      1  0.5982450000000  0.4762260000000  0.4451020000000 1.0
C      1  0.5116370000000  0.4996050000000  0.5742270000000 1.0
C      1  0.4111640000000  0.5412620000000  0.5463330000000 1.0
C      1  0.4469850000000  0.3482820000000  0.4719850000000 1.0
C      1  0.4234380000000  0.4833180000000  0.4472860000000 1.0
C      1  0.4901170000000  0.4809410000000  0.5087430000000 1.0
C      1  0.5556170000000  0.5066450000000  0.4115640000000 1.0
C      1  0.4428830000000  0.5209940000000  0.6296860000000 1.0
C      1  0.4863550000000  0.5301780000000  0.4014170000000 1.0
C      1  0.5699360000000  0.5889860000000  0.4444050000000 1.0
C      1  0.5845200000000  0.4949520000000  0.6030070000000 1.0
C      1  0.4962380000000  0.5566720000000  0.4011860000000 1.0
C      1  0.4392870000000  0.4541450000000  0.5047890000000 1.0
C      1  0.4565120000000  0.3677730000000  0.5583850000000 1.0
C      1  0.5501980000000  0.5218090000000  0.4578040000000 1.0
C      1  0.5270870000000  0.5087850000000  0.4162120000000 1.0
C      1  0.4438620000000  0.5222640000000  0.6025460000000 1.0
C      1  0.4465870000000  0.5037010000000  0.5271710000000 1.0
C      1  0.4158250000000  0.4963930000000  0.4706770000000 1.0
C      1  0.6200330000000  0.4964330000000  0.5590500000000 1.0
C      1  0.5293160000000  0.4681980000000  0.3919090000000 1.0
C      1  0.4396230000000  0.3674760000000  0.4887090000000 1.0
C      1  0.4962050000000  0.4090760000000  0.5765160000000 1.0
C      1  0.4291620000000  0.5397720000000  0.5008270000000 1.0
END
