TITL C-599892-9790-824 -0.0561495900239426 125000 -240.574839162989 0 0 41 (C1) n - 1
REM
REM in /home/nfs/bkarasulu/CARBON/AIRSS/Generating-Clusters/TERSOFF/Only-C1/FIRE-HFTN
REM
REM
REM
REM
REM
REM ./C.cell (11c1c37f851c82e70ff6c80c92926a4b)
REM AIRSS Version 0.9.1 bugfix July 2018 build 013d7b7c2542+ Fri, 06 Jul 2018 19:26:36 +0100
REM compiler GCC version 9.2.1 20190827 (Red Hat 9.2.1-1)
REM options -cpp -mtune=generic -march=x86-64 -g -O0 -fpre-include=/usr/include/finclude/math-vector-fortran.h
REM seed -1929074011 -926748690 1748651401 754954819 707343604 -1193536254 1920580432 -161692286 1656816 748462902 -1662004839 1560492238 -2094972137 964178156 -532464399 -1152378430 319765596 1250211824 918055293 1018949449 -1107321944 -214011955 1907765552 -1626768369 840003297 -1576754766 -1167260751 -801642793 1655975859 -911786228 380408190 1143095848 -1709870416
REM
CELL 1.54180   50.00000   50.00000   50.00000   90.00000   90.00000   90.00000
LATT -1
SFAC C  
C      1  0.4779980000000  0.5604200000000  0.4946900000000 1.0
C      1  0.4610470000000  0.5637470000000  0.4715880000000 1.0
C      1  0.5058950000000  0.4793210000000  0.4652400000000 1.0
C      1  0.5718460000000  0.4656030000000  0.4898740000000 1.0
C      1  0.4490120000000  0.5384650000000  0.4636430000000 1.0
C      1  0.4990210000000  0.4578180000000  0.5531680000000 1.0
C      1  0.5113300000000  0.4743900000000  0.5335460000000 1.0
C      1  0.5353260000000  0.4501070000000  0.6250750000000 1.0
C      1  0.4489220000000  0.4472050000000  0.5409600000000 1.0
C      1  0.5231180000000  0.4523950000000  0.6016590000000 1.0
C      1  0.4163660000000  0.5076190000000  0.4064210000000 1.0
C      1  0.4548770000000  0.5281200000000  0.4380340000000 1.0
C      1  0.4746200000000  0.4450790000000  0.5478410000000 1.0
C      1  0.5604040000000  0.4686530000000  0.5136920000000 1.0
C      1  0.5598150000000  0.4618690000000  0.4155630000000 1.0
C      1  0.5247350000000  0.4722370000000  0.4478760000000 1.0
C      1  0.5378850000000  0.5531540000000  0.4722700000000 1.0
C      1  0.4567540000000  0.5067460000000  0.5411510000000 1.0
C      1  0.5389070000000  0.4720320000000  0.5289380000000 1.0
C      1  0.5011590000000  0.5310900000000  0.5450970000000 1.0
C      1  0.4363640000000  0.4931840000000  0.5262500000000 1.0
C      1  0.5281970000000  0.5428500000000  0.4495510000000 1.0
C      1  0.4963010000000  0.4867520000000  0.4888560000000 1.0
C      1  0.5691330000000  0.4643410000000  0.4634210000000 1.0
C      1  0.5110560000000  0.4547380000000  0.5781960000000 1.0
C      1  0.5473350000000  0.4478580000000  0.6481050000000 1.0
C      1  0.5076310000000  0.5345750000000  0.4346800000000 1.0
C      1  0.4350820000000  0.5176360000000  0.4215390000000 1.0
C      1  0.4710260000000  0.5341380000000  0.5051830000000 1.0
C      1  0.5676420000000  0.4580860000000  0.3909940000000 1.0
C      1  0.5513940000000  0.4660390000000  0.4417620000000 1.0
C      1  0.5026770000000  0.5727250000000  0.4976170000000 1.0
C      1  0.5291540000000  0.5628310000000  0.4971320000000 1.0
C      1  0.4819390000000  0.5289540000000  0.4301460000000 1.0
C      1  0.4821510000000  0.5163740000000  0.5277440000000 1.0
C      1  0.4492880000000  0.5229840000000  0.4882510000000 1.0
C      1  0.4322240000000  0.5044130000000  0.5005890000000 1.0
C      1  0.5387740000000  0.5543780000000  0.5221940000000 1.0
C      1  0.5251630000000  0.5429000000000  0.5424040000000 1.0
C      1  0.4963960000000  0.4918970000000  0.5164600000000 1.0
C      1  0.4320360000000  0.4662730000000  0.5325960000000 1.0
END
