TITL C-599895-9959-137 11661.7987136365 125000 -1075.59514122699 0 0 173 (C1) n - 1
REM
REM in /home/nfs/bkarasulu/CARBON/AIRSS/Generating-Clusters/TERSOFF/Only-C1/FIRE-HFTN
REM
REM
REM
REM
REM
REM ./C.cell (11c1c37f851c82e70ff6c80c92926a4b)
REM AIRSS Version 0.9.1 bugfix July 2018 build 013d7b7c2542+ Fri, 06 Jul 2018 19:26:36 +0100
REM compiler GCC version 9.2.1 20190827 (Red Hat 9.2.1-1)
REM options -cpp -mtune=generic -march=x86-64 -g -O0 -fpre-include=/usr/include/finclude/math-vector-fortran.h
REM seed 1350711551 717135867 -1275501528 -1914382594 -372661523 -467303770 -549152693 -1979267083 273568800 -105796315 -263452612 184894233 -150345983 1010708021 -1772327172 2077979828 -1470889628 2137277694 -1105722032 -746536041 275659147 -1430219974 -1413505039 -157046198 -2044347922 576977038 982983473 -1446948259 1460331296 690529680 -488840008 -130338393 -1876184626
REM
CELL 1.54180   50.00000   50.00000   50.00000   90.00000   90.00000   90.00000
LATT -1
SFAC C  
C      1  0.3907310000000  0.4939350000000  0.5283460000000 1.0
C      1  0.4869220000000  0.4939980000000  0.5577120000000 1.0
C      1  0.4052680000000  0.4743730000000  0.5113130000000 1.0
C      1  0.4962170000000  0.6079710000000  0.5649590000000 1.0
C      1  0.5108940000000  0.5707260000000  0.4542900000000 1.0
C      1  0.5429240000000  0.4044150000000  0.5383950000000 1.0
C      1  0.5300590000000  0.5693540000000  0.5261200000000 1.0
C      1  0.4835000000000  0.4902100000000  0.4582080000000 1.0
C      1  0.4818310000000  0.6185180000000  0.5184690000000 1.0
C      1  0.4574260000000  0.3945770000000  0.4869670000000 1.0
C      1  0.5197020000000  0.6031980000000  0.5771720000000 1.0
C      1  0.5687890000000  0.6038870000000  0.3470780000000 1.0
C      1  0.5937160000000  0.4919900000000  0.5354830000000 1.0
C      1  0.4888600000000  0.5472230000000  0.6111730000000 1.0
C      1  0.5280510000000  0.4232260000000  0.5532970000000 1.0
C      1  0.4320260000000  0.5060610000000  0.4624880000000 1.0
C      1  0.6011820000000  0.5500840000000  0.4750190000000 1.0
C      1  0.4541240000000  0.4717410000000  0.4105590000000 1.0
C      1  0.4416080000000  0.5028460000000  0.5388620000000 1.0
C      1  0.4735280000000  0.5122560000000  0.4435580000000 1.0
C      1  0.6170560000000  0.5290540000000  0.5174860000000 1.0
C      1  0.4393500000000  0.4479950000000  0.4104050000000 1.0
C      1  0.4648530000000  0.4034550000000  0.4610900000000 1.0
C      1  0.4343590000000  0.5344810000000  0.5376420000000 1.0
C      1  0.5814740000000  0.5569510000000  0.5740970000000 1.0
C      1  0.5144790000000  0.5064730000000  0.4888570000000 1.0
C      1  0.4893320000000  0.5238110000000  0.3795830000000 1.0
C      1  0.4943350000000  0.5819670000000  0.4945380000000 1.0
C      1  0.4731920000000  0.5258960000000  0.5983530000000 1.0
C      1  0.4789550000000  0.5723000000000  0.5367330000000 1.0
C      1  0.4069240000000  0.5576910000000  0.4593520000000 1.0
C      1  0.4493320000000  0.5761480000000  0.5950430000000 1.0
C      1  0.5383460000000  0.4019740000000  0.5930040000000 1.0
C      1  0.5159480000000  0.5364750000000  0.6078850000000 1.0
C      1  0.4475800000000  0.4994360000000  0.4092820000000 1.0
C      1  0.4817850000000  0.4668450000000  0.4167860000000 1.0
C      1  0.3823240000000  0.5110940000000  0.4567500000000 1.0
C      1  0.5425910000000  0.3945840000000  0.5122900000000 1.0
C      1  0.5380240000000  0.4572170000000  0.4946380000000 1.0
C      1  0.3946200000000  0.5338390000000  0.4469910000000 1.0
C      1  0.5882660000000  0.4490330000000  0.4821100000000 1.0
C      1  0.4054610000000  0.5167970000000  0.5750770000000 1.0
C      1  0.4888530000000  0.5143720000000  0.5772950000000 1.0
C      1  0.4627520000000  0.5133920000000  0.3883110000000 1.0
C      1  0.5803920000000  0.5037940000000  0.4106140000000 1.0
C      1  0.4996880000000  0.4332200000000  0.5134140000000 1.0
C      1  0.5665530000000  0.4725440000000  0.4418950000000 1.0
C      1  0.4455780000000  0.5289570000000  0.6005840000000 1.0
C      1  0.5055860000000  0.4978390000000  0.5349150000000 1.0
C      1  0.4773960000000  0.4400870000000  0.5698070000000 1.0
C      1  0.5178990000000  0.5291110000000  0.4333000000000 1.0
C      1  0.5697740000000  0.4057540000000  0.5504090000000 1.0
C      1  0.5385160000000  0.4444140000000  0.4668410000000 1.0
C      1  0.5597700000000  0.4983510000000  0.4820800000000 1.0
C      1  0.5332380000000  0.4972350000000  0.4711770000000 1.0
C      1  0.4942650000000  0.4590690000000  0.6120520000000 1.0
C      1  0.4324120000000  0.4760000000000  0.5014650000000 1.0
C      1  0.5183420000000  0.5172530000000  0.5153980000000 1.0
C      1  0.4287500000000  0.5064810000000  0.6006890000000 1.0
C      1  0.5205530000000  0.4604300000000  0.4470980000000 1.0
C      1  0.4359280000000  0.5524020000000  0.5863610000000 1.0
C      1  0.4011600000000  0.4958470000000  0.5557680000000 1.0
C      1  0.4891290000000  0.4066460000000  0.4452330000000 1.0
C      1  0.3970930000000  0.4386360000000  0.4835620000000 1.0
C      1  0.5550150000000  0.4080740000000  0.4903660000000 1.0
C      1  0.3781020000000  0.4949780000000  0.4805020000000 1.0
C      1  0.5323200000000  0.3495740000000  0.4391140000000 1.0
C      1  0.4702270000000  0.5334610000000  0.5082090000000 1.0
C      1  0.5384140000000  0.5107760000000  0.3785250000000 1.0
C      1  0.4963870000000  0.4557700000000  0.3951050000000 1.0
C      1  0.5977960000000  0.5241310000000  0.4636310000000 1.0
C      1  0.4334860000000  0.4797400000000  0.4732370000000 1.0
C      1  0.4620580000000  0.5486650000000  0.5322190000000 1.0
C      1  0.4890090000000  0.4963690000000  0.4846780000000 1.0
C      1  0.4501320000000  0.4252600000000  0.4231650000000 1.0
C      1  0.4940500000000  0.5517720000000  0.3892070000000 1.0
C      1  0.5387870000000  0.4916230000000  0.6204170000000 1.0
C      1  0.4871600000000  0.5692010000000  0.4706730000000 1.0
C      1  0.4201800000000  0.5405220000000  0.5646490000000 1.0
C      1  0.4347910000000  0.5692150000000  0.4537100000000 1.0
C      1  0.5660490000000  0.4916120000000  0.6091230000000 1.0
C      1  0.4315860000000  0.5260620000000  0.4841340000000 1.0
C      1  0.4208160000000  0.4133220000000  0.5191730000000 1.0
C      1  0.5811410000000  0.5610010000000  0.4927930000000 1.0
C      1  0.4683410000000  0.4727160000000  0.6159900000000 1.0
C      1  0.5797800000000  0.4246080000000  0.4997970000000 1.0
C      1  0.5542580000000  0.5499140000000  0.4929930000000 1.0
C      1  0.4514960000000  0.4904920000000  0.5160640000000 1.0
C      1  0.5153970000000  0.5263550000000  0.5801800000000 1.0
C      1  0.5505270000000  0.6092030000000  0.5047750000000 1.0
C      1  0.5861100000000  0.4178040000000  0.5284960000000 1.0
C      1  0.4895590000000  0.5309390000000  0.4311110000000 1.0
C      1  0.6083960000000  0.5540730000000  0.5266690000000 1.0
C      1  0.5523570000000  0.5331370000000  0.5454970000000 1.0
C      1  0.6060680000000  0.4964900000000  0.4582140000000 1.0
C      1  0.5249510000000  0.3743150000000  0.4450580000000 1.0
C      1  0.5393360000000  0.3250220000000  0.4338610000000 1.0
C      1  0.5279380000000  0.5175750000000  0.6253870000000 1.0
C      1  0.4934000000000  0.6109270000000  0.4925600000000 1.0
C      1  0.4456640000000  0.5101050000000  0.4368170000000 1.0
C      1  0.4923210000000  0.4079400000000  0.5165590000000 1.0
C      1  0.5106300000000  0.5039810000000  0.3748940000000 1.0
C      1  0.6100490000000  0.5009740000000  0.5134890000000 1.0
C      1  0.4790900000000  0.5514730000000  0.4146410000000 1.0
C      1  0.3912820000000  0.5597410000000  0.4846190000000 1.0
C      1  0.4933440000000  0.4684570000000  0.4426430000000 1.0
C      1  0.5528340000000  0.5091480000000  0.4029390000000 1.0
C      1  0.5078400000000  0.4102220000000  0.3800370000000 1.0
C      1  0.3891080000000  0.4672190000000  0.4867350000000 1.0
C      1  0.4369880000000  0.4164130000000  0.5420870000000 1.0
C      1  0.5503380000000  0.5413800000000  0.4663790000000 1.0
C      1  0.5386030000000  0.6186880000000  0.4822100000000 1.0
C      1  0.4325240000000  0.4064740000000  0.4938380000000 1.0
C      1  0.4411710000000  0.4183090000000  0.4496850000000 1.0
C      1  0.4594170000000  0.5620670000000  0.4686590000000 1.0
C      1  0.4703620000000  0.5786100000000  0.4205490000000 1.0
C      1  0.5659010000000  0.5774390000000  0.5822130000000 1.0
C      1  0.4453570000000  0.4730500000000  0.5740070000000 1.0
C      1  0.5125660000000  0.6158780000000  0.4694540000000 1.0
C      1  0.5100070000000  0.5985130000000  0.4435900000000 1.0
C      1  0.5163200000000  0.3998460000000  0.4533700000000 1.0
C      1  0.6062350000000  0.4799500000000  0.4844990000000 1.0
C      1  0.4724660000000  0.4686800000000  0.5644390000000 1.0
C      1  0.4950770000000  0.4271050000000  0.3972320000000 1.0
C      1  0.5785780000000  0.5342010000000  0.5575050000000 1.0
C      1  0.4280360000000  0.4847320000000  0.5558700000000 1.0
C      1  0.5227400000000  0.4678770000000  0.6139660000000 1.0
C      1  0.5687780000000  0.4505760000000  0.4598490000000 1.0
C      1  0.5395140000000  0.5412910000000  0.5190460000000 1.0
C      1  0.5359150000000  0.5181230000000  0.5634500000000 1.0
C      1  0.5287200000000  0.5491390000000  0.4502860000000 1.0
C      1  0.5586420000000  0.4768970000000  0.5011830000000 1.0
C      1  0.5355400000000  0.4455090000000  0.5693520000000 1.0
C      1  0.5721660000000  0.4930550000000  0.5811430000000 1.0
C      1  0.5381200000000  0.4850500000000  0.4434830000000 1.0
C      1  0.4551740000000  0.5411360000000  0.4857630000000 1.0
C      1  0.4927830000000  0.4344500000000  0.5941280000000 1.0
C      1  0.5860800000000  0.5713400000000  0.5184420000000 1.0
C      1  0.5050860000000  0.4756590000000  0.3767640000000 1.0
C      1  0.5126070000000  0.4124010000000  0.5970290000000 1.0
C      1  0.5074600000000  0.5786170000000  0.3921400000000 1.0
C      1  0.4792950000000  0.6014860000000  0.5429220000000 1.0
C      1  0.4387440000000  0.6010770000000  0.5918000000000 1.0
C      1  0.5890360000000  0.4886620000000  0.4342060000000 1.0
C      1  0.5360230000000  0.4694890000000  0.5556240000000 1.0
C      1  0.3903740000000  0.5382690000000  0.5044880000000 1.0
C      1  0.4441710000000  0.4814870000000  0.6013290000000 1.0
C      1  0.5627540000000  0.4013760000000  0.5789040000000 1.0
C      1  0.4766300000000  0.3891140000000  0.5061690000000 1.0
C      1  0.4208790000000  0.4229900000000  0.4708340000000 1.0
C      1  0.5889260000000  0.5067080000000  0.5608080000000 1.0
C      1  0.5173030000000  0.4544380000000  0.5131190000000 1.0
C      1  0.5465850000000  0.4921710000000  0.5674850000000 1.0
C      1  0.5540220000000  0.5872770000000  0.5227440000000 1.0
C      1  0.5359570000000  0.4149110000000  0.4686970000000 1.0
C      1  0.5189650000000  0.4726990000000  0.5339870000000 1.0
C      1  0.3958210000000  0.4253660000000  0.5107170000000 1.0
C      1  0.3785060000000  0.5114360000000  0.5066330000000 1.0
C      1  0.4744290000000  0.5716030000000  0.6088860000000 1.0
C      1  0.5697620000000  0.5199420000000  0.4658240000000 1.0
C      1  0.4182340000000  0.5335890000000  0.5098280000000 1.0
C      1  0.5730010000000  0.4759870000000  0.5251590000000 1.0
C      1  0.4962010000000  0.5936610000000  0.4170510000000 1.0
C      1  0.4584520000000  0.4226740000000  0.5573120000000 1.0
C      1  0.5275130000000  0.5884350000000  0.3757120000000 1.0
C      1  0.5024900000000  0.5716730000000  0.5194500000000 1.0
C      1  0.5380660000000  0.4495580000000  0.5973530000000 1.0
C      1  0.5436850000000  0.5925110000000  0.5827070000000 1.0
C      1  0.4789660000000  0.4175990000000  0.4194270000000 1.0
C      1  0.4719800000000  0.5048180000000  0.5046260000000 1.0
C      1  0.5344970000000  0.5077610000000  0.4249260000000 1.0
C      1  0.4441680000000  0.5825100000000  0.4301730000000 1.0
C      1  0.5481430000000  0.5963730000000  0.3611110000000 1.0
END
