TITL C-599890-3321-1058 2948.4162552437 125000 -953.471037470863 0 0 157 (C1) n - 1
REM
REM in /home/nfs/bkarasulu/CARBON/AIRSS/Generating-Clusters/TERSOFF/Only-C1/FIRE-HFTN
REM
REM
REM
REM
REM
REM ./C.cell (11c1c37f851c82e70ff6c80c92926a4b)
REM AIRSS Version 0.9.1 bugfix July 2018 build 013d7b7c2542+ Fri, 06 Jul 2018 19:26:36 +0100
REM compiler GCC version 9.2.1 20190827 (Red Hat 9.2.1-1)
REM options -cpp -mtune=generic -march=x86-64 -g -O0 -fpre-include=/usr/include/finclude/math-vector-fortran.h
REM seed 45116103 -141374898 -730089296 -1079122833 -238946664 1629660862 1452640840 1617720721 -592727137 -1019068353 2095657686 2143794758 -1034310862 -291400028 1674523351 -1826129716 1809132892 657351141 -389837799 1825129922 1122858323 -1533492698 -60652793 2047463660 894850332 1092121718 757474288 -225384064 -939806623 -373016791 928787318 -1124519338 1432473502
REM
CELL 1.54180   50.00000   50.00000   50.00000   90.00000   90.00000   90.00000
LATT -1
SFAC C  
C      1  0.5176600000000  0.3962740000000  0.4486800000000 1.0
C      1  0.5555060000000  0.5559190000000  0.5700190000000 1.0
C      1  0.4545890000000  0.4627500000000  0.5828220000000 1.0
C      1  0.6631590000000  0.5395030000000  0.5863620000000 1.0
C      1  0.4081270000000  0.5372620000000  0.5197500000000 1.0
C      1  0.4754950000000  0.5275700000000  0.5258150000000 1.0
C      1  0.5503970000000  0.4015270000000  0.5068570000000 1.0
C      1  0.5248750000000  0.6204910000000  0.4709900000000 1.0
C      1  0.4054380000000  0.5402500000000  0.4708330000000 1.0
C      1  0.5134580000000  0.5552990000000  0.5088980000000 1.0
C      1  0.4878160000000  0.4862580000000  0.3828940000000 1.0
C      1  0.4890230000000  0.4789730000000  0.4777740000000 1.0
C      1  0.4375420000000  0.5238590000000  0.5683700000000 1.0
C      1  0.5371260000000  0.6429290000000  0.4820980000000 1.0
C      1  0.5293550000000  0.4232170000000  0.4519820000000 1.0
C      1  0.5996450000000  0.4811900000000  0.5198960000000 1.0
C      1  0.6075440000000  0.5466670000000  0.4871430000000 1.0
C      1  0.4192020000000  0.4276190000000  0.4604680000000 1.0
C      1  0.4835720000000  0.4606850000000  0.3980140000000 1.0
C      1  0.5330710000000  0.4371370000000  0.5771360000000 1.0
C      1  0.4100590000000  0.4575450000000  0.5558560000000 1.0
C      1  0.5069010000000  0.6235420000000  0.5536640000000 1.0
C      1  0.4930390000000  0.4037000000000  0.4336150000000 1.0
C      1  0.5368250000000  0.5215290000000  0.5986910000000 1.0
C      1  0.4533060000000  0.4596840000000  0.4406390000000 1.0
C      1  0.4379860000000  0.4034330000000  0.5056420000000 1.0
C      1  0.4130570000000  0.4787220000000  0.5363900000000 1.0
C      1  0.5130080000000  0.5001870000000  0.3875760000000 1.0
C      1  0.4373080000000  0.5738480000000  0.4968210000000 1.0
C      1  0.5348550000000  0.4872810000000  0.5237050000000 1.0
C      1  0.5733180000000  0.4194730000000  0.4631570000000 1.0
C      1  0.4574590000000  0.6157520000000  0.4353710000000 1.0
C      1  0.4973150000000  0.5569310000000  0.3995730000000 1.0
C      1  0.6127330000000  0.4897600000000  0.4687140000000 1.0
C      1  0.4106750000000  0.4803980000000  0.4412980000000 1.0
C      1  0.4248420000000  0.4531720000000  0.4462890000000 1.0
C      1  0.5308610000000  0.4730600000000  0.4545140000000 1.0
C      1  0.4368520000000  0.6229660000000  0.4211440000000 1.0
C      1  0.4422490000000  0.5862050000000  0.5216490000000 1.0
C      1  0.5927210000000  0.5250620000000  0.5507680000000 1.0
C      1  0.5143080000000  0.5065630000000  0.6079300000000 1.0
C      1  0.5556470000000  0.4318180000000  0.4433610000000 1.0
C      1  0.4264650000000  0.5389650000000  0.4509510000000 1.0
C      1  0.5000780000000  0.4962150000000  0.5862840000000 1.0
C      1  0.4449950000000  0.4965720000000  0.5794720000000 1.0
C      1  0.5533510000000  0.5833440000000  0.4576970000000 1.0
C      1  0.4315040000000  0.4499280000000  0.5728630000000 1.0
C      1  0.4541880000000  0.5143340000000  0.5115650000000 1.0
C      1  0.4971750000000  0.4732790000000  0.5699330000000 1.0
C      1  0.5583190000000  0.5067230000000  0.4674790000000 1.0
C      1  0.4582640000000  0.4628100000000  0.4125560000000 1.0
C      1  0.5038450000000  0.4301850000000  0.5759590000000 1.0
C      1  0.5592830000000  0.5040100000000  0.5955280000000 1.0
C      1  0.5063150000000  0.4372820000000  0.4649370000000 1.0
C      1  0.4418140000000  0.4847080000000  0.4010880000000 1.0
C      1  0.5154270000000  0.5548960000000  0.4220190000000 1.0
C      1  0.5190400000000  0.3968910000000  0.5432320000000 1.0
C      1  0.4883780000000  0.4779200000000  0.5412000000000 1.0
C      1  0.5679820000000  0.4826400000000  0.4791050000000 1.0
C      1  0.5630350000000  0.4762470000000  0.5905670000000 1.0
C      1  0.5059920000000  0.4523690000000  0.4129920000000 1.0
C      1  0.4393510000000  0.4809530000000  0.5208480000000 1.0
C      1  0.4829740000000  0.4253370000000  0.5310920000000 1.0
C      1  0.4426830000000  0.5843550000000  0.5483610000000 1.0
C      1  0.5077640000000  0.5032890000000  0.6340930000000 1.0
C      1  0.5327380000000  0.6599730000000  0.5292400000000 1.0
C      1  0.5257000000000  0.3853840000000  0.4983190000000 1.0
C      1  0.4540010000000  0.5465070000000  0.5775540000000 1.0
C      1  0.5399280000000  0.6583730000000  0.5036090000000 1.0
C      1  0.5192360000000  0.5067770000000  0.5081660000000 1.0
C      1  0.4996520000000  0.5601430000000  0.4474810000000 1.0
C      1  0.5299080000000  0.5331540000000  0.5128400000000 1.0
C      1  0.5321210000000  0.5467040000000  0.5837410000000 1.0
C      1  0.4717450000000  0.5472590000000  0.3997690000000 1.0
C      1  0.6400660000000  0.5351350000000  0.5750770000000 1.0
C      1  0.5003740000000  0.6221790000000  0.4575970000000 1.0
C      1  0.5301790000000  0.5013140000000  0.4639040000000 1.0
C      1  0.5291500000000  0.4598480000000  0.5200710000000 1.0
C      1  0.5122090000000  0.4706330000000  0.4334910000000 1.0
C      1  0.4817970000000  0.5410140000000  0.5802580000000 1.0
C      1  0.4600680000000  0.4960190000000  0.3808110000000 1.0
C      1  0.6150210000000  0.5241100000000  0.4999150000000 1.0
C      1  0.5087350000000  0.5001150000000  0.4830180000000 1.0
C      1  0.5493640000000  0.4616170000000  0.4749550000000 1.0
C      1  0.5530320000000  0.4807360000000  0.4127670000000 1.0
C      1  0.6122950000000  0.4954510000000  0.4970210000000 1.0
C      1  0.5712890000000  0.5631380000000  0.4508260000000 1.0
C      1  0.5820940000000  0.4654740000000  0.5726430000000 1.0
C      1  0.4143010000000  0.5549660000000  0.4964440000000 1.0
C      1  0.5448850000000  0.4089470000000  0.5362120000000 1.0
C      1  0.4806750000000  0.3915300000000  0.4793070000000 1.0
C      1  0.5859090000000  0.4999320000000  0.5371550000000 1.0
C      1  0.4514300000000  0.5188210000000  0.4847450000000 1.0
C      1  0.4496950000000  0.5416930000000  0.4684440000000 1.0
C      1  0.4071650000000  0.4544930000000  0.4950460000000 1.0
C      1  0.4231580000000  0.4102680000000  0.4824890000000 1.0
C      1  0.4574610000000  0.5681570000000  0.4757340000000 1.0
C      1  0.5054280000000  0.5569000000000  0.5750730000000 1.0
C      1  0.3931390000000  0.5148370000000  0.4785790000000 1.0
C      1  0.4672030000000  0.4172280000000  0.4733080000000 1.0
C      1  0.5387980000000  0.5347540000000  0.4195140000000 1.0
C      1  0.4811540000000  0.5168500000000  0.4353900000000 1.0
C      1  0.4351570000000  0.4583280000000  0.5002480000000 1.0
C      1  0.4983340000000  0.5704760000000  0.5502950000000 1.0
C      1  0.4994120000000  0.5983810000000  0.5499050000000 1.0
C      1  0.5636990000000  0.5398870000000  0.4353140000000 1.0
C      1  0.4787250000000  0.6059980000000  0.4504820000000 1.0
C      1  0.5576460000000  0.5016300000000  0.5323620000000 1.0
C      1  0.4651050000000  0.4768680000000  0.4613340000000 1.0
C      1  0.4794220000000  0.5788500000000  0.4589110000000 1.0
C      1  0.4333180000000  0.5245080000000  0.4272540000000 1.0
C      1  0.4925590000000  0.5335960000000  0.4548440000000 1.0
C      1  0.5424930000000  0.4570630000000  0.5954700000000 1.0
C      1  0.4241580000000  0.4976130000000  0.4207360000000 1.0
C      1  0.4989120000000  0.4147380000000  0.5527750000000 1.0
C      1  0.3926140000000  0.5149510000000  0.5082680000000 1.0
C      1  0.4608790000000  0.5292010000000  0.4188160000000 1.0
C      1  0.5001420000000  0.4528580000000  0.5186030000000 1.0
C      1  0.4827920000000  0.4252620000000  0.4505340000000 1.0
C      1  0.4874500000000  0.5084120000000  0.5429390000000 1.0
C      1  0.3629780000000  0.4312110000000  0.5578750000000 1.0
C      1  0.4200520000000  0.5314970000000  0.5458440000000 1.0
C      1  0.4639190000000  0.4042160000000  0.5205340000000 1.0
C      1  0.5901830000000  0.4314720000000  0.5070420000000 1.0
C      1  0.5194980000000  0.6462040000000  0.5478160000000 1.0
C      1  0.5590330000000  0.4552300000000  0.4242130000000 1.0
C      1  0.5523170000000  0.5307850000000  0.5297350000000 1.0
C      1  0.5346790000000  0.5941770000000  0.4755030000000 1.0
C      1  0.4950540000000  0.4933860000000  0.4312960000000 1.0
C      1  0.4907470000000  0.5538650000000  0.5267520000000 1.0
C      1  0.4364280000000  0.5877010000000  0.5961450000000 1.0
C      1  0.4604280000000  0.4719590000000  0.5378570000000 1.0
C      1  0.5430350000000  0.4483690000000  0.4985590000000 1.0
C      1  0.5095460000000  0.3858060000000  0.4745200000000 1.0
C      1  0.3857000000000  0.4439700000000  0.5577210000000 1.0
C      1  0.5225720000000  0.5777040000000  0.4948900000000 1.0
C      1  0.5363370000000  0.5060830000000  0.4054800000000 1.0
C      1  0.6166830000000  0.5306260000000  0.5634810000000 1.0
C      1  0.6007310000000  0.5035560000000  0.4480520000000 1.0
C      1  0.4976410000000  0.4536390000000  0.4874530000000 1.0
C      1  0.4832540000000  0.4511270000000  0.5814850000000 1.0
C      1  0.4442010000000  0.5731720000000  0.5743080000000 1.0
C      1  0.3911610000000  0.4929480000000  0.5255600000000 1.0
C      1  0.5726510000000  0.4144200000000  0.4918540000000 1.0
C      1  0.4545630000000  0.4397040000000  0.4887060000000 1.0
C      1  0.5694910000000  0.5431250000000  0.5491980000000 1.0
C      1  0.3880710000000  0.4672740000000  0.4809060000000 1.0
C      1  0.4889770000000  0.5160620000000  0.5701620000000 1.0
C      1  0.5090760000000  0.3800660000000  0.5222080000000 1.0
C      1  0.5528540000000  0.4302050000000  0.5545730000000 1.0
C      1  0.4802110000000  0.3794410000000  0.5214600000000 1.0
C      1  0.3940980000000  0.4895150000000  0.4640440000000 1.0
C      1  0.5912250000000  0.4530010000000  0.5255860000000 1.0
C      1  0.4468570000000  0.4957830000000  0.4702500000000 1.0
C      1  0.5766300000000  0.4478340000000  0.5507490000000 1.0
C      1  0.5937930000000  0.5598910000000  0.4682080000000 1.0
C      1  0.5752600000000  0.5166580000000  0.4473780000000 1.0
END
