TITL C-599894-471-892 0.250913615188989 125000 -691.203804382909 0 0 114 (C1) n - 1
REM
REM in /home/nfs/bkarasulu/CARBON/AIRSS/Generating-Clusters/TERSOFF/Only-C1/FIRE-HFTN
REM
REM
REM
REM
REM
REM ./C.cell (11c1c37f851c82e70ff6c80c92926a4b)
REM AIRSS Version 0.9.1 bugfix July 2018 build 013d7b7c2542+ Fri, 06 Jul 2018 19:26:36 +0100
REM compiler GCC version 9.2.1 20190827 (Red Hat 9.2.1-1)
REM options -cpp -mtune=generic -march=x86-64 -g -O0 -fpre-include=/usr/include/finclude/math-vector-fortran.h
REM seed 32201191 2094673571 -766528571 481513390 -1443357744 -2101959823 -1878382046 1305663655 387122657 1134713277 -1283025892 -95643848 581263428 -1308490010 1071337266 30419932 1975114483 -1729707217 -566943335 -803970345 -586444632 2076188261 761101312 1863555887 -400593243 715587671 1433645219 353907511 -1017620654 2079436210 -1126283401 -1982029276 565126312
REM
CELL 1.54180   50.00000   50.00000   50.00000   90.00000   90.00000   90.00000
LATT -1
SFAC C  
C      1  0.4986660000000  0.5011600000000  0.4624960000000 1.0
C      1  0.6116990000000  0.5686960000000  0.4802630000000 1.0
C      1  0.4340850000000  0.4962240000000  0.4485190000000 1.0
C      1  0.4620710000000  0.5803190000000  0.4633590000000 1.0
C      1  0.5854930000000  0.5019830000000  0.5818120000000 1.0
C      1  0.4295680000000  0.4201860000000  0.5298540000000 1.0
C      1  0.5421940000000  0.5226890000000  0.5618230000000 1.0
C      1  0.5443900000000  0.4636830000000  0.5127420000000 1.0
C      1  0.6045100000000  0.4872710000000  0.5699140000000 1.0
C      1  0.5959050000000  0.5267170000000  0.4183170000000 1.0
C      1  0.5649910000000  0.5349010000000  0.4946070000000 1.0
C      1  0.4883970000000  0.4325000000000  0.4276680000000 1.0
C      1  0.5491960000000  0.4578910000000  0.5577660000000 1.0
C      1  0.5653980000000  0.5260160000000  0.5211830000000 1.0
C      1  0.4239840000000  0.5487620000000  0.5363640000000 1.0
C      1  0.3440590000000  0.5026620000000  0.5028940000000 1.0
C      1  0.4908840000000  0.5069130000000  0.5076120000000 1.0
C      1  0.6223600000000  0.4858060000000  0.4602570000000 1.0
C      1  0.5752240000000  0.5597260000000  0.4524930000000 1.0
C      1  0.5180990000000  0.5581340000000  0.4496920000000 1.0
C      1  0.4670670000000  0.4504590000000  0.5467970000000 1.0
C      1  0.3829450000000  0.5010180000000  0.5496940000000 1.0
C      1  0.4894190000000  0.5727460000000  0.5226790000000 1.0
C      1  0.5278180000000  0.4417600000000  0.5202140000000 1.0
C      1  0.6068190000000  0.4651570000000  0.4713990000000 1.0
C      1  0.5201090000000  0.5412340000000  0.4259680000000 1.0
C      1  0.4693730000000  0.4620150000000  0.5202630000000 1.0
C      1  0.4849440000000  0.4497250000000  0.4972350000000 1.0
C      1  0.4577720000000  0.5745590000000  0.4344090000000 1.0
C      1  0.4645290000000  0.5598490000000  0.4841210000000 1.0
C      1  0.4796470000000  0.4553130000000  0.4692080000000 1.0
C      1  0.4679330000000  0.5345300000000  0.4724460000000 1.0
C      1  0.4970490000000  0.5526580000000  0.5668010000000 1.0
C      1  0.3721800000000  0.4601150000000  0.4589180000000 1.0
C      1  0.6147830000000  0.4735290000000  0.5493270000000 1.0
C      1  0.5076200000000  0.5644790000000  0.5434990000000 1.0
C      1  0.4422930000000  0.4343200000000  0.5503090000000 1.0
C      1  0.5080340000000  0.4052630000000  0.5738950000000 1.0
C      1  0.6028950000000  0.5551490000000  0.4569250000000 1.0
C      1  0.5837350000000  0.4553630000000  0.4571950000000 1.0
C      1  0.5662220000000  0.4744980000000  0.4445530000000 1.0
C      1  0.6120750000000  0.5328930000000  0.4413170000000 1.0
C      1  0.4510430000000  0.5108840000000  0.5259520000000 1.0
C      1  0.5745040000000  0.5867490000000  0.5122030000000 1.0
C      1  0.4872570000000  0.5327720000000  0.5817660000000 1.0
C      1  0.4487750000000  0.4833680000000  0.5177270000000 1.0
C      1  0.5364230000000  0.5643950000000  0.5369000000000 1.0
C      1  0.5580520000000  0.5525490000000  0.4738930000000 1.0
C      1  0.5091260000000  0.4333460000000  0.5009820000000 1.0
C      1  0.4822930000000  0.4570050000000  0.4402060000000 1.0
C      1  0.5634290000000  0.5611300000000  0.4268630000000 1.0
C      1  0.5688300000000  0.5169900000000  0.4148610000000 1.0
C      1  0.4893800000000  0.4827700000000  0.5852270000000 1.0
C      1  0.5710060000000  0.4991740000000  0.5288980000000 1.0
C      1  0.5692310000000  0.3722790000000  0.5544310000000 1.0
C      1  0.5513060000000  0.5406540000000  0.5415840000000 1.0
C      1  0.4143670000000  0.4278150000000  0.5091060000000 1.0
C      1  0.6115280000000  0.4590600000000  0.4985920000000 1.0
C      1  0.4145350000000  0.5463440000000  0.4355000000000 1.0
C      1  0.4764680000000  0.5075790000000  0.4812930000000 1.0
C      1  0.4275720000000  0.4450550000000  0.5730980000000 1.0
C      1  0.5584080000000  0.4746990000000  0.5352830000000 1.0
C      1  0.4632840000000  0.5094840000000  0.6159440000000 1.0
C      1  0.5223060000000  0.4945510000000  0.4532060000000 1.0
C      1  0.4082060000000  0.4530320000000  0.4982200000000 1.0
C      1  0.4480720000000  0.4574410000000  0.5888160000000 1.0
C      1  0.3877510000000  0.5468600000000  0.4433410000000 1.0
C      1  0.5279190000000  0.5834510000000  0.4941150000000 1.0
C      1  0.6161140000000  0.4633550000000  0.5245960000000 1.0
C      1  0.4716600000000  0.5491820000000  0.4271060000000 1.0
C      1  0.4488680000000  0.5396610000000  0.5265740000000 1.0
C      1  0.4582760000000  0.5326720000000  0.4461440000000 1.0
C      1  0.5155490000000  0.4747760000000  0.5915890000000 1.0
C      1  0.4444160000000  0.4817460000000  0.4263180000000 1.0
C      1  0.5504920000000  0.3901440000000  0.5574090000000 1.0
C      1  0.3706360000000  0.5459050000000  0.4637870000000 1.0
C      1  0.4716820000000  0.4641900000000  0.5731410000000 1.0
C      1  0.3884430000000  0.4780920000000  0.5620750000000 1.0
C      1  0.5210090000000  0.4166350000000  0.4804080000000 1.0
C      1  0.5450730000000  0.4818600000000  0.4616150000000 1.0
C      1  0.5043990000000  0.5046070000000  0.5305070000000 1.0
C      1  0.4293600000000  0.5703650000000  0.4282470000000 1.0
C      1  0.4872020000000  0.5033230000000  0.4145330000000 1.0
C      1  0.4236970000000  0.4744150000000  0.5079380000000 1.0
C      1  0.4505450000000  0.4922470000000  0.4726620000000 1.0
C      1  0.3885890000000  0.4564920000000  0.4788380000000 1.0
C      1  0.3632150000000  0.5212780000000  0.5079740000000 1.0
C      1  0.5019570000000  0.5895260000000  0.5031870000000 1.0
C      1  0.4663010000000  0.5588860000000  0.5129420000000 1.0
C      1  0.5667590000000  0.4894010000000  0.4206870000000 1.0
C      1  0.3808850000000  0.5216910000000  0.5311680000000 1.0
C      1  0.5980900000000  0.5812550000000  0.5001750000000 1.0
C      1  0.5709470000000  0.4310970000000  0.4647990000000 1.0
C      1  0.4798550000000  0.5084680000000  0.5940520000000 1.0
C      1  0.5465150000000  0.4754120000000  0.4882620000000 1.0
C      1  0.5393580000000  0.4667540000000  0.5824350000000 1.0
C      1  0.3855100000000  0.5612040000000  0.5082590000000 1.0
C      1  0.5308820000000  0.4099700000000  0.5596140000000 1.0
C      1  0.5487930000000  0.4192860000000  0.4744420000000 1.0
C      1  0.6257280000000  0.5111110000000  0.4524760000000 1.0
C      1  0.5326770000000  0.5654550000000  0.4726200000000 1.0
C      1  0.3970180000000  0.5461340000000  0.5300550000000 1.0
C      1  0.5349630000000  0.4346140000000  0.5468860000000 1.0
C      1  0.3688380000000  0.5446080000000  0.4914780000000 1.0
C      1  0.4952950000000  0.4086380000000  0.4378670000000 1.0
C      1  0.5480580000000  0.5380450000000  0.4176650000000 1.0
C      1  0.4025250000000  0.4570580000000  0.5705130000000 1.0
C      1  0.4729490000000  0.4794130000000  0.4241430000000 1.0
C      1  0.4313300000000  0.5242270000000  0.4424360000000 1.0
C      1  0.5198640000000  0.5083130000000  0.5520590000000 1.0
C      1  0.4939790000000  0.5320770000000  0.4173240000000 1.0
C      1  0.5057190000000  0.4022520000000  0.4617580000000 1.0
C      1  0.5468460000000  0.5815320000000  0.5159970000000 1.0
C      1  0.5616300000000  0.5143200000000  0.5804250000000 1.0
END
