TITL C-599896-8500-216 -0.00441686950012188 125000 -303.824214898998 0 0 53 (C1) n - 1
REM
REM in /home/nfs/bkarasulu/CARBON/AIRSS/Generating-Clusters/TERSOFF/Only-C1/FIRE-HFTN
REM
REM
REM
REM
REM
REM ./C.cell (11c1c37f851c82e70ff6c80c92926a4b)
REM AIRSS Version 0.9.1 bugfix July 2018 build 013d7b7c2542+ Fri, 06 Jul 2018 19:26:36 +0100
REM compiler GCC version 9.2.1 20190827 (Red Hat 9.2.1-1)
REM options -cpp -mtune=generic -march=x86-64 -g -O0 -fpre-include=/usr/include/finclude/math-vector-fortran.h
REM seed -2051294862 -1257736072 51494437 -582211169 259582784 107209650 1271616309 707336332 -167736768 526812918 -2057778346 1727042741 -256772722 -128490425 -275249373 -42466329 1250587836 -1066920855 1294077550 -1863752594 258748956 1189184262 1332821601 -310837023 484386042 404635845 1382831213 1313095776 419593861 1415148375 1715326334 -1903067561 -507440909
REM
CELL 1.54180   50.00000   50.00000   50.00000   90.00000   90.00000   90.00000
LATT -1
SFAC C  
C      1  0.4641240000000  0.5485820000000  0.4976950000000 1.0
C      1  0.3935750000000  0.5263070000000  0.4962760000000 1.0
C      1  0.5224070000000  0.5278840000000  0.4516120000000 1.0
C      1  0.4834870000000  0.4360040000000  0.5414340000000 1.0
C      1  0.5305110000000  0.4931960000000  0.4795600000000 1.0
C      1  0.4875840000000  0.4949570000000  0.3909530000000 1.0
C      1  0.4456290000000  0.5610750000000  0.5939570000000 1.0
C      1  0.4382110000000  0.5817220000000  0.5212190000000 1.0
C      1  0.5201470000000  0.4260720000000  0.5120470000000 1.0
C      1  0.4236650000000  0.4711600000000  0.5339370000000 1.0
C      1  0.5432000000000  0.4697330000000  0.4849480000000 1.0
C      1  0.5064370000000  0.4827000000000  0.4344210000000 1.0
C      1  0.5614810000000  0.5344370000000  0.5210990000000 1.0
C      1  0.5115260000000  0.4719810000000  0.5256520000000 1.0
C      1  0.4692210000000  0.5531140000000  0.5456350000000 1.0
C      1  0.5241530000000  0.5188080000000  0.4953170000000 1.0
C      1  0.4767140000000  0.5259060000000  0.4829540000000 1.0
C      1  0.5053110000000  0.4443560000000  0.5259000000000 1.0
C      1  0.5841950000000  0.5109150000000  0.4867010000000 1.0
C      1  0.5161940000000  0.5518170000000  0.5306740000000 1.0
C      1  0.4742860000000  0.5005490000000  0.5014990000000 1.0
C      1  0.4940530000000  0.5398700000000  0.5435820000000 1.0
C      1  0.4092480000000  0.5069080000000  0.5038350000000 1.0
C      1  0.5733500000000  0.5097970000000  0.5134980000000 1.0
C      1  0.4357350000000  0.4522610000000  0.5483840000000 1.0
C      1  0.6025350000000  0.4506950000000  0.4517940000000 1.0
C      1  0.6076280000000  0.4964280000000  0.4800720000000 1.0
C      1  0.4630940000000  0.5207950000000  0.4567040000000 1.0
C      1  0.4864040000000  0.4388320000000  0.4526210000000 1.0
C      1  0.4566630000000  0.5615650000000  0.5214210000000 1.0
C      1  0.4341040000000  0.5647350000000  0.6170530000000 1.0
C      1  0.4547060000000  0.4601820000000  0.4814360000000 1.0
C      1  0.4586380000000  0.4388040000000  0.5504920000000 1.0
C      1  0.5612990000000  0.4878560000000  0.5278580000000 1.0
C      1  0.5355710000000  0.4829260000000  0.5393530000000 1.0
C      1  0.4975960000000  0.5119240000000  0.5463340000000 1.0
C      1  0.4534940000000  0.4122920000000  0.4758760000000 1.0
C      1  0.6321910000000  0.5057730000000  0.4876830000000 1.0
C      1  0.5227440000000  0.5019570000000  0.5574460000000 1.0
C      1  0.4572820000000  0.5573840000000  0.5704530000000 1.0
C      1  0.5497060000000  0.5369890000000  0.4531380000000 1.0
C      1  0.4912710000000  0.4937720000000  0.5237420000000 1.0
C      1  0.5025260000000  0.4554510000000  0.4394770000000 1.0
C      1  0.4517910000000  0.4832960000000  0.4968990000000 1.0
C      1  0.4276660000000  0.4875030000000  0.5114900000000 1.0
C      1  0.4675390000000  0.5105190000000  0.4324440000000 1.0
C      1  0.5713340000000  0.5275510000000  0.4669370000000 1.0
C      1  0.5343150000000  0.5371240000000  0.5149790000000 1.0
C      1  0.6053370000000  0.4726050000000  0.4656260000000 1.0
C      1  0.5060710000000  0.5320300000000  0.4762070000000 1.0
C      1  0.5224630000000  0.4983000000000  0.4514450000000 1.0
C      1  0.4645790000000  0.4365450000000  0.4700440000000 1.0
C      1  0.4870080000000  0.4960580000000  0.4181860000000 1.0
END
