TITL C-599895-9959-114 0.0169513231332581 125000 -546.170951323768 0 0 91 (C1) n - 1
REM
REM in /home/nfs/bkarasulu/CARBON/AIRSS/Generating-Clusters/TERSOFF/Only-C1/FIRE-HFTN
REM
REM
REM
REM
REM
REM ./C.cell (11c1c37f851c82e70ff6c80c92926a4b)
REM AIRSS Version 0.9.1 bugfix July 2018 build 013d7b7c2542+ Fri, 06 Jul 2018 19:26:36 +0100
REM compiler GCC version 9.2.1 20190827 (Red Hat 9.2.1-1)
REM options -cpp -mtune=generic -march=x86-64 -g -O0 -fpre-include=/usr/include/finclude/math-vector-fortran.h
REM seed -211081076 -1401291065 1620930801 -1509090668 -381714351 2049621980 -1150983610 807539445 237558909 468251079 -1809725974 -1223946951 1252859532 846542677 1851831852 2108973292 1234858294 -1241955282 2007846260 1060422883 512089801 -599102378 282810041 616452048 -1573927015 -641908535 -1686770886 -1248248039 -1246922808 1601570068 1702997432 -1960783061 -1382313903
REM
CELL 1.54180   50.00000   50.00000   50.00000   90.00000   90.00000   90.00000
LATT -1
SFAC C  
C      1  0.5603200000000  0.5589700000000  0.4969030000000 1.0
C      1  0.4897960000000  0.4250250000000  0.4348990000000 1.0
C      1  0.5135350000000  0.5036120000000  0.4114550000000 1.0
C      1  0.4600650000000  0.5119850000000  0.5781240000000 1.0
C      1  0.4982570000000  0.5380340000000  0.5010660000000 1.0
C      1  0.5532620000000  0.4753390000000  0.4173220000000 1.0
C      1  0.5397910000000  0.5070610000000  0.5078030000000 1.0
C      1  0.4940190000000  0.4508660000000  0.5851300000000 1.0
C      1  0.5217000000000  0.5688690000000  0.4128880000000 1.0
C      1  0.5775150000000  0.4297980000000  0.5344200000000 1.0
C      1  0.4191150000000  0.4377910000000  0.4888310000000 1.0
C      1  0.5077470000000  0.5376640000000  0.5274300000000 1.0
C      1  0.4375010000000  0.5163400000000  0.5117640000000 1.0
C      1  0.4730390000000  0.5662730000000  0.4719280000000 1.0
C      1  0.4888450000000  0.4743310000000  0.5719310000000 1.0
C      1  0.5055830000000  0.5632980000000  0.5401580000000 1.0
C      1  0.5450840000000  0.5448150000000  0.6013370000000 1.0
C      1  0.4173290000000  0.4793500000000  0.5458500000000 1.0
C      1  0.4994920000000  0.4111930000000  0.4563840000000 1.0
C      1  0.5066880000000  0.5129710000000  0.5432330000000 1.0
C      1  0.5463640000000  0.5322870000000  0.5542470000000 1.0
C      1  0.5845440000000  0.5134650000000  0.4637930000000 1.0
C      1  0.5918300000000  0.4730030000000  0.4836940000000 1.0
C      1  0.5425580000000  0.4148040000000  0.5636500000000 1.0
C      1  0.4617480000000  0.4837300000000  0.5696170000000 1.0
C      1  0.4997600000000  0.5600480000000  0.4003380000000 1.0
C      1  0.6034560000000  0.4309010000000  0.5321630000000 1.0
C      1  0.4972980000000  0.5590600000000  0.4818330000000 1.0
C      1  0.5790040000000  0.4843150000000  0.4600950000000 1.0
C      1  0.4192660000000  0.5266050000000  0.5547320000000 1.0
C      1  0.5902750000000  0.5191570000000  0.4932640000000 1.0
C      1  0.5211560000000  0.5140210000000  0.4362900000000 1.0
C      1  0.4770880000000  0.4459930000000  0.4230420000000 1.0
C      1  0.5007260000000  0.5417360000000  0.5810330000000 1.0
C      1  0.5102450000000  0.4907580000000  0.5614920000000 1.0
C      1  0.4292750000000  0.4618080000000  0.4744580000000 1.0
C      1  0.5421420000000  0.5648880000000  0.4296250000000 1.0
C      1  0.4425530000000  0.5274610000000  0.4684790000000 1.0
C      1  0.4116330000000  0.4721960000000  0.5181530000000 1.0
C      1  0.5356460000000  0.4840660000000  0.5700100000000 1.0
C      1  0.5551430000000  0.5234870000000  0.5277330000000 1.0
C      1  0.4873460000000  0.5582890000000  0.5612600000000 1.0
C      1  0.4577610000000  0.4585250000000  0.4699140000000 1.0
C      1  0.5328780000000  0.4852670000000  0.4021270000000 1.0
C      1  0.4843950000000  0.5383160000000  0.3964030000000 1.0
C      1  0.5351350000000  0.4614860000000  0.4592340000000 1.0
C      1  0.5783150000000  0.5334690000000  0.4448510000000 1.0
C      1  0.5266010000000  0.5954490000000  0.5128710000000 1.0
C      1  0.4854870000000  0.5032820000000  0.4691130000000 1.0
C      1  0.5023680000000  0.5865400000000  0.5242150000000 1.0
C      1  0.4864820000000  0.5119030000000  0.4060010000000 1.0
C      1  0.4456220000000  0.4427140000000  0.5345430000000 1.0
C      1  0.4215180000000  0.4432020000000  0.5170540000000 1.0
C      1  0.4893640000000  0.4582190000000  0.5231840000000 1.0
C      1  0.4828260000000  0.5226680000000  0.5924460000000 1.0
C      1  0.4426940000000  0.4665460000000  0.5544870000000 1.0
C      1  0.5323820000000  0.4803630000000  0.5129750000000 1.0
C      1  0.5304670000000  0.5394130000000  0.5784070000000 1.0
C      1  0.5559440000000  0.5502460000000  0.4489560000000 1.0
C      1  0.4452770000000  0.5325180000000  0.5642170000000 1.0
C      1  0.5986300000000  0.4925940000000  0.5022040000000 1.0
C      1  0.4268610000000  0.5096540000000  0.4857790000000 1.0
C      1  0.4754480000000  0.4201440000000  0.4975200000000 1.0
C      1  0.4602900000000  0.5530030000000  0.5493960000000 1.0
C      1  0.4609800000000  0.4306400000000  0.4756480000000 1.0
C      1  0.5334780000000  0.5204890000000  0.4822350000000 1.0
C      1  0.5576010000000  0.4723160000000  0.4453870000000 1.0
C      1  0.5089540000000  0.4612400000000  0.4654670000000 1.0
C      1  0.5311180000000  0.4317500000000  0.5199590000000 1.0
C      1  0.4568670000000  0.5644430000000  0.5198470000000 1.0
C      1  0.4194960000000  0.5314650000000  0.5270990000000 1.0
C      1  0.5745560000000  0.5373120000000  0.5102730000000 1.0
C      1  0.4510000000000  0.5532500000000  0.4839170000000 1.0
C      1  0.5177550000000  0.4570790000000  0.5194690000000 1.0
C      1  0.5142190000000  0.5116960000000  0.4629220000000 1.0
C      1  0.5504110000000  0.4254710000000  0.5397010000000 1.0
C      1  0.5229790000000  0.4125900000000  0.5009470000000 1.0
C      1  0.4077680000000  0.5014830000000  0.5603940000000 1.0
C      1  0.4715170000000  0.4356740000000  0.5218320000000 1.0
C      1  0.4624790000000  0.5128550000000  0.4503090000000 1.0
C      1  0.4817680000000  0.5163010000000  0.4952300000000 1.0
C      1  0.4660890000000  0.4708240000000  0.4208870000000 1.0
C      1  0.4747810000000  0.4823250000000  0.5242720000000 1.0
C      1  0.4640140000000  0.5058080000000  0.5140670000000 1.0
C      1  0.4831100000000  0.4731800000000  0.4688930000000 1.0
C      1  0.5498890000000  0.5834520000000  0.5060220000000 1.0
C      1  0.4173200000000  0.4831930000000  0.4900840000000 1.0
C      1  0.5460740000000  0.5461770000000  0.4754050000000 1.0
C      1  0.4744580000000  0.5880900000000  0.5169330000000 1.0
C      1  0.4669420000000  0.4996410000000  0.4237530000000 1.0
C      1  0.4998940000000  0.4100690000000  0.4852950000000 1.0
END
