TITL C-599895-9959-948 8605.88522008589 125000 -1227.44393187082 0 0 198 (C1) n - 1
REM
REM in /home/nfs/bkarasulu/CARBON/AIRSS/Generating-Clusters/TERSOFF/Only-C1/FIRE-HFTN
REM
REM
REM
REM
REM
REM ./C.cell (11c1c37f851c82e70ff6c80c92926a4b)
REM AIRSS Version 0.9.1 bugfix July 2018 build 013d7b7c2542+ Fri, 06 Jul 2018 19:26:36 +0100
REM compiler GCC version 9.2.1 20190827 (Red Hat 9.2.1-1)
REM options -cpp -mtune=generic -march=x86-64 -g -O0 -fpre-include=/usr/include/finclude/math-vector-fortran.h
REM seed 1350975438 1254994375 1010300709 1084803607 -1388965859 -1877502680 878091726 -1559519604 -69262029 -1209300819 -352444560 1933671026 572881592 286184782 -627177180 990838037 -1316463591 -1186258211 -806849066 -751501953 -474960675 2057623717 -1181105551 2021337113 -1049498028 -2982468 339786585 -691157172 -1972319196 -186639466 -1122549176 -1336927648 -231128797
REM
CELL 1.54180   50.00000   50.00000   50.00000   90.00000   90.00000   90.00000
LATT -1
SFAC C  
C      1  0.5618210000000  0.5368730000000  0.6022830000000 1.0
C      1  0.4157320000000  0.3863650000000  0.5422650000000 1.0
C      1  0.5513540000000  0.4347140000000  0.4687190000000 1.0
C      1  0.4792530000000  0.5416060000000  0.5666290000000 1.0
C      1  0.5089580000000  0.4853910000000  0.5521560000000 1.0
C      1  0.5201320000000  0.5671790000000  0.5180520000000 1.0
C      1  0.5892000000000  0.5427060000000  0.4301070000000 1.0
C      1  0.4762880000000  0.4507170000000  0.5976520000000 1.0
C      1  0.5042270000000  0.5901930000000  0.6117630000000 1.0
C      1  0.4788620000000  0.4117460000000  0.4478170000000 1.0
C      1  0.6464760000000  0.4850660000000  0.4717220000000 1.0
C      1  0.5692730000000  0.4781570000000  0.5441750000000 1.0
C      1  0.5162380000000  0.4693710000000  0.4559930000000 1.0
C      1  0.5878560000000  0.6281450000000  0.4867310000000 1.0
C      1  0.5040760000000  0.4409350000000  0.5654750000000 1.0
C      1  0.4967330000000  0.4266670000000  0.4309760000000 1.0
C      1  0.6117020000000  0.5219830000000  0.4687920000000 1.0
C      1  0.5218540000000  0.6033400000000  0.4373960000000 1.0
C      1  0.5694820000000  0.4569110000000  0.4684140000000 1.0
C      1  0.5657480000000  0.5275170000000  0.4816560000000 1.0
C      1  0.5424230000000  0.4778100000000  0.3902080000000 1.0
C      1  0.4098210000000  0.4593850000000  0.5943040000000 1.0
C      1  0.5209380000000  0.4961950000000  0.5275520000000 1.0
C      1  0.5837370000000  0.3951860000000  0.5138090000000 1.0
C      1  0.4200930000000  0.5148190000000  0.5007770000000 1.0
C      1  0.6000370000000  0.5872680000000  0.4608830000000 1.0
C      1  0.5408450000000  0.5204110000000  0.5913700000000 1.0
C      1  0.5216260000000  0.5355610000000  0.4724800000000 1.0
C      1  0.4960450000000  0.5142940000000  0.6358150000000 1.0
C      1  0.3978860000000  0.4046870000000  0.4207880000000 1.0
C      1  0.5594800000000  0.5016170000000  0.4736120000000 1.0
C      1  0.5844250000000  0.5725410000000  0.5700880000000 1.0
C      1  0.4805120000000  0.4441240000000  0.5081520000000 1.0
C      1  0.4614110000000  0.4713670000000  0.4687580000000 1.0
C      1  0.4380940000000  0.6026200000000  0.5215980000000 1.0
C      1  0.5353380000000  0.5224990000000  0.5347390000000 1.0
C      1  0.4271030000000  0.5762550000000  0.4388110000000 1.0
C      1  0.5740710000000  0.4475480000000  0.4202900000000 1.0
C      1  0.4500380000000  0.5232790000000  0.5350090000000 1.0
C      1  0.4901450000000  0.6039670000000  0.5330290000000 1.0
C      1  0.4083370000000  0.3755770000000  0.4627480000000 1.0
C      1  0.5935010000000  0.5564280000000  0.5022080000000 1.0
C      1  0.5939600000000  0.4812230000000  0.5605810000000 1.0
C      1  0.4200250000000  0.5839790000000  0.5105290000000 1.0
C      1  0.4932250000000  0.4632090000000  0.6161760000000 1.0
C      1  0.5096400000000  0.4478170000000  0.5021340000000 1.0
C      1  0.4676610000000  0.5125570000000  0.4411320000000 1.0
C      1  0.5520380000000  0.4245570000000  0.5369970000000 1.0
C      1  0.6380370000000  0.4624970000000  0.4599860000000 1.0
C      1  0.5347940000000  0.4051950000000  0.3848000000000 1.0
C      1  0.4819700000000  0.5428060000000  0.5013310000000 1.0
C      1  0.4101160000000  0.4401440000000  0.4574340000000 1.0
C      1  0.4765290000000  0.5399720000000  0.4423690000000 1.0
C      1  0.4392710000000  0.4786870000000  0.5360790000000 1.0
C      1  0.3759760000000  0.5325190000000  0.5422950000000 1.0
C      1  0.5702840000000  0.4158990000000  0.5583300000000 1.0
C      1  0.4156430000000  0.3805930000000  0.5146530000000 1.0
C      1  0.5811040000000  0.5973930000000  0.5573370000000 1.0
C      1  0.4808890000000  0.5323970000000  0.5925090000000 1.0
C      1  0.5875710000000  0.4626050000000  0.4431670000000 1.0
C      1  0.4630610000000  0.6112180000000  0.5272220000000 1.0
C      1  0.5957330000000  0.4561370000000  0.5753180000000 1.0
C      1  0.5003400000000  0.4639610000000  0.3733850000000 1.0
C      1  0.4512780000000  0.5019000000000  0.3968080000000 1.0
C      1  0.5615600000000  0.3890540000000  0.4944690000000 1.0
C      1  0.4918610000000  0.5906010000000  0.4857380000000 1.0
C      1  0.5897710000000  0.4234030000000  0.5081320000000 1.0
C      1  0.4933890000000  0.6008370000000  0.4381680000000 1.0
C      1  0.4656490000000  0.5594000000000  0.4598880000000 1.0
C      1  0.4482690000000  0.4989110000000  0.6000330000000 1.0
C      1  0.5068180000000  0.5933760000000  0.5106050000000 1.0
C      1  0.5652520000000  0.4203850000000  0.4246160000000 1.0
C      1  0.4426000000000  0.4270530000000  0.5699300000000 1.0
C      1  0.5362560000000  0.4028140000000  0.5013820000000 1.0
C      1  0.4779010000000  0.5018380000000  0.5934430000000 1.0
C      1  0.4030340000000  0.4832280000000  0.4675590000000 1.0
C      1  0.4106300000000  0.3731040000000  0.4894500000000 1.0
C      1  0.6356680000000  0.5092910000000  0.4755460000000 1.0
C      1  0.3892850000000  0.4839120000000  0.5579670000000 1.0
C      1  0.5664170000000  0.3894710000000  0.4663050000000 1.0
C      1  0.5074590000000  0.5128070000000  0.4780910000000 1.0
C      1  0.5603210000000  0.4129460000000  0.4515960000000 1.0
C      1  0.5634040000000  0.5387670000000  0.4153020000000 1.0
C      1  0.3983420000000  0.3718730000000  0.5587920000000 1.0
C      1  0.5645110000000  0.5826890000000  0.4263500000000 1.0
C      1  0.4047510000000  0.4844800000000  0.5824050000000 1.0
C      1  0.5375050000000  0.5232680000000  0.5636350000000 1.0
C      1  0.5928530000000  0.5323210000000  0.4874940000000 1.0
C      1  0.4574570000000  0.4538450000000  0.4462440000000 1.0
C      1  0.6037400000000  0.5543780000000  0.5601030000000 1.0
C      1  0.4808730000000  0.5644450000000  0.4826700000000 1.0
C      1  0.5832070000000  0.6263530000000  0.5130860000000 1.0
C      1  0.4544120000000  0.5739490000000  0.4132580000000 1.0
C      1  0.5128420000000  0.4489770000000  0.6310520000000 1.0
C      1  0.4611030000000  0.4718280000000  0.5541010000000 1.0
C      1  0.3819730000000  0.3588450000000  0.5743340000000 1.0
C      1  0.4717650000000  0.5194090000000  0.5508880000000 1.0
C      1  0.3890400000000  0.5292980000000  0.4657220000000 1.0
C      1  0.4930050000000  0.5883650000000  0.5572400000000 1.0
C      1  0.5457670000000  0.5183250000000  0.4254070000000 1.0
C      1  0.4624750000000  0.4548010000000  0.4180950000000 1.0
C      1  0.4839840000000  0.6081760000000  0.4643650000000 1.0
C      1  0.5132830000000  0.4462730000000  0.4427650000000 1.0
C      1  0.3988200000000  0.5318890000000  0.4388660000000 1.0
C      1  0.3934550000000  0.5550350000000  0.5439920000000 1.0
C      1  0.4991390000000  0.4933080000000  0.6131530000000 1.0
C      1  0.5428600000000  0.5496110000000  0.5231830000000 1.0
C      1  0.4735680000000  0.5013760000000  0.4146870000000 1.0
C      1  0.6047780000000  0.5046830000000  0.5717930000000 1.0
C      1  0.4292200000000  0.4535440000000  0.5002510000000 1.0
C      1  0.4986670000000  0.5939450000000  0.5841740000000 1.0
C      1  0.6019720000000  0.5081000000000  0.5998980000000 1.0
C      1  0.4022370000000  0.4819930000000  0.4376020000000 1.0
C      1  0.5294650000000  0.4983190000000  0.6059600000000 1.0
C      1  0.4958110000000  0.5518980000000  0.5246410000000 1.0
C      1  0.3933360000000  0.4313600000000  0.4147540000000 1.0
C      1  0.4682250000000  0.4430830000000  0.5633970000000 1.0
C      1  0.4530600000000  0.6517460000000  0.4709690000000 1.0
C      1  0.5526010000000  0.5644150000000  0.4067500000000 1.0
C      1  0.4912270000000  0.3828410000000  0.5408790000000 1.0
C      1  0.4342200000000  0.5039600000000  0.5232740000000 1.0
C      1  0.5675640000000  0.5621390000000  0.5904550000000 1.0
C      1  0.5023980000000  0.5417680000000  0.4307170000000 1.0
C      1  0.4985410000000  0.5412660000000  0.6369120000000 1.0
C      1  0.3749730000000  0.5494850000000  0.4795070000000 1.0
C      1  0.3953010000000  0.5725490000000  0.5210730000000 1.0
C      1  0.5455210000000  0.5910280000000  0.4458900000000 1.0
C      1  0.5135780000000  0.6117620000000  0.6259890000000 1.0
C      1  0.5838150000000  0.5228640000000  0.6133470000000 1.0
C      1  0.5179190000000  0.5204660000000  0.4199580000000 1.0
C      1  0.4321440000000  0.4058950000000  0.5542970000000 1.0
C      1  0.5700270000000  0.5585310000000  0.5189570000000 1.0
C      1  0.5017560000000  0.5007440000000  0.4065780000000 1.0
C      1  0.5464080000000  0.5474320000000  0.4751330000000 1.0
C      1  0.4951350000000  0.4378890000000  0.3827170000000 1.0
C      1  0.4105250000000  0.5529310000000  0.5664300000000 1.0
C      1  0.5333110000000  0.4049100000000  0.5293860000000 1.0
C      1  0.4827070000000  0.4373310000000  0.4079080000000 1.0
C      1  0.4003120000000  0.4527350000000  0.4324380000000 1.0
C      1  0.4111690000000  0.4581780000000  0.4789230000000 1.0
C      1  0.5581220000000  0.5006560000000  0.4442970000000 1.0
C      1  0.4580540000000  0.4568910000000  0.4938000000000 1.0
C      1  0.5860820000000  0.4932610000000  0.4377750000000 1.0
C      1  0.4804430000000  0.5165370000000  0.4874170000000 1.0
C      1  0.5668440000000  0.4779710000000  0.4883490000000 1.0
C      1  0.5181340000000  0.4762850000000  0.5048290000000 1.0
C      1  0.5467550000000  0.4794340000000  0.6187930000000 1.0
C      1  0.5690750000000  0.4402510000000  0.5183620000000 1.0
C      1  0.3764100000000  0.5665700000000  0.5003150000000 1.0
C      1  0.6102900000000  0.5284610000000  0.5578490000000 1.0
C      1  0.4811050000000  0.4933770000000  0.5626380000000 1.0
C      1  0.5625580000000  0.4630340000000  0.3996520000000 1.0
C      1  0.5470620000000  0.5749340000000  0.4691290000000 1.0
C      1  0.3751550000000  0.5066150000000  0.5492460000000 1.0
C      1  0.5542580000000  0.4061220000000  0.4030940000000 1.0
C      1  0.4318760000000  0.5465190000000  0.4070620000000 1.0
C      1  0.5008950000000  0.5656180000000  0.6256340000000 1.0
C      1  0.5841970000000  0.3940510000000  0.5439270000000 1.0
C      1  0.5161700000000  0.4866560000000  0.4782030000000 1.0
C      1  0.4685780000000  0.6309660000000  0.4684210000000 1.0
C      1  0.4293190000000  0.5679930000000  0.4885580000000 1.0
C      1  0.4129040000000  0.3957250000000  0.4437090000000 1.0
C      1  0.4654040000000  0.5000730000000  0.4672470000000 1.0
C      1  0.5714300000000  0.4404050000000  0.5735780000000 1.0
C      1  0.4272860000000  0.4178190000000  0.4545270000000 1.0
C      1  0.4119020000000  0.5549430000000  0.4277500000000 1.0
C      1  0.5277660000000  0.5703780000000  0.3944420000000 1.0
C      1  0.6060070000000  0.5758760000000  0.4863440000000 1.0
C      1  0.4736230000000  0.4288450000000  0.5310670000000 1.0
C      1  0.5015970000000  0.5774450000000  0.3967400000000 1.0
C      1  0.4225090000000  0.5059470000000  0.5898730000000 1.0
C      1  0.6008880000000  0.5187380000000  0.4420470000000 1.0
C      1  0.3956530000000  0.4628350000000  0.5394340000000 1.0
C      1  0.5147500000000  0.4831230000000  0.3882540000000 1.0
C      1  0.5511510000000  0.4611020000000  0.5628190000000 1.0
C      1  0.4206660000000  0.4594790000000  0.5266860000000 1.0
C      1  0.4507060000000  0.4900200000000  0.3722830000000 1.0
C      1  0.5388250000000  0.4567560000000  0.6313310000000 1.0
C      1  0.5176750000000  0.3866250000000  0.5432400000000 1.0
C      1  0.4887860000000  0.5612250000000  0.5507570000000 1.0
C      1  0.4810050000000  0.5855750000000  0.4155730000000 1.0
C      1  0.4083070000000  0.5072400000000  0.4247650000000 1.0
C      1  0.5222350000000  0.4617860000000  0.5621260000000 1.0
C      1  0.4173970000000  0.5329620000000  0.5832050000000 1.0
C      1  0.5946820000000  0.6150730000000  0.4640660000000 1.0
C      1  0.4009850000000  0.5075120000000  0.4809970000000 1.0
C      1  0.4291680000000  0.5408780000000  0.4954590000000 1.0
C      1  0.5689380000000  0.4690010000000  0.5161650000000 1.0
C      1  0.4740830000000  0.4011020000000  0.5313990000000 1.0
C      1  0.4293600000000  0.5173590000000  0.4060220000000 1.0
C      1  0.4543380000000  0.4251270000000  0.4531850000000 1.0
C      1  0.5123160000000  0.4167020000000  0.3758950000000 1.0
C      1  0.6155470000000  0.4540630000000  0.4481870000000 1.0
C      1  0.4400770000000  0.5719720000000  0.4626010000000 1.0
C      1  0.4253480000000  0.4381830000000  0.5894220000000 1.0
C      1  0.5810940000000  0.6151200000000  0.5372880000000 1.0
C      1  0.5897570000000  0.5718680000000  0.4382910000000 1.0
C      1  0.5299490000000  0.4285250000000  0.4884410000000 1.0
END
