TITL C-599892-9790-1466 67.0989106908912 125000 -804.741924901345 0 0 131 (C1) n - 1
REM
REM in /home/nfs/bkarasulu/CARBON/AIRSS/Generating-Clusters/TERSOFF/Only-C1/FIRE-HFTN
REM
REM
REM
REM
REM
REM ./C.cell (11c1c37f851c82e70ff6c80c92926a4b)
REM AIRSS Version 0.9.1 bugfix July 2018 build 013d7b7c2542+ Fri, 06 Jul 2018 19:26:36 +0100
REM compiler GCC version 9.2.1 20190827 (Red Hat 9.2.1-1)
REM options -cpp -mtune=generic -march=x86-64 -g -O0 -fpre-include=/usr/include/finclude/math-vector-fortran.h
REM seed -984266042 -807917465 -2077239701 -49125062 906137187 1944626459 -295221375 -1553697661 -268521037 964713158 145418889 1726962346 -885244649 890723582 -1945297455 -1364735339 1352062306 -1600782686 771990963 1278004938 504301901 1021865459 383672917 -802251691 -1670970280 1470945546 2098829257 248604865 808240486 860551521 444515351 -264595515 -1020426342
REM
CELL 1.54180   50.00000   50.00000   50.00000   90.00000   90.00000   90.00000
LATT -1
SFAC C  
C      1  0.4731930000000  0.3909150000000  0.4921720000000 1.0
C      1  0.4085520000000  0.5793290000000  0.5498400000000 1.0
C      1  0.5532890000000  0.3956650000000  0.4622970000000 1.0
C      1  0.5380620000000  0.5884170000000  0.5208540000000 1.0
C      1  0.5164480000000  0.5122140000000  0.5721820000000 1.0
C      1  0.4362440000000  0.5088870000000  0.4908210000000 1.0
C      1  0.4709780000000  0.5428500000000  0.4073190000000 1.0
C      1  0.5389190000000  0.5381100000000  0.4109790000000 1.0
C      1  0.5106640000000  0.4765170000000  0.4530570000000 1.0
C      1  0.4931900000000  0.4306240000000  0.4280360000000 1.0
C      1  0.4773920000000  0.5385540000000  0.5397280000000 1.0
C      1  0.5041840000000  0.5588570000000  0.5071650000000 1.0
C      1  0.4698160000000  0.5914140000000  0.4618050000000 1.0
C      1  0.4734570000000  0.4511350000000  0.4299130000000 1.0
C      1  0.5219950000000  0.5576800000000  0.5874820000000 1.0
C      1  0.5890880000000  0.4157810000000  0.4873440000000 1.0
C      1  0.5075930000000  0.5318230000000  0.5905790000000 1.0
C      1  0.4684320000000  0.4895790000000  0.6067290000000 1.0
C      1  0.5759900000000  0.5064340000000  0.5771290000000 1.0
C      1  0.4088890000000  0.5948300000000  0.5707870000000 1.0
C      1  0.4187540000000  0.4287130000000  0.4728280000000 1.0
C      1  0.4205860000000  0.4483720000000  0.4223590000000 1.0
C      1  0.4712370000000  0.5943270000000  0.4916090000000 1.0
C      1  0.5039670000000  0.5057000000000  0.5068850000000 1.0
C      1  0.5502560000000  0.5678670000000  0.4505750000000 1.0
C      1  0.4608410000000  0.5226080000000  0.4861980000000 1.0
C      1  0.5145760000000  0.5990560000000  0.4753750000000 1.0
C      1  0.5212900000000  0.4765250000000  0.3830840000000 1.0
C      1  0.4961210000000  0.4024500000000  0.4990620000000 1.0
C      1  0.5504530000000  0.4514610000000  0.5440750000000 1.0
C      1  0.4145030000000  0.5341880000000  0.5309510000000 1.0
C      1  0.4592110000000  0.4907030000000  0.5355390000000 1.0
C      1  0.5746430000000  0.5226630000000  0.5537660000000 1.0
C      1  0.5333400000000  0.4673330000000  0.4054670000000 1.0
C      1  0.5635450000000  0.4880170000000  0.5923110000000 1.0
C      1  0.4773860000000  0.5669080000000  0.4996580000000 1.0
C      1  0.6037590000000  0.4614340000000  0.5032580000000 1.0
C      1  0.4859060000000  0.5072070000000  0.4860080000000 1.0
C      1  0.5400390000000  0.4221910000000  0.5776400000000 1.0
C      1  0.5267010000000  0.4763160000000  0.4299240000000 1.0
C      1  0.3735870000000  0.5290800000000  0.4763950000000 1.0
C      1  0.5792460000000  0.5212950000000  0.4874370000000 1.0
C      1  0.5077030000000  0.4511820000000  0.4980030000000 1.0
C      1  0.5777660000000  0.5037320000000  0.4218740000000 1.0
C      1  0.5048750000000  0.5329160000000  0.5254410000000 1.0
C      1  0.4591980000000  0.5181740000000  0.5376270000000 1.0
C      1  0.5374750000000  0.5134990000000  0.4663110000000 1.0
C      1  0.4750210000000  0.5620790000000  0.5820180000000 1.0
C      1  0.5175890000000  0.4848390000000  0.5789880000000 1.0
C      1  0.5775270000000  0.5594920000000  0.4493180000000 1.0
C      1  0.3795440000000  0.5534610000000  0.4664650000000 1.0
C      1  0.4055890000000  0.5729330000000  0.5017240000000 1.0
C      1  0.5506310000000  0.5384650000000  0.5514240000000 1.0
C      1  0.4778480000000  0.4935460000000  0.3979460000000 1.0
C      1  0.5386280000000  0.4170750000000  0.4511530000000 1.0
C      1  0.4467520000000  0.3945510000000  0.4912800000000 1.0
C      1  0.4344050000000  0.5073770000000  0.5769430000000 1.0
C      1  0.4019130000000  0.5690090000000  0.4739040000000 1.0
C      1  0.5323770000000  0.5854030000000  0.5487680000000 1.0
C      1  0.5136110000000  0.4225170000000  0.5091120000000 1.0
C      1  0.4158890000000  0.4412820000000  0.5432220000000 1.0
C      1  0.4973440000000  0.5918990000000  0.4525590000000 1.0
C      1  0.5398950000000  0.4724150000000  0.5924920000000 1.0
C      1  0.4243530000000  0.5706710000000  0.4570190000000 1.0
C      1  0.4291240000000  0.4161070000000  0.4968740000000 1.0
C      1  0.4277870000000  0.4791490000000  0.5755160000000 1.0
C      1  0.4364090000000  0.4616720000000  0.4039410000000 1.0
C      1  0.4595280000000  0.4403230000000  0.5627440000000 1.0
C      1  0.5981260000000  0.5101350000000  0.5056370000000 1.0
C      1  0.4588800000000  0.5131180000000  0.5931830000000 1.0
C      1  0.4710230000000  0.5631950000000  0.5528270000000 1.0
C      1  0.4829460000000  0.4512460000000  0.5762860000000 1.0
C      1  0.4702150000000  0.5157070000000  0.4144730000000 1.0
C      1  0.5840980000000  0.5502090000000  0.4234660000000 1.0
C      1  0.4825620000000  0.5884430000000  0.5447310000000 1.0
C      1  0.4854430000000  0.5647190000000  0.4131570000000 1.0
C      1  0.4206030000000  0.5238120000000  0.5574060000000 1.0
C      1  0.4785800000000  0.4541490000000  0.4952910000000 1.0
C      1  0.4402490000000  0.4764480000000  0.5208080000000 1.0
C      1  0.5531560000000  0.3944750000000  0.5110880000000 1.0
C      1  0.5401560000000  0.4438100000000  0.5945200000000 1.0
C      1  0.5503680000000  0.4786380000000  0.4948500000000 1.0
C      1  0.4834630000000  0.4796570000000  0.5412660000000 1.0
C      1  0.5418100000000  0.4416550000000  0.4652800000000 1.0
C      1  0.5676800000000  0.3970670000000  0.4868900000000 1.0
C      1  0.6003310000000  0.4597510000000  0.5311390000000 1.0
C      1  0.5246840000000  0.5361010000000  0.4711660000000 1.0
C      1  0.4619180000000  0.5501590000000  0.4815760000000 1.0
C      1  0.4579230000000  0.4633700000000  0.4789390000000 1.0
C      1  0.5065700000000  0.5936950000000  0.5598860000000 1.0
C      1  0.5058080000000  0.5752720000000  0.4298510000000 1.0
C      1  0.5046140000000  0.4990730000000  0.3869860000000 1.0
C      1  0.4396850000000  0.4803170000000  0.4926330000000 1.0
C      1  0.4647440000000  0.4681270000000  0.4068240000000 1.0
C      1  0.5570780000000  0.5036730000000  0.4831070000000 1.0
C      1  0.6086070000000  0.4884420000000  0.4626480000000 1.0
C      1  0.5418590000000  0.5625550000000  0.5651080000000 1.0
C      1  0.4323140000000  0.4534290000000  0.5644790000000 1.0
C      1  0.4779180000000  0.5351850000000  0.5924810000000 1.0
C      1  0.5377070000000  0.5604500000000  0.4749270000000 1.0
C      1  0.4569630000000  0.4228340000000  0.5394080000000 1.0
C      1  0.6091710000000  0.4869070000000  0.4915250000000 1.0
C      1  0.5270700000000  0.4662480000000  0.5386010000000 1.0
C      1  0.4134940000000  0.5187610000000  0.5060970000000 1.0
C      1  0.5611770000000  0.4545350000000  0.4818140000000 1.0
C      1  0.5670450000000  0.5290410000000  0.4140960000000 1.0
C      1  0.3880720000000  0.5149460000000  0.4941440000000 1.0
C      1  0.4553410000000  0.4522040000000  0.4531040000000 1.0
C      1  0.5256020000000  0.5241870000000  0.5470550000000 1.0
C      1  0.5930440000000  0.5173500000000  0.5325830000000 1.0
C      1  0.5433950000000  0.4241840000000  0.5493930000000 1.0
C      1  0.5197230000000  0.5228520000000  0.3955470000000 1.0
C      1  0.5867050000000  0.4438480000000  0.4885170000000 1.0
C      1  0.4095780000000  0.5624360000000  0.5276480000000 1.0
C      1  0.4520310000000  0.5679200000000  0.4601850000000 1.0
C      1  0.4772520000000  0.4645920000000  0.6011370000000 1.0
C      1  0.5168830000000  0.4545610000000  0.4696490000000 1.0
C      1  0.4916370000000  0.4968470000000  0.4600270000000 1.0
C      1  0.4312590000000  0.4252410000000  0.5243010000000 1.0
C      1  0.5226730000000  0.4763310000000  0.5106720000000 1.0
C      1  0.5857360000000  0.5440210000000  0.4717950000000 1.0
C      1  0.5950040000000  0.4923390000000  0.4395080000000 1.0
C      1  0.5322300000000  0.5626850000000  0.4276350000000 1.0
C      1  0.4755550000000  0.5093310000000  0.4409120000000 1.0
C      1  0.5008080000000  0.5781670000000  0.5850300000000 1.0
C      1  0.4288070000000  0.4413150000000  0.4488890000000 1.0
C      1  0.5773640000000  0.4584910000000  0.5448370000000 1.0
C      1  0.5034620000000  0.4673080000000  0.5589030000000 1.0
C      1  0.5156120000000  0.4167820000000  0.4343450000000 1.0
C      1  0.5256270000000  0.5782280000000  0.4953070000000 1.0
C      1  0.5354580000000  0.4116300000000  0.5251400000000 1.0
END
