TITL C-599890-3321-1486 -0.000231467389572663 125000 -599.054501321239 0 0 101 (C1) n - 1
REM
REM in /home/nfs/bkarasulu/CARBON/AIRSS/Generating-Clusters/TERSOFF/Only-C1/FIRE-HFTN
REM
REM
REM
REM
REM
REM ./C.cell (11c1c37f851c82e70ff6c80c92926a4b)
REM AIRSS Version 0.9.1 bugfix July 2018 build 013d7b7c2542+ Fri, 06 Jul 2018 19:26:36 +0100
REM compiler GCC version 9.2.1 20190827 (Red Hat 9.2.1-1)
REM options -cpp -mtune=generic -march=x86-64 -g -O0 -fpre-include=/usr/include/finclude/math-vector-fortran.h
REM seed -1748027693 -214439620 -855156990 -2064119197 1937082688 1516502350 -1020615668 -84188468 -1806525099 808120850 -81904069 1581586813 918255282 2048091394 1446532536 986368799 1906453385 601996742 423760710 -1868999446 -145156443 804209308 1700520089 1746292950 1002349028 -949056955 -2114018725 1579314501 804209097 1976746112 -2120905540 1072177241 1285304203
REM
CELL 1.54180   50.00000   50.00000   50.00000   90.00000   90.00000   90.00000
LATT -1
SFAC C  
C      1  0.5593180000000  0.4355860000000  0.4086650000000 1.0
C      1  0.5170300000000  0.5786120000000  0.4685060000000 1.0
C      1  0.5069690000000  0.5491520000000  0.6005060000000 1.0
C      1  0.4814250000000  0.5156990000000  0.5836680000000 1.0
C      1  0.4958300000000  0.5941080000000  0.4806130000000 1.0
C      1  0.5549850000000  0.4629290000000  0.4767860000000 1.0
C      1  0.5032150000000  0.4022660000000  0.5736950000000 1.0
C      1  0.5898550000000  0.4422910000000  0.5345100000000 1.0
C      1  0.5434150000000  0.4601350000000  0.5263200000000 1.0
C      1  0.4293520000000  0.4564080000000  0.4658010000000 1.0
C      1  0.5218450000000  0.4290030000000  0.4941050000000 1.0
C      1  0.4219470000000  0.5554120000000  0.4449590000000 1.0
C      1  0.4828280000000  0.5358000000000  0.5622420000000 1.0
C      1  0.3561230000000  0.5395980000000  0.5010730000000 1.0
C      1  0.5581050000000  0.3677410000000  0.5316170000000 1.0
C      1  0.5645240000000  0.4407310000000  0.4349350000000 1.0
C      1  0.5079510000000  0.6027400000000  0.5270200000000 1.0
C      1  0.5018990000000  0.5409730000000  0.5055310000000 1.0
C      1  0.5545640000000  0.5117350000000  0.4767320000000 1.0
C      1  0.4607340000000  0.5493530000000  0.3951780000000 1.0
C      1  0.4048700000000  0.5617990000000  0.4664990000000 1.0
C      1  0.4596280000000  0.6164280000000  0.4503530000000 1.0
C      1  0.4816640000000  0.6125560000000  0.4648450000000 1.0
C      1  0.4995260000000  0.5566710000000  0.5746140000000 1.0
C      1  0.4263990000000  0.5282610000000  0.4390890000000 1.0
C      1  0.5797940000000  0.4716960000000  0.4928860000000 1.0
C      1  0.5156060000000  0.4197480000000  0.5203060000000 1.0
C      1  0.5971510000000  0.4841870000000  0.5667910000000 1.0
C      1  0.5259510000000  0.4785860000000  0.5439250000000 1.0
C      1  0.5961140000000  0.5177000000000  0.5035520000000 1.0
C      1  0.5040740000000  0.4681900000000  0.5594330000000 1.0
C      1  0.5443730000000  0.4204240000000  0.5613960000000 1.0
C      1  0.5742720000000  0.4668260000000  0.5242550000000 1.0
C      1  0.4700250000000  0.4390430000000  0.5195320000000 1.0
C      1  0.4163700000000  0.5780470000000  0.5104750000000 1.0
C      1  0.4640520000000  0.5613150000000  0.4202910000000 1.0
C      1  0.5407330000000  0.5310550000000  0.5374170000000 1.0
C      1  0.4316570000000  0.4820710000000  0.5100150000000 1.0
C      1  0.4416490000000  0.5472160000000  0.5391600000000 1.0
C      1  0.5244450000000  0.5449980000000  0.5194680000000 1.0
C      1  0.3316240000000  0.5348420000000  0.4935640000000 1.0
C      1  0.4223720000000  0.5237220000000  0.5364760000000 1.0
C      1  0.4282450000000  0.4981510000000  0.5536700000000 1.0
C      1  0.4879190000000  0.4218550000000  0.5598400000000 1.0
C      1  0.4386670000000  0.4748900000000  0.5377270000000 1.0
C      1  0.5323300000000  0.5379140000000  0.4428770000000 1.0
C      1  0.4906520000000  0.4715350000000  0.4851910000000 1.0
C      1  0.5988590000000  0.4489510000000  0.4859220000000 1.0
C      1  0.4523150000000  0.5006790000000  0.4721390000000 1.0
C      1  0.4764560000000  0.4513270000000  0.4952400000000 1.0
C      1  0.3991390000000  0.5629550000000  0.4940880000000 1.0
C      1  0.5684000000000  0.5353800000000  0.5392430000000 1.0
C      1  0.5791430000000  0.4226690000000  0.4512580000000 1.0
C      1  0.5307210000000  0.3964490000000  0.5680410000000 1.0
C      1  0.4812440000000  0.4510100000000  0.5620840000000 1.0
C      1  0.4383030000000  0.4767140000000  0.4824940000000 1.0
C      1  0.4246860000000  0.4464360000000  0.4416110000000 1.0
C      1  0.5854030000000  0.4903120000000  0.5416180000000 1.0
C      1  0.4560780000000  0.5190830000000  0.4948810000000 1.0
C      1  0.6174280000000  0.5321250000000  0.4948470000000 1.0
C      1  0.4684070000000  0.5371340000000  0.5385340000000 1.0
C      1  0.5429640000000  0.5846870000000  0.4755250000000 1.0
C      1  0.4395420000000  0.5726020000000  0.5252600000000 1.0
C      1  0.5316040000000  0.5059370000000  0.5462030000000 1.0
C      1  0.5825870000000  0.4025970000000  0.4962840000000 1.0
C      1  0.5624400000000  0.3411550000000  0.5263100000000 1.0
C      1  0.6038120000000  0.4390010000000  0.5574990000000 1.0
C      1  0.5797320000000  0.5016100000000  0.4869140000000 1.0
C      1  0.4418030000000  0.6005360000000  0.4383300000000 1.0
C      1  0.5363450000000  0.4323760000000  0.5375130000000 1.0
C      1  0.5511440000000  0.4900640000000  0.4357430000000 1.0
C      1  0.5364920000000  0.4531300000000  0.4950670000000 1.0
C      1  0.4889690000000  0.4195570000000  0.5303670000000 1.0
C      1  0.4246340000000  0.4479860000000  0.4150760000000 1.0
C      1  0.4289320000000  0.4604030000000  0.3919760000000 1.0
C      1  0.4364350000000  0.4808700000000  0.3767830000000 1.0
C      1  0.5128190000000  0.5583050000000  0.4482840000000 1.0
C      1  0.5306830000000  0.5049240000000  0.4901490000000 1.0
C      1  0.5554780000000  0.4644720000000  0.4480500000000 1.0
C      1  0.4888560000000  0.5592190000000  0.4334580000000 1.0
C      1  0.5075830000000  0.4919230000000  0.4870480000000 1.0
C      1  0.4959330000000  0.5241870000000  0.6060200000000 1.0
C      1  0.5703820000000  0.3870890000000  0.5146310000000 1.0
C      1  0.3824060000000  0.5447020000000  0.5085590000000 1.0
C      1  0.5415410000000  0.3745430000000  0.5538130000000 1.0
C      1  0.6070010000000  0.4600620000000  0.5743350000000 1.0
C      1  0.5488800000000  0.5154510000000  0.4487840000000 1.0
C      1  0.4597850000000  0.4560370000000  0.5417520000000 1.0
C      1  0.4411550000000  0.5730200000000  0.4333450000000 1.0
C      1  0.4323380000000  0.5119940000000  0.5102510000000 1.0
C      1  0.4888990000000  0.5937660000000  0.5085530000000 1.0
C      1  0.5895700000000  0.4228930000000  0.4776480000000 1.0
C      1  0.3944100000000  0.5321280000000  0.5311710000000 1.0
C      1  0.4541760000000  0.5296490000000  0.3786200000000 1.0
C      1  0.5475650000000  0.6130780000000  0.5599170000000 1.0
C      1  0.5873390000000  0.5165330000000  0.5305080000000 1.0
C      1  0.5277000000000  0.6089740000000  0.5435440000000 1.0
C      1  0.4764190000000  0.5312470000000  0.5112540000000 1.0
C      1  0.4454760000000  0.5054090000000  0.3721000000000 1.0
C      1  0.4632310000000  0.5865830000000  0.5181170000000 1.0
C      1  0.4442830000000  0.5100840000000  0.4471280000000 1.0
END
