TITL C-599890-3321-276 757.449578010863 125000 -1141.06149353133 0 0 186 (C1) n - 1
REM
REM in /home/nfs/bkarasulu/CARBON/AIRSS/Generating-Clusters/TERSOFF/Only-C1/FIRE-HFTN
REM
REM
REM
REM
REM
REM ./C.cell (11c1c37f851c82e70ff6c80c92926a4b)
REM AIRSS Version 0.9.1 bugfix July 2018 build 013d7b7c2542+ Fri, 06 Jul 2018 19:26:36 +0100
REM compiler GCC version 9.2.1 20190827 (Red Hat 9.2.1-1)
REM options -cpp -mtune=generic -march=x86-64 -g -O0 -fpre-include=/usr/include/finclude/math-vector-fortran.h
REM seed -1714556847 1867488670 -911334431 251133872 282398512 -1411445451 925546948 939793597 -459757294 637000753 -899602725 119184662 178168959 -1583165346 -373132692 1277116189 -1127225162 1753816592 1474526302 1138614121 -28893594 -2019334396 42181292 -772774174 367136505 1926480938 38456184 153663748 -927211505 -1038919934 269424490 -1153665331 80446816
REM
CELL 1.54180   50.00000   50.00000   50.00000   90.00000   90.00000   90.00000
LATT -1
SFAC C  
C      1  0.4897010000000  0.4302700000000  0.4940610000000 1.0
C      1  0.3896100000000  0.4499270000000  0.5328330000000 1.0
C      1  0.4533650000000  0.4705810000000  0.3928370000000 1.0
C      1  0.5018190000000  0.6299440000000  0.4818250000000 1.0
C      1  0.4752530000000  0.5349020000000  0.4477570000000 1.0
C      1  0.4766620000000  0.3876300000000  0.4713310000000 1.0
C      1  0.5016830000000  0.6095280000000  0.5279100000000 1.0
C      1  0.5015350000000  0.5336460000000  0.5057010000000 1.0
C      1  0.4644780000000  0.5215120000000  0.5767240000000 1.0
C      1  0.4521770000000  0.6018550000000  0.5050780000000 1.0
C      1  0.4559970000000  0.5380420000000  0.5551360000000 1.0
C      1  0.5924630000000  0.5411230000000  0.4591340000000 1.0
C      1  0.5370740000000  0.5878530000000  0.4053220000000 1.0
C      1  0.5034400000000  0.5174170000000  0.5495430000000 1.0
C      1  0.4434280000000  0.5855250000000  0.4558460000000 1.0
C      1  0.5088660000000  0.6299570000000  0.5086010000000 1.0
C      1  0.5789200000000  0.4261120000000  0.4559730000000 1.0
C      1  0.5384240000000  0.5983910000000  0.4331740000000 1.0
C      1  0.5002440000000  0.4690370000000  0.4188630000000 1.0
C      1  0.5294100000000  0.4121080000000  0.4566260000000 1.0
C      1  0.4098200000000  0.5062380000000  0.5810700000000 1.0
C      1  0.3700680000000  0.5637050000000  0.4894290000000 1.0
C      1  0.4885740000000  0.6130710000000  0.4614620000000 1.0
C      1  0.5546670000000  0.5551800000000  0.4829580000000 1.0
C      1  0.5312230000000  0.4508900000000  0.4831080000000 1.0
C      1  0.4659350000000  0.4967430000000  0.3852700000000 1.0
C      1  0.5721230000000  0.3954360000000  0.5022880000000 1.0
C      1  0.4995900000000  0.4655670000000  0.5988270000000 1.0
C      1  0.4324500000000  0.4346120000000  0.4222920000000 1.0
C      1  0.4029750000000  0.5308800000000  0.5687810000000 1.0
C      1  0.5073060000000  0.6001360000000  0.4398250000000 1.0
C      1  0.5536870000000  0.4766940000000  0.4332360000000 1.0
C      1  0.5777740000000  0.4667700000000  0.5326180000000 1.0
C      1  0.4891740000000  0.5096160000000  0.5730960000000 1.0
C      1  0.4379420000000  0.5671830000000  0.4073220000000 1.0
C      1  0.5431650000000  0.4291900000000  0.5285230000000 1.0
C      1  0.3618780000000  0.5213720000000  0.4622710000000 1.0
C      1  0.5235190000000  0.3845420000000  0.5016560000000 1.0
C      1  0.5454160000000  0.5101390000000  0.5036090000000 1.0
C      1  0.5343830000000  0.4919440000000  0.4476180000000 1.0
C      1  0.5939690000000  0.5389510000000  0.5076960000000 1.0
C      1  0.5081210000000  0.4538450000000  0.4433410000000 1.0
C      1  0.5614410000000  0.4460790000000  0.5498380000000 1.0
C      1  0.5151580000000  0.5848790000000  0.5387980000000 1.0
C      1  0.5403720000000  0.5941770000000  0.4952910000000 1.0
C      1  0.5493020000000  0.5045850000000  0.3847410000000 1.0
C      1  0.4981110000000  0.5750490000000  0.4247610000000 1.0
C      1  0.5426910000000  0.5699860000000  0.5396230000000 1.0
C      1  0.5200140000000  0.4726360000000  0.4653410000000 1.0
C      1  0.5761740000000  0.4803970000000  0.4802190000000 1.0
C      1  0.4698100000000  0.4449960000000  0.3915920000000 1.0
C      1  0.4684880000000  0.5072980000000  0.4438300000000 1.0
C      1  0.4868420000000  0.5698280000000  0.6241280000000 1.0
C      1  0.4707580000000  0.4510270000000  0.5518050000000 1.0
C      1  0.5158650000000  0.4284570000000  0.5432560000000 1.0
C      1  0.4300530000000  0.4633830000000  0.4127200000000 1.0
C      1  0.4156540000000  0.5510090000000  0.4826760000000 1.0
C      1  0.4037960000000  0.5459380000000  0.5424820000000 1.0
C      1  0.3881640000000  0.4768620000000  0.5285860000000 1.0
C      1  0.4621020000000  0.4346730000000  0.5954600000000 1.0
C      1  0.5207090000000  0.5154940000000  0.3846590000000 1.0
C      1  0.5863760000000  0.5123660000000  0.5584240000000 1.0
C      1  0.5242580000000  0.4482990000000  0.5923110000000 1.0
C      1  0.5557650000000  0.4826810000000  0.5826470000000 1.0
C      1  0.5240390000000  0.4962820000000  0.5452430000000 1.0
C      1  0.5616400000000  0.5546440000000  0.5125740000000 1.0
C      1  0.5778040000000  0.4838640000000  0.4451730000000 1.0
C      1  0.5747180000000  0.5045560000000  0.5842030000000 1.0
C      1  0.4091390000000  0.4953070000000  0.5328330000000 1.0
C      1  0.5165130000000  0.5791880000000  0.4844380000000 1.0
C      1  0.4596510000000  0.6042270000000  0.4701260000000 1.0
C      1  0.4531070000000  0.4244020000000  0.4041110000000 1.0
C      1  0.4241160000000  0.4519150000000  0.4907740000000 1.0
C      1  0.5020180000000  0.4039640000000  0.5479080000000 1.0
C      1  0.6170440000000  0.4699900000000  0.4575700000000 1.0
C      1  0.4524520000000  0.4089450000000  0.5496830000000 1.0
C      1  0.4493000000000  0.5198340000000  0.3866560000000 1.0
C      1  0.5658090000000  0.5145720000000  0.4079490000000 1.0
C      1  0.6378430000000  0.3308980000000  0.5565290000000 1.0
C      1  0.5158750000000  0.4272110000000  0.4791350000000 1.0
C      1  0.5356450000000  0.5405450000000  0.4665210000000 1.0
C      1  0.4386580000000  0.5839890000000  0.4281930000000 1.0
C      1  0.5809400000000  0.4089370000000  0.4790290000000 1.0
C      1  0.4977520000000  0.4482780000000  0.3983540000000 1.0
C      1  0.5680150000000  0.5061810000000  0.4872320000000 1.0
C      1  0.3579080000000  0.5445330000000  0.4750340000000 1.0
C      1  0.4917190000000  0.5799520000000  0.4973240000000 1.0
C      1  0.4508620000000  0.4638980000000  0.5358720000000 1.0
C      1  0.4412490000000  0.5442200000000  0.3940410000000 1.0
C      1  0.5487420000000  0.5705660000000  0.5690510000000 1.0
C      1  0.4519730000000  0.5062500000000  0.6193250000000 1.0
C      1  0.5408710000000  0.5934750000000  0.5841170000000 1.0
C      1  0.5449420000000  0.5307130000000  0.4210350000000 1.0
C      1  0.4533950000000  0.4963850000000  0.4670120000000 1.0
C      1  0.5448520000000  0.4325660000000  0.4150170000000 1.0
C      1  0.4473650000000  0.4551240000000  0.5093790000000 1.0
C      1  0.4319370000000  0.4065060000000  0.4989240000000 1.0
C      1  0.4955520000000  0.5540630000000  0.4434630000000 1.0
C      1  0.6296270000000  0.5118900000000  0.4873440000000 1.0
C      1  0.5736400000000  0.4622840000000  0.5032300000000 1.0
C      1  0.4780330000000  0.5974750000000  0.5146870000000 1.0
C      1  0.4976780000000  0.5942870000000  0.6117940000000 1.0
C      1  0.5934930000000  0.5408330000000  0.5535440000000 1.0
C      1  0.4248410000000  0.4250890000000  0.4491870000000 1.0
C      1  0.5101460000000  0.3977650000000  0.4413520000000 1.0
C      1  0.4730280000000  0.4571350000000  0.4943550000000 1.0
C      1  0.4484580000000  0.5075520000000  0.6468960000000 1.0
C      1  0.4934950000000  0.4761640000000  0.5058810000000 1.0
C      1  0.5743270000000  0.4947880000000  0.5391940000000 1.0
C      1  0.5548190000000  0.4587050000000  0.4123240000000 1.0
C      1  0.5637690000000  0.5981520000000  0.5105120000000 1.0
C      1  0.3967070000000  0.5665390000000  0.4976620000000 1.0
C      1  0.4075310000000  0.5712900000000  0.5247200000000 1.0
C      1  0.5243840000000  0.5398560000000  0.4016830000000 1.0
C      1  0.5167280000000  0.5673510000000  0.4031020000000 1.0
C      1  0.4647560000000  0.4576300000000  0.4454080000000 1.0
C      1  0.4989150000000  0.4517160000000  0.5456060000000 1.0
C      1  0.4838190000000  0.4362230000000  0.4463120000000 1.0
C      1  0.4664680000000  0.5565560000000  0.6076570000000 1.0
C      1  0.5832170000000  0.5887130000000  0.5286250000000 1.0
C      1  0.4765430000000  0.4012260000000  0.5357450000000 1.0
C      1  0.4580970000000  0.5184430000000  0.5085760000000 1.0
C      1  0.6051770000000  0.3614070000000  0.5288470000000 1.0
C      1  0.4649800000000  0.5751290000000  0.5836610000000 1.0
C      1  0.4167020000000  0.5245250000000  0.4936120000000 1.0
C      1  0.4454860000000  0.5091700000000  0.6727350000000 1.0
C      1  0.4103540000000  0.4365560000000  0.5479100000000 1.0
C      1  0.4603810000000  0.4294570000000  0.5680990000000 1.0
C      1  0.5457390000000  0.4004500000000  0.5130450000000 1.0
C      1  0.5866320000000  0.5262880000000  0.4837450000000 1.0
C      1  0.4578610000000  0.3957980000000  0.4921030000000 1.0
C      1  0.5071100000000  0.4902180000000  0.4857490000000 1.0
C      1  0.4143920000000  0.5234520000000  0.5242970000000 1.0
C      1  0.5188660000000  0.5138030000000  0.4952290000000 1.0
C      1  0.4281390000000  0.4152020000000  0.5337660000000 1.0
C      1  0.4296300000000  0.5909910000000  0.5201220000000 1.0
C      1  0.4123830000000  0.4792320000000  0.4281920000000 1.0
C      1  0.4707220000000  0.4606400000000  0.6038260000000 1.0
C      1  0.4330160000000  0.4836680000000  0.5428940000000 1.0
C      1  0.4393270000000  0.5608430000000  0.4700180000000 1.0
C      1  0.4762880000000  0.4821820000000  0.4296340000000 1.0
C      1  0.5552920000000  0.5490540000000  0.5859230000000 1.0
C      1  0.5052320000000  0.4918220000000  0.5886910000000 1.0
C      1  0.5066820000000  0.4746470000000  0.5314170000000 1.0
C      1  0.5241120000000  0.5995250000000  0.6042850000000 1.0
C      1  0.4611640000000  0.4694050000000  0.4700480000000 1.0
C      1  0.6011500000000  0.4466230000000  0.4538940000000 1.0
C      1  0.6216020000000  0.3459320000000  0.5427510000000 1.0
C      1  0.5618000000000  0.5874200000000  0.4471570000000 1.0
C      1  0.5020120000000  0.3774890000000  0.4854450000000 1.0
C      1  0.6058100000000  0.5198210000000  0.4436850000000 1.0
C      1  0.6410160000000  0.5404060000000  0.5261560000000 1.0
C      1  0.5144910000000  0.5584210000000  0.4645150000000 1.0
C      1  0.5526250000000  0.4217580000000  0.4414510000000 1.0
C      1  0.6221800000000  0.5306970000000  0.5089100000000 1.0
C      1  0.5484430000000  0.5033480000000  0.5304930000000 1.0
C      1  0.4236570000000  0.4793760000000  0.5873310000000 1.0
C      1  0.4452970000000  0.5268850000000  0.5319060000000 1.0
C      1  0.4776440000000  0.5996560000000  0.5914380000000 1.0
C      1  0.4163790000000  0.4533780000000  0.5729220000000 1.0
C      1  0.4756690000000  0.5355400000000  0.4953450000000 1.0
C      1  0.4231940000000  0.4255250000000  0.4789230000000 1.0
C      1  0.4765310000000  0.4094850000000  0.5089930000000 1.0
C      1  0.4946670000000  0.5030380000000  0.3811630000000 1.0
C      1  0.4082780000000  0.4707560000000  0.4766520000000 1.0
C      1  0.5659490000000  0.5275930000000  0.5980370000000 1.0
C      1  0.5927050000000  0.5673780000000  0.5443670000000 1.0
C      1  0.4835290000000  0.4062710000000  0.4489290000000 1.0
C      1  0.4694460000000  0.5634880000000  0.5580440000000 1.0
C      1  0.4632340000000  0.5453990000000  0.4719030000000 1.0
C      1  0.4590280000000  0.5291620000000  0.6035450000000 1.0
C      1  0.5490440000000  0.4477700000000  0.5035740000000 1.0
C      1  0.4401350000000  0.5087140000000  0.4879950000000 1.0
C      1  0.4486330000000  0.4810090000000  0.6046670000000 1.0
C      1  0.3989020000000  0.4833900000000  0.4528930000000 1.0
C      1  0.5889770000000  0.3774120000000  0.5153210000000 1.0
C      1  0.5870110000000  0.5056010000000  0.4270820000000 1.0
C      1  0.4950910000000  0.5642460000000  0.5447450000000 1.0
C      1  0.5303140000000  0.4921720000000  0.5745190000000 1.0
C      1  0.3768550000000  0.5007420000000  0.4544350000000 1.0
C      1  0.5024250000000  0.5394260000000  0.5332230000000 1.0
C      1  0.5372710000000  0.5206700000000  0.4466230000000 1.0
C      1  0.5739270000000  0.5650920000000  0.4615210000000 1.0
C      1  0.5201850000000  0.4297800000000  0.3996330000000 1.0
C      1  0.5515610000000  0.4536810000000  0.5774430000000 1.0
C      1  0.6214880000000  0.5001790000000  0.4615380000000 1.0
END
