TITL C-599891-72-661 5344.30415293135 125000 -772.610804420614 0 0 128 (C1) n - 1
REM
REM in /home/nfs/bkarasulu/CARBON/AIRSS/Generating-Clusters/TERSOFF/Only-C1/FIRE-HFTN
REM
REM
REM
REM
REM
REM ./C.cell (11c1c37f851c82e70ff6c80c92926a4b)
REM AIRSS Version 0.9.1 bugfix July 2018 build 013d7b7c2542+ Fri, 06 Jul 2018 19:26:36 +0100
REM compiler GCC version 9.2.1 20190827 (Red Hat 9.2.1-1)
REM options -cpp -mtune=generic -march=x86-64 -g -O0 -fpre-include=/usr/include/finclude/math-vector-fortran.h
REM seed -99994405 -2044775971 -1440865503 -1206507713 427222162 -408676118 2093527658 1848837019 474592328 -476481941 -1464914815 -1361695810 1360550923 69088648 1758013463 1653837160 1994152887 181464375 -28671299 810339411 1357254236 1923069493 -1579614316 1429079086 -1659635790 270604537 -861869845 -1413409838 147606334 -2003073797 -373685047 -1303589868 142821988
REM
CELL 1.54180   50.00000   50.00000   50.00000   90.00000   90.00000   90.00000
LATT -1
SFAC C  
C      1  0.5146140000000  0.4002240000000  0.5008420000000 1.0
C      1  0.5265410000000  0.4701480000000  0.5736160000000 1.0
C      1  0.5459280000000  0.4987030000000  0.5253100000000 1.0
C      1  0.4951060000000  0.4888570000000  0.6068390000000 1.0
C      1  0.5429840000000  0.5036710000000  0.4962140000000 1.0
C      1  0.6314090000000  0.4232550000000  0.4320160000000 1.0
C      1  0.6123520000000  0.4815560000000  0.4983120000000 1.0
C      1  0.5115520000000  0.5182040000000  0.5624170000000 1.0
C      1  0.4899290000000  0.4419570000000  0.5124180000000 1.0
C      1  0.5430640000000  0.5894570000000  0.5113390000000 1.0
C      1  0.5607990000000  0.5611410000000  0.5603580000000 1.0
C      1  0.4852380000000  0.4440680000000  0.5942260000000 1.0
C      1  0.3969120000000  0.5501110000000  0.4697610000000 1.0
C      1  0.5827000000000  0.5175570000000  0.5574160000000 1.0
C      1  0.5271880000000  0.4908810000000  0.4050980000000 1.0
C      1  0.5553900000000  0.5751750000000  0.4381680000000 1.0
C      1  0.5594810000000  0.3752230000000  0.4897820000000 1.0
C      1  0.5031120000000  0.5838030000000  0.5419470000000 1.0
C      1  0.4651510000000  0.4922340000000  0.4353100000000 1.0
C      1  0.5198070000000  0.4484420000000  0.4745140000000 1.0
C      1  0.4807430000000  0.4009930000000  0.5348860000000 1.0
C      1  0.4618810000000  0.5432540000000  0.4388920000000 1.0
C      1  0.6550570000000  0.4124700000000  0.4340440000000 1.0
C      1  0.5562590000000  0.4835560000000  0.4514050000000 1.0
C      1  0.4739060000000  0.5029990000000  0.6153550000000 1.0
C      1  0.4788470000000  0.4244670000000  0.5752570000000 1.0
C      1  0.5027280000000  0.5231770000000  0.4730690000000 1.0
C      1  0.5223060000000  0.5914380000000  0.4656990000000 1.0
C      1  0.5127820000000  0.3853380000000  0.4367630000000 1.0
C      1  0.4641150000000  0.5759410000000  0.5821860000000 1.0
C      1  0.4986110000000  0.5213320000000  0.4218590000000 1.0
C      1  0.5456010000000  0.4680630000000  0.5256680000000 1.0
C      1  0.5207980000000  0.5390990000000  0.5226990000000 1.0
C      1  0.4486840000000  0.5175930000000  0.4335360000000 1.0
C      1  0.4352520000000  0.4921040000000  0.5533090000000 1.0
C      1  0.4920150000000  0.5496850000000  0.4731590000000 1.0
C      1  0.4862790000000  0.5467280000000  0.4233530000000 1.0
C      1  0.4876070000000  0.5327500000000  0.5695170000000 1.0
C      1  0.5079260000000  0.5642970000000  0.4302190000000 1.0
C      1  0.5424630000000  0.4578910000000  0.4940740000000 1.0
C      1  0.4469700000000  0.5023290000000  0.6149030000000 1.0
C      1  0.5047230000000  0.5078110000000  0.3978280000000 1.0
C      1  0.4531160000000  0.4084970000000  0.5404170000000 1.0
C      1  0.4925320000000  0.4610520000000  0.4688740000000 1.0
C      1  0.5373040000000  0.5404510000000  0.5963050000000 1.0
C      1  0.5598950000000  0.5792320000000  0.4901470000000 1.0
C      1  0.4883220000000  0.5599940000000  0.5796750000000 1.0
C      1  0.4696000000000  0.5474240000000  0.5267730000000 1.0
C      1  0.4754810000000  0.5760330000000  0.5350340000000 1.0
C      1  0.5053920000000  0.5707280000000  0.4581350000000 1.0
C      1  0.5254190000000  0.4613100000000  0.5453610000000 1.0
C      1  0.4205840000000  0.5225150000000  0.4322280000000 1.0
C      1  0.3973640000000  0.5586580000000  0.4968840000000 1.0
C      1  0.5331440000000  0.4471450000000  0.4298180000000 1.0
C      1  0.5781310000000  0.5434030000000  0.5463520000000 1.0
C      1  0.5284400000000  0.4936720000000  0.4500450000000 1.0
C      1  0.5829140000000  0.5251370000000  0.4494800000000 1.0
C      1  0.6367160000000  0.4838290000000  0.5072950000000 1.0
C      1  0.4385120000000  0.5851710000000  0.5103390000000 1.0
C      1  0.5453590000000  0.5379890000000  0.4075210000000 1.0
C      1  0.5129880000000  0.5054540000000  0.4941160000000 1.0
C      1  0.5025210000000  0.4626120000000  0.5283180000000 1.0
C      1  0.4875650000000  0.4724440000000  0.4407550000000 1.0
C      1  0.4580570000000  0.5038020000000  0.5426080000000 1.0
C      1  0.4576410000000  0.4749060000000  0.5024670000000 1.0
C      1  0.4955580000000  0.5422150000000  0.5140090000000 1.0
C      1  0.4422650000000  0.5406670000000  0.5112980000000 1.0
C      1  0.5832760000000  0.4452970000000  0.4314020000000 1.0
C      1  0.4752280000000  0.4140670000000  0.4477520000000 1.0
C      1  0.4561590000000  0.5833680000000  0.4864010000000 1.0
C      1  0.4514790000000  0.4264120000000  0.5630240000000 1.0
C      1  0.4941850000000  0.4139630000000  0.5138480000000 1.0
C      1  0.5846900000000  0.5493150000000  0.5196060000000 1.0
C      1  0.4432100000000  0.5267700000000  0.4870730000000 1.0
C      1  0.4221040000000  0.5616040000000  0.5105520000000 1.0
C      1  0.4352080000000  0.4430520000000  0.4420360000000 1.0
C      1  0.4703060000000  0.6241130000000  0.4646670000000 1.0
C      1  0.5850650000000  0.5413600000000  0.4708630000000 1.0
C      1  0.4986190000000  0.4896600000000  0.5154860000000 1.0
C      1  0.5367670000000  0.3867040000000  0.4954210000000 1.0
C      1  0.4347410000000  0.4100790000000  0.4759350000000 1.0
C      1  0.5589460000000  0.4575660000000  0.4366270000000 1.0
C      1  0.4614730000000  0.4484590000000  0.6097610000000 1.0
C      1  0.3738630000000  0.5639280000000  0.5098930000000 1.0
C      1  0.5373290000000  0.5613340000000  0.5762810000000 1.0
C      1  0.4672980000000  0.5288930000000  0.5503370000000 1.0
C      1  0.5296810000000  0.5181110000000  0.5399460000000 1.0
C      1  0.4508090000000  0.5907350000000  0.5368200000000 1.0
C      1  0.4212350000000  0.4655640000000  0.4461660000000 1.0
C      1  0.5689670000000  0.5053120000000  0.4347450000000 1.0
C      1  0.5873820000000  0.4805030000000  0.4895630000000 1.0
C      1  0.5148980000000  0.4670780000000  0.4193210000000 1.0
C      1  0.4374100000000  0.4578140000000  0.5970900000000 1.0
C      1  0.4974940000000  0.6069380000000  0.5008900000000 1.0
C      1  0.4033870000000  0.5373880000000  0.4469800000000 1.0
C      1  0.5163510000000  0.5957240000000  0.5195260000000 1.0
C      1  0.4295960000000  0.4833060000000  0.6064990000000 1.0
C      1  0.5778550000000  0.5571300000000  0.4933870000000 1.0
C      1  0.5218280000000  0.3624040000000  0.4283140000000 1.0
C      1  0.4622270000000  0.5514030000000  0.4688230000000 1.0
C      1  0.4095160000000  0.4363580000000  0.5121850000000 1.0
C      1  0.4707570000000  0.4931450000000  0.5196450000000 1.0
C      1  0.5091970000000  0.5130630000000  0.4474550000000 1.0
C      1  0.4169120000000  0.4616820000000  0.5219160000000 1.0
C      1  0.5468210000000  0.4905710000000  0.5824020000000 1.0
C      1  0.5715130000000  0.4956600000000  0.5688590000000 1.0
C      1  0.4928470000000  0.5095880000000  0.3735790000000 1.0
C      1  0.5033150000000  0.4101560000000  0.4455120000000 1.0
C      1  0.4181540000000  0.4169990000000  0.4958030000000 1.0
C      1  0.4171480000000  0.4880870000000  0.4603160000000 1.0
C      1  0.5037180000000  0.4661180000000  0.5917660000000 1.0
C      1  0.5361470000000  0.5609260000000  0.4217770000000 1.0
C      1  0.4270940000000  0.5015400000000  0.4835900000000 1.0
C      1  0.5507110000000  0.5097840000000  0.4118380000000 1.0
C      1  0.4247720000000  0.4661220000000  0.5495250000000 1.0
C      1  0.5590600000000  0.4817000000000  0.4811490000000 1.0
C      1  0.4338200000000  0.4477440000000  0.5698800000000 1.0
C      1  0.4751140000000  0.4556860000000  0.4912520000000 1.0
C      1  0.4485650000000  0.4211210000000  0.4539200000000 1.0
C      1  0.5120140000000  0.5730280000000  0.5677020000000 1.0
C      1  0.5499950000000  0.5857220000000  0.4641520000000 1.0
C      1  0.6073010000000  0.4341790000000  0.4306040000000 1.0
C      1  0.4468000000000  0.5899720000000  0.5655090000000 1.0
C      1  0.4934140000000  0.4048370000000  0.5607650000000 1.0
C      1  0.4298970000000  0.4793090000000  0.5028440000000 1.0
C      1  0.5221640000000  0.4310630000000  0.4508360000000 1.0
C      1  0.5397450000000  0.5134010000000  0.5987890000000 1.0
C      1  0.4747890000000  0.6047630000000  0.4835610000000 1.0
END
