TITL C-599891-72-431 101770.228970345 125000 -825.262887818282 0 0 138 (C1) n - 1
REM
REM in /home/nfs/bkarasulu/CARBON/AIRSS/Generating-Clusters/TERSOFF/Only-C1/FIRE-HFTN
REM
REM
REM
REM
REM
REM ./C.cell (11c1c37f851c82e70ff6c80c92926a4b)
REM AIRSS Version 0.9.1 bugfix July 2018 build 013d7b7c2542+ Fri, 06 Jul 2018 19:26:36 +0100
REM compiler GCC version 9.2.1 20190827 (Red Hat 9.2.1-1)
REM options -cpp -mtune=generic -march=x86-64 -g -O0 -fpre-include=/usr/include/finclude/math-vector-fortran.h
REM seed 776538115 -428827605 -46588146 467206522 -1531612678 -534385085 1093740231 -624344128 -1272108703 -1133472660 881904520 1074784845 766918924 1083824578 -66959970 -1706093870 272699587 841484485 1268377227 -1731488023 2122391038 78340679 -955454459 412709477 1674012959 -12905571 2026991392 -895795293 1337441507 -1485168035 112034878 -296883718 896987606
REM
CELL 1.54180   50.00000   50.00000   50.00000   90.00000   90.00000   90.00000
LATT -1
SFAC C  
C      1  0.4397620000000  0.4878810000000  0.4742990000000 1.0
C      1  0.4353980000000  0.5910530000000  0.4915020000000 1.0
C      1  0.6016000000000  0.4493940000000  0.5835800000000 1.0
C      1  0.4751810000000  0.5988980000000  0.5558930000000 1.0
C      1  0.4798620000000  0.5125290000000  0.5323240000000 1.0
C      1  0.4896860000000  0.4743650000000  0.4986410000000 1.0
C      1  0.5268580000000  0.4546390000000  0.5178760000000 1.0
C      1  0.4912110000000  0.5349210000000  0.4009030000000 1.0
C      1  0.5175940000000  0.5946400000000  0.4424570000000 1.0
C      1  0.5480790000000  0.4408480000000  0.5002820000000 1.0
C      1  0.4925720000000  0.5530790000000  0.4877820000000 1.0
C      1  0.4294220000000  0.4669120000000  0.5949270000000 1.0
C      1  0.4198410000000  0.4936880000000  0.5882550000000 1.0
C      1  0.4860430000000  0.3918690000000  0.5210270000000 1.0
C      1  0.5435510000000  0.4687790000000  0.4683950000000 1.0
C      1  0.4063810000000  0.3991050000000  0.4768590000000 1.0
C      1  0.5403300000000  0.4301950000000  0.5796020000000 1.0
C      1  0.5161720000000  0.4627400000000  0.4584770000000 1.0
C      1  0.4514920000000  0.4018330000000  0.5594040000000 1.0
C      1  0.4886070000000  0.6108870000000  0.5102720000000 1.0
C      1  0.5386820000000  0.5506610000000  0.4621050000000 1.0
C      1  0.5063980000000  0.5729870000000  0.4264120000000 1.0
C      1  0.4952410000000  0.5039800000000  0.4425900000000 1.0
C      1  0.3979980000000  0.4266380000000  0.4728000000000 1.0
C      1  0.4741430000000  0.4528950000000  0.4804320000000 1.0
C      1  0.4588280000000  0.5327200000000  0.5387240000000 1.0
C      1  0.5046040000000  0.5731080000000  0.5298340000000 1.0
C      1  0.5352660000000  0.3972540000000  0.5218380000000 1.0
C      1  0.4356090000000  0.4254400000000  0.5014220000000 1.0
C      1  0.4408890000000  0.5295950000000  0.4397040000000 1.0
C      1  0.4851810000000  0.4456840000000  0.3981310000000 1.0
C      1  0.5193160000000  0.4158670000000  0.4246600000000 1.0
C      1  0.4705170000000  0.4683730000000  0.3985390000000 1.0
C      1  0.4965720000000  0.5926510000000  0.5717390000000 1.0
C      1  0.3967880000000  0.4871250000000  0.5203790000000 1.0
C      1  0.5738670000000  0.5832970000000  0.3747770000000 1.0
C      1  0.4570630000000  0.5029970000000  0.4895140000000 1.0
C      1  0.4422790000000  0.4637170000000  0.4356340000000 1.0
C      1  0.4405430000000  0.5139960000000  0.5872500000000 1.0
C      1  0.5401620000000  0.4247290000000  0.4746780000000 1.0
C      1  0.5572860000000  0.4107950000000  0.5344920000000 1.0
C      1  0.5985770000000  0.4701960000000  0.5656870000000 1.0
C      1  0.5128700000000  0.5990150000000  0.5206320000000 1.0
C      1  0.5091000000000  0.4083380000000  0.5109370000000 1.0
C      1  0.5531690000000  0.4968060000000  0.4139410000000 1.0
C      1  0.5119010000000  0.4181040000000  0.4810260000000 1.0
C      1  0.5217790000000  0.5833870000000  0.5761820000000 1.0
C      1  0.4466090000000  0.4668680000000  0.6176530000000 1.0
C      1  0.4608640000000  0.4892460000000  0.6240900000000 1.0
C      1  0.4665930000000  0.4675330000000  0.5396670000000 1.0
C      1  0.3991510000000  0.4378740000000  0.4471470000000 1.0
C      1  0.5404060000000  0.4268460000000  0.4402060000000 1.0
C      1  0.3990260000000  0.5153870000000  0.4733920000000 1.0
C      1  0.5743410000000  0.5129100000000  0.4555010000000 1.0
C      1  0.5748460000000  0.5363560000000  0.4966110000000 1.0
C      1  0.6136370000000  0.4743960000000  0.4861210000000 1.0
C      1  0.4645790000000  0.5258070000000  0.3952360000000 1.0
C      1  0.5247010000000  0.4832820000000  0.5245100000000 1.0
C      1  0.5384360000000  0.5476370000000  0.3940630000000 1.0
C      1  0.4584530000000  0.5121540000000  0.6094460000000 1.0
C      1  0.5489040000000  0.5270780000000  0.5128500000000 1.0
C      1  0.4008450000000  0.4627620000000  0.5099970000000 1.0
C      1  0.5562720000000  0.5655620000000  0.3821990000000 1.0
C      1  0.4899770000000  0.5536400000000  0.4415520000000 1.0
C      1  0.4769070000000  0.4425540000000  0.5259590000000 1.0
C      1  0.5343460000000  0.5529600000000  0.5086110000000 1.0
C      1  0.5545770000000  0.4159610000000  0.5620030000000 1.0
C      1  0.4448080000000  0.5493570000000  0.4659630000000 1.0
C      1  0.4872450000000  0.5068340000000  0.4696890000000 1.0
C      1  0.5106430000000  0.4803400000000  0.4355400000000 1.0
C      1  0.5870300000000  0.5421230000000  0.5550830000000 1.0
C      1  0.4384190000000  0.4214660000000  0.5723890000000 1.0
C      1  0.5693710000000  0.5601760000000  0.5652380000000 1.0
C      1  0.5458770000000  0.5940070000000  0.4487400000000 1.0
C      1  0.5220440000000  0.4984510000000  0.5841390000000 1.0
C      1  0.6017340000000  0.4977230000000  0.4970850000000 1.0
C      1  0.5466640000000  0.5228970000000  0.5437520000000 1.0
C      1  0.5065490000000  0.5022620000000  0.5404030000000 1.0
C      1  0.5926470000000  0.4465100000000  0.5193190000000 1.0
C      1  0.3972670000000  0.5154770000000  0.5207190000000 1.0
C      1  0.4612620000000  0.4364030000000  0.5024570000000 1.0
C      1  0.5724050000000  0.4919370000000  0.4367680000000 1.0
C      1  0.4462200000000  0.5519950000000  0.5191320000000 1.0
C      1  0.5085450000000  0.4729670000000  0.5805230000000 1.0
C      1  0.5577440000000  0.5727410000000  0.4633510000000 1.0
C      1  0.4757420000000  0.5539940000000  0.4657500000000 1.0
C      1  0.6051100000000  0.4320630000000  0.6027270000000 1.0
C      1  0.3862860000000  0.5303650000000  0.5407430000000 1.0
C      1  0.4476380000000  0.5820500000000  0.5162600000000 1.0
C      1  0.5505360000000  0.5279770000000  0.4524430000000 1.0
C      1  0.4524460000000  0.4820850000000  0.4159690000000 1.0
C      1  0.5506350000000  0.4512020000000  0.4285710000000 1.0
C      1  0.5649450000000  0.4669220000000  0.4487890000000 1.0
C      1  0.4344370000000  0.5784500000000  0.4670420000000 1.0
C      1  0.4333540000000  0.5403680000000  0.4951900000000 1.0
C      1  0.4887420000000  0.5573900000000  0.5150120000000 1.0
C      1  0.5000250000000  0.4257530000000  0.4084730000000 1.0
C      1  0.5335050000000  0.4743800000000  0.4170030000000 1.0
C      1  0.5250970000000  0.5126880000000  0.5598550000000 1.0
C      1  0.5870600000000  0.5160050000000  0.4811370000000 1.0
C      1  0.4983280000000  0.4410070000000  0.4679990000000 1.0
C      1  0.5966620000000  0.5159480000000  0.5492250000000 1.0
C      1  0.5950190000000  0.4688080000000  0.5371810000000 1.0
C      1  0.3931600000000  0.4992660000000  0.5866540000000 1.0
C      1  0.5117900000000  0.5566320000000  0.4008010000000 1.0
C      1  0.5062850000000  0.4963320000000  0.4871990000000 1.0
C      1  0.5530890000000  0.5758930000000  0.5091460000000 1.0
C      1  0.4109300000000  0.4410420000000  0.4955190000000 1.0
C      1  0.4077070000000  0.5278030000000  0.4972040000000 1.0
C      1  0.4668740000000  0.6004320000000  0.5281340000000 1.0
C      1  0.5973690000000  0.4966840000000  0.5259290000000 1.0
C      1  0.5048320000000  0.4361800000000  0.5241640000000 1.0
C      1  0.6091530000000  0.4495960000000  0.4963080000000 1.0
C      1  0.4528640000000  0.4653790000000  0.4622080000000 1.0
C      1  0.6002520000000  0.4980980000000  0.5721660000000 1.0
C      1  0.5465460000000  0.5728230000000  0.5727480000000 1.0
C      1  0.4466620000000  0.5290170000000  0.5642630000000 1.0
C      1  0.4141080000000  0.4947730000000  0.4650320000000 1.0
C      1  0.4690660000000  0.4892820000000  0.5157310000000 1.0
C      1  0.4876870000000  0.6209720000000  0.4834560000000 1.0
C      1  0.5305940000000  0.5075560000000  0.6083380000000 1.0
C      1  0.4733580000000  0.6439460000000  0.4787570000000 1.0
C      1  0.4848450000000  0.4715290000000  0.5644660000000 1.0
C      1  0.5011070000000  0.6088010000000  0.4612670000000 1.0
C      1  0.4288880000000  0.3985570000000  0.4929310000000 1.0
C      1  0.5722010000000  0.5663610000000  0.4888560000000 1.0
C      1  0.4326370000000  0.4491020000000  0.5730240000000 1.0
C      1  0.5692590000000  0.4307140000000  0.5174750000000 1.0
C      1  0.4676060000000  0.3910940000000  0.5407400000000 1.0
C      1  0.5304850000000  0.5015180000000  0.5021140000000 1.0
C      1  0.5230340000000  0.4494760000000  0.5859930000000 1.0
C      1  0.4182880000000  0.4494360000000  0.4322920000000 1.0
C      1  0.4491830000000  0.5119030000000  0.4163710000000 1.0
C      1  0.4390980000000  0.4628410000000  0.5490870000000 1.0
C      1  0.4932120000000  0.5277730000000  0.4289870000000 1.0
C      1  0.5473560000000  0.5211470000000  0.4005770000000 1.0
C      1  0.5202510000000  0.5512400000000  0.4834320000000 1.0
C      1  0.5404430000000  0.6002510000000  0.5153440000000 1.0
END
