TITL C-599892-9790-134 255.176222069762 125000 -1049.84668221886 0 0 174 (C1) n - 1
REM
REM in /home/nfs/bkarasulu/CARBON/AIRSS/Generating-Clusters/TERSOFF/Only-C1/FIRE-HFTN
REM
REM
REM
REM
REM
REM ./C.cell (11c1c37f851c82e70ff6c80c92926a4b)
REM AIRSS Version 0.9.1 bugfix July 2018 build 013d7b7c2542+ Fri, 06 Jul 2018 19:26:36 +0100
REM compiler GCC version 9.2.1 20190827 (Red Hat 9.2.1-1)
REM options -cpp -mtune=generic -march=x86-64 -g -O0 -fpre-include=/usr/include/finclude/math-vector-fortran.h
REM seed 422878176 1619726679 -52336075 -681041447 -1441774152 -65063301 12243273 290612613 -1888143000 2118371415 -967368133 -378225568 779099648 -1899392470 532267439 172096950 2020691423 1880069665 1814883945 -1453510286 606560459 -1422597240 1189440805 -1858950892 754852875 1402083695 -2004709158 405976055 -367551004 -1619049812 -950026922 -1930592824 -1068425329
REM
CELL 1.54180   50.00000   50.00000   50.00000   90.00000   90.00000   90.00000
LATT -1
SFAC C  
C      1  0.5008520000000  0.5098340000000  0.5265600000000 1.0
C      1  0.4314510000000  0.5155150000000  0.5599360000000 1.0
C      1  0.5606510000000  0.4970110000000  0.3931450000000 1.0
C      1  0.5561140000000  0.3969480000000  0.5742730000000 1.0
C      1  0.4385070000000  0.4753790000000  0.5854150000000 1.0
C      1  0.5151340000000  0.6405860000000  0.5351940000000 1.0
C      1  0.4164700000000  0.4974450000000  0.4440620000000 1.0
C      1  0.5217940000000  0.4450390000000  0.6152650000000 1.0
C      1  0.4845810000000  0.4713140000000  0.5072450000000 1.0
C      1  0.4382950000000  0.5946120000000  0.4304400000000 1.0
C      1  0.5688710000000  0.4657510000000  0.5279370000000 1.0
C      1  0.5096880000000  0.3889680000000  0.4988530000000 1.0
C      1  0.5654790000000  0.4832500000000  0.5051220000000 1.0
C      1  0.4366050000000  0.6048740000000  0.4579400000000 1.0
C      1  0.4300570000000  0.4991470000000  0.4893820000000 1.0
C      1  0.4977660000000  0.5860820000000  0.5843350000000 1.0
C      1  0.5353710000000  0.3990940000000  0.4597600000000 1.0
C      1  0.5398600000000  0.4933980000000  0.5036860000000 1.0
C      1  0.3729590000000  0.5133640000000  0.4997480000000 1.0
C      1  0.4501010000000  0.4584220000000  0.4812740000000 1.0
C      1  0.5077730000000  0.5101360000000  0.5805380000000 1.0
C      1  0.5682700000000  0.4254320000000  0.4079030000000 1.0
C      1  0.4837360000000  0.4552210000000  0.4067120000000 1.0
C      1  0.6510060000000  0.5490790000000  0.5255910000000 1.0
C      1  0.5086490000000  0.6461610000000  0.5098430000000 1.0
C      1  0.4663480000000  0.4992600000000  0.4216210000000 1.0
C      1  0.5468160000000  0.4173810000000  0.5576090000000 1.0
C      1  0.4614410000000  0.4513390000000  0.5079800000000 1.0
C      1  0.4995650000000  0.5393640000000  0.5743150000000 1.0
C      1  0.4076460000000  0.5655120000000  0.4525420000000 1.0
C      1  0.4713540000000  0.4675480000000  0.4639270000000 1.0
C      1  0.4699470000000  0.5422660000000  0.5641690000000 1.0
C      1  0.3867750000000  0.5380890000000  0.4946300000000 1.0
C      1  0.4474170000000  0.4050860000000  0.5176310000000 1.0
C      1  0.5130820000000  0.4521670000000  0.4446610000000 1.0
C      1  0.4030660000000  0.4555400000000  0.4776840000000 1.0
C      1  0.5991560000000  0.5023120000000  0.4464110000000 1.0
C      1  0.4466730000000  0.6189740000000  0.5050310000000 1.0
C      1  0.5780480000000  0.4801600000000  0.4073280000000 1.0
C      1  0.4435900000000  0.4785510000000  0.4121260000000 1.0
C      1  0.4987940000000  0.5321900000000  0.3634370000000 1.0
C      1  0.5240190000000  0.5790420000000  0.5451720000000 1.0
C      1  0.4637930000000  0.5306270000000  0.4194570000000 1.0
C      1  0.3821830000000  0.4944500000000  0.5187720000000 1.0
C      1  0.4234700000000  0.4113490000000  0.4736510000000 1.0
C      1  0.5895670000000  0.4499200000000  0.4467250000000 1.0
C      1  0.5569050000000  0.5099820000000  0.4392490000000 1.0
C      1  0.4948180000000  0.5002330000000  0.6038860000000 1.0
C      1  0.4975100000000  0.5781850000000  0.4756390000000 1.0
C      1  0.4892290000000  0.5559240000000  0.5162620000000 1.0
C      1  0.5764310000000  0.5367320000000  0.4087020000000 1.0
C      1  0.4367520000000  0.5062530000000  0.4624340000000 1.0
C      1  0.5926540000000  0.4757370000000  0.4334090000000 1.0
C      1  0.5185430000000  0.5502440000000  0.5531540000000 1.0
C      1  0.5711180000000  0.5224790000000  0.5934630000000 1.0
C      1  0.5298710000000  0.5430680000000  0.4534630000000 1.0
C      1  0.5138240000000  0.4297920000000  0.5926150000000 1.0
C      1  0.4803100000000  0.4979280000000  0.6259760000000 1.0
C      1  0.4599770000000  0.4007160000000  0.5440880000000 1.0
C      1  0.5715490000000  0.4298100000000  0.4345680000000 1.0
C      1  0.5112480000000  0.4644110000000  0.5622640000000 1.0
C      1  0.5643010000000  0.5455950000000  0.5779640000000 1.0
C      1  0.4254440000000  0.5675700000000  0.4287350000000 1.0
C      1  0.5827030000000  0.5207250000000  0.4311290000000 1.0
C      1  0.4589850000000  0.4119880000000  0.4375590000000 1.0
C      1  0.5040030000000  0.5755580000000  0.5019910000000 1.0
C      1  0.5452030000000  0.5403710000000  0.5585050000000 1.0
C      1  0.4677660000000  0.4211700000000  0.5048420000000 1.0
C      1  0.4102750000000  0.4341640000000  0.4603690000000 1.0
C      1  0.4551940000000  0.5507120000000  0.4879540000000 1.0
C      1  0.4224010000000  0.4087970000000  0.5035920000000 1.0
C      1  0.4858540000000  0.4125730000000  0.5539840000000 1.0
C      1  0.4558500000000  0.5217480000000  0.5423220000000 1.0
C      1  0.5103270000000  0.3976140000000  0.4456250000000 1.0
C      1  0.5907580000000  0.4907570000000  0.4938050000000 1.0
C      1  0.5713350000000  0.5273850000000  0.5237230000000 1.0
C      1  0.5597060000000  0.4136410000000  0.4549650000000 1.0
C      1  0.5070940000000  0.5592410000000  0.5972900000000 1.0
C      1  0.5124430000000  0.5494590000000  0.3797320000000 1.0
C      1  0.5353900000000  0.3930740000000  0.4885390000000 1.0
C      1  0.4546540000000  0.5658630000000  0.5684950000000 1.0
C      1  0.5421120000000  0.4939700000000  0.6226410000000 1.0
C      1  0.5944380000000  0.4389940000000  0.4744820000000 1.0
C      1  0.5292330000000  0.5004620000000  0.5333270000000 1.0
C      1  0.5712480000000  0.3591620000000  0.6075230000000 1.0
C      1  0.6137420000000  0.5213970000000  0.5372240000000 1.0
C      1  0.4666260000000  0.4366390000000  0.5901890000000 1.0
C      1  0.5036230000000  0.4227150000000  0.5316020000000 1.0
C      1  0.4094190000000  0.5621130000000  0.5387780000000 1.0
C      1  0.5163920000000  0.5979820000000  0.5649180000000 1.0
C      1  0.4619100000000  0.4618250000000  0.5785940000000 1.0
C      1  0.4960020000000  0.6440820000000  0.4863400000000 1.0
C      1  0.4868830000000  0.5159890000000  0.4738310000000 1.0
C      1  0.5721900000000  0.5323060000000  0.4772960000000 1.0
C      1  0.4630500000000  0.6105420000000  0.5553470000000 1.0
C      1  0.3916860000000  0.5472700000000  0.4675810000000 1.0
C      1  0.5136470000000  0.5449880000000  0.4291310000000 1.0
C      1  0.4780020000000  0.4987060000000  0.5457220000000 1.0
C      1  0.6012230000000  0.4988830000000  0.5520900000000 1.0
C      1  0.5285340000000  0.5807240000000  0.5164820000000 1.0
C      1  0.5176810000000  0.6248820000000  0.5568000000000 1.0
C      1  0.4902770000000  0.4838480000000  0.4087950000000 1.0
C      1  0.4517570000000  0.6208520000000  0.4766680000000 1.0
C      1  0.4248390000000  0.4712460000000  0.4857840000000 1.0
C      1  0.5229090000000  0.4908890000000  0.5624050000000 1.0
C      1  0.5583170000000  0.4060880000000  0.5030700000000 1.0
C      1  0.3936310000000  0.4726760000000  0.5295510000000 1.0
C      1  0.6124300000000  0.5585460000000  0.4988690000000 1.0
C      1  0.6245170000000  0.5427280000000  0.5203350000000 1.0
C      1  0.4838570000000  0.5447060000000  0.4361000000000 1.0
C      1  0.4985470000000  0.4559480000000  0.4683730000000 1.0
C      1  0.4930140000000  0.4090460000000  0.5080950000000 1.0
C      1  0.5430020000000  0.4903660000000  0.4532780000000 1.0
C      1  0.5887350000000  0.5046740000000  0.5782510000000 1.0
C      1  0.4664460000000  0.4951650000000  0.6478740000000 1.0
C      1  0.5513230000000  0.5199870000000  0.5406870000000 1.0
C      1  0.5778320000000  0.5730260000000  0.4604100000000 1.0
C      1  0.4434360000000  0.4319400000000  0.4230540000000 1.0
C      1  0.5523720000000  0.5685320000000  0.5068720000000 1.0
C      1  0.5638500000000  0.3778300000000  0.5908980000000 1.0
C      1  0.5284170000000  0.5437600000000  0.6126180000000 1.0
C      1  0.5054940000000  0.5385660000000  0.5296300000000 1.0
C      1  0.4500440000000  0.6078960000000  0.4091020000000 1.0
C      1  0.3959740000000  0.5526760000000  0.5174230000000 1.0
C      1  0.6094840000000  0.4734200000000  0.5084640000000 1.0
C      1  0.5996560000000  0.5716220000000  0.4780850000000 1.0
C      1  0.5742390000000  0.4184540000000  0.4808890000000 1.0
C      1  0.5066260000000  0.4560880000000  0.4961970000000 1.0
C      1  0.4044390000000  0.4253170000000  0.5186460000000 1.0
C      1  0.5277120000000  0.4389190000000  0.5683760000000 1.0
C      1  0.4818250000000  0.4725030000000  0.5603840000000 1.0
C      1  0.5130690000000  0.5763470000000  0.3745270000000 1.0
C      1  0.5167260000000  0.5227860000000  0.4709570000000 1.0
C      1  0.5203750000000  0.4440320000000  0.5181660000000 1.0
C      1  0.4441880000000  0.3978020000000  0.4580830000000 1.0
C      1  0.4202500000000  0.4740480000000  0.4285870000000 1.0
C      1  0.5481910000000  0.5201320000000  0.6124870000000 1.0
C      1  0.4284250000000  0.5671030000000  0.5572570000000 1.0
C      1  0.4755460000000  0.6351060000000  0.4713370000000 1.0
C      1  0.4208770000000  0.5841800000000  0.4705750000000 1.0
C      1  0.4117040000000  0.4509440000000  0.5292470000000 1.0
C      1  0.5265130000000  0.5392850000000  0.4025540000000 1.0
C      1  0.4557460000000  0.4521390000000  0.4064490000000 1.0
C      1  0.4198610000000  0.4445910000000  0.4352670000000 1.0
C      1  0.3499220000000  0.5079560000000  0.4858410000000 1.0
C      1  0.5583290000000  0.5511250000000  0.4590350000000 1.0
C      1  0.6128590000000  0.4495050000000  0.4934400000000 1.0
C      1  0.5669370000000  0.5443460000000  0.5027130000000 1.0
C      1  0.5524010000000  0.5257320000000  0.3963240000000 1.0
C      1  0.4394080000000  0.5094160000000  0.5131590000000 1.0
C      1  0.4884370000000  0.4126690000000  0.4343220000000 1.0
C      1  0.5965250000000  0.4740440000000  0.5360810000000 1.0
C      1  0.4557980000000  0.3461220000000  0.4682960000000 1.0
C      1  0.4401030000000  0.4555170000000  0.5289460000000 1.0
C      1  0.4395000000000  0.5457670000000  0.4167250000000 1.0
C      1  0.4642500000000  0.5451960000000  0.5139910000000 1.0
C      1  0.4352560000000  0.5697740000000  0.4890950000000 1.0
C      1  0.5334050000000  0.4683090000000  0.6231040000000 1.0
C      1  0.4675130000000  0.4969330000000  0.4545740000000 1.0
C      1  0.5284010000000  0.4739700000000  0.4363190000000 1.0
C      1  0.4749640000000  0.5444220000000  0.4661480000000 1.0
C      1  0.4250660000000  0.4972130000000  0.5782090000000 1.0
C      1  0.5912670000000  0.5099090000000  0.4736400000000 1.0
C      1  0.4882010000000  0.4997140000000  0.5009670000000 1.0
C      1  0.4612430000000  0.6208860000000  0.3894850000000 1.0
C      1  0.4534030000000  0.6175680000000  0.5311100000000 1.0
C      1  0.5556190000000  0.4188590000000  0.5295840000000 1.0
C      1  0.4981060000000  0.4380520000000  0.4246130000000 1.0
C      1  0.5171450000000  0.4877110000000  0.4142200000000 1.0
C      1  0.4493010000000  0.3706930000000  0.4625450000000 1.0
C      1  0.4700840000000  0.5894280000000  0.5734490000000 1.0
C      1  0.4882810000000  0.4206290000000  0.5819960000000 1.0
C      1  0.5485650000000  0.4462410000000  0.5245170000000 1.0
C      1  0.5323810000000  0.5001660000000  0.4776530000000 1.0
END
