TITL C-599891-72-1088 14.6611828454874 125000 -364.959183644842 0 0 62 (C1) n - 1
REM
REM in /home/nfs/bkarasulu/CARBON/AIRSS/Generating-Clusters/TERSOFF/Only-C1/FIRE-HFTN
REM
REM
REM
REM
REM
REM ./C.cell (11c1c37f851c82e70ff6c80c92926a4b)
REM AIRSS Version 0.9.1 bugfix July 2018 build 013d7b7c2542+ Fri, 06 Jul 2018 19:26:36 +0100
REM compiler GCC version 9.2.1 20190827 (Red Hat 9.2.1-1)
REM options -cpp -mtune=generic -march=x86-64 -g -O0 -fpre-include=/usr/include/finclude/math-vector-fortran.h
REM seed 250078039 952152346 -1490900323 834342716 -605092195 1688880063 1732095415 -969109365 215563852 1097789440 1837547562 488642536 547864704 105299857 -18554618 1746710576 -1447466379 -2144560797 2046607196 515715962 300820341 1251141271 162833023 1985373186 1125386791 711442256 -2137439087 94006253 1766108833 -720998845 1061256338 745464025 -1598436564
REM
CELL 1.54180   50.00000   50.00000   50.00000   90.00000   90.00000   90.00000
LATT -1
SFAC C  
C      1  0.4972530000000  0.4495340000000  0.3507210000000 1.0
C      1  0.5533420000000  0.4267830000000  0.5237010000000 1.0
C      1  0.4864290000000  0.4401610000000  0.2996850000000 1.0
C      1  0.4918420000000  0.4448480000000  0.3252060000000 1.0
C      1  0.4264840000000  0.5469580000000  0.4993850000000 1.0
C      1  0.4811050000000  0.4355510000000  0.2745840000000 1.0
C      1  0.5365140000000  0.5832270000000  0.5144950000000 1.0
C      1  0.5346820000000  0.5266370000000  0.5986420000000 1.0
C      1  0.4387550000000  0.5653770000000  0.4811370000000 1.0
C      1  0.5452640000000  0.4526270000000  0.5177940000000 1.0
C      1  0.5258810000000  0.4596620000000  0.4976130000000 1.0
C      1  0.4300610000000  0.4997180000000  0.5199700000000 1.0
C      1  0.5608590000000  0.4020860000000  0.5296490000000 1.0
C      1  0.5032260000000  0.4600300000000  0.4779390000000 1.0
C      1  0.5695000000000  0.5057280000000  0.5161370000000 1.0
C      1  0.5174700000000  0.4711800000000  0.4535520000000 1.0
C      1  0.4813120000000  0.4779820000000  0.4863830000000 1.0
C      1  0.5259090000000  0.4817070000000  0.5783660000000 1.0
C      1  0.5679860000000  0.5370300000000  0.5592470000000 1.0
C      1  0.4284180000000  0.5185980000000  0.4978300000000 1.0
C      1  0.4527140000000  0.5025020000000  0.5737470000000 1.0
C      1  0.4341940000000  0.5046250000000  0.5493850000000 1.0
C      1  0.4968970000000  0.5116120000000  0.5484850000000 1.0
C      1  0.5657290000000  0.5167330000000  0.4884080000000 1.0
C      1  0.5080510000000  0.4589440000000  0.4017470000000 1.0
C      1  0.4709560000000  0.4781620000000  0.5736770000000 1.0
C      1  0.5529240000000  0.5397540000000  0.5814010000000 1.0
C      1  0.4672470000000  0.5273090000000  0.5803860000000 1.0
C      1  0.5164510000000  0.5707450000000  0.5035110000000 1.0
C      1  0.4801070000000  0.5201890000000  0.4407900000000 1.0
C      1  0.5300160000000  0.5352810000000  0.4512990000000 1.0
C      1  0.5132170000000  0.4640500000000  0.4272160000000 1.0
C      1  0.4962240000000  0.5551220000000  0.4926620000000 1.0
C      1  0.5227400000000  0.5077570000000  0.5379840000000 1.0
C      1  0.5480150000000  0.5170400000000  0.4638660000000 1.0
C      1  0.4889020000000  0.5029910000000  0.5040680000000 1.0
C      1  0.5362740000000  0.4907860000000  0.4643900000000 1.0
C      1  0.4483220000000  0.4573570000000  0.5330890000000 1.0
C      1  0.4979710000000  0.4748470000000  0.5833310000000 1.0
C      1  0.4875090000000  0.5570710000000  0.4660040000000 1.0
C      1  0.5337790000000  0.4870650000000  0.4929840000000 1.0
C      1  0.4378340000000  0.4725840000000  0.5115130000000 1.0
C      1  0.5754070000000  0.5246650000000  0.5365310000000 1.0
C      1  0.5197460000000  0.5049560000000  0.5089370000000 1.0
C      1  0.5682530000000  0.3777880000000  0.5355310000000 1.0
C      1  0.5094640000000  0.5365280000000  0.6070980000000 1.0
C      1  0.4815930000000  0.4922260000000  0.5322030000000 1.0
C      1  0.5554630000000  0.4765720000000  0.5315240000000 1.0
C      1  0.4320500000000  0.5918090000000  0.4805230000000 1.0
C      1  0.4370770000000  0.5113610000000  0.4709000000000 1.0
C      1  0.4807330000000  0.5334670000000  0.5558870000000 1.0
C      1  0.4539970000000  0.4701040000000  0.4881150000000 1.0
C      1  0.5371610000000  0.4868270000000  0.5517390000000 1.0
C      1  0.4821610000000  0.5351580000000  0.5074080000000 1.0
C      1  0.5370930000000  0.4982760000000  0.5985620000000 1.0
C      1  0.5026640000000  0.4542210000000  0.3762350000000 1.0
C      1  0.4713500000000  0.5450110000000  0.5321050000000 1.0
C      1  0.4547010000000  0.5261450000000  0.4540740000000 1.0
C      1  0.4584550000000  0.5541520000000  0.4636460000000 1.0
C      1  0.4827710000000  0.5341250000000  0.6029740000000 1.0
C      1  0.5018230000000  0.5386220000000  0.4481230000000 1.0
C      1  0.4696770000000  0.4700400000000  0.5459110000000 1.0
END
