TITL C-599894-471-180 0.0705936645704315 125000 -669.105646247948 0 0 108 (C1) n - 1
REM
REM in /home/nfs/bkarasulu/CARBON/AIRSS/Generating-Clusters/TERSOFF/Only-C1/FIRE-HFTN
REM
REM
REM
REM
REM
REM ./C.cell (11c1c37f851c82e70ff6c80c92926a4b)
REM AIRSS Version 0.9.1 bugfix July 2018 build 013d7b7c2542+ Fri, 06 Jul 2018 19:26:36 +0100
REM compiler GCC version 9.2.1 20190827 (Red Hat 9.2.1-1)
REM options -cpp -mtune=generic -march=x86-64 -g -O0 -fpre-include=/usr/include/finclude/math-vector-fortran.h
REM seed -936155112 1455322860 1035035464 350010644 -1196574054 -70210396 1683117650 1606141485 -82918692 1066846057 -372032457 -1472401550 -1558451498 -1084916485 -336748476 -1249586005 -930233089 -1515875155 2103432458 603132750 1145822624 -1885729806 -432468399 539916085 1500665987 1531178318 -285541382 -1096850359 -750031169 -832198127 -1271574711 -1279215745 1228345725
REM
CELL 1.54180   50.00000   50.00000   50.00000   90.00000   90.00000   90.00000
LATT -1
SFAC C  
C      1  0.5334210000000  0.5364450000000  0.4304710000000 1.0
C      1  0.6091140000000  0.4877150000000  0.5138810000000 1.0
C      1  0.4193580000000  0.5380910000000  0.5067190000000 1.0
C      1  0.4501010000000  0.4676440000000  0.4554880000000 1.0
C      1  0.4985890000000  0.4345420000000  0.5203500000000 1.0
C      1  0.4506670000000  0.4855570000000  0.5827890000000 1.0
C      1  0.4502340000000  0.5063220000000  0.5224420000000 1.0
C      1  0.4906730000000  0.5763540000000  0.4538880000000 1.0
C      1  0.5901070000000  0.4824240000000  0.4949780000000 1.0
C      1  0.5112070000000  0.5599410000000  0.5727000000000 1.0
C      1  0.5736390000000  0.5493860000000  0.5348360000000 1.0
C      1  0.5058880000000  0.4748420000000  0.4696170000000 1.0
C      1  0.4120590000000  0.5460830000000  0.4600610000000 1.0
C      1  0.4672130000000  0.5443480000000  0.5009860000000 1.0
C      1  0.5356440000000  0.4695360000000  0.4334090000000 1.0
C      1  0.4050370000000  0.5306400000000  0.4830010000000 1.0
C      1  0.4338360000000  0.4885660000000  0.4447990000000 1.0
C      1  0.4781100000000  0.4536090000000  0.5237460000000 1.0
C      1  0.5072540000000  0.4246940000000  0.4369440000000 1.0
C      1  0.4780770000000  0.5584640000000  0.4341240000000 1.0
C      1  0.4642270000000  0.5802790000000  0.5451200000000 1.0
C      1  0.5600060000000  0.5261210000000  0.5236440000000 1.0
C      1  0.4814010000000  0.4347180000000  0.4280750000000 1.0
C      1  0.5521760000000  0.5578480000000  0.4319230000000 1.0
C      1  0.5753060000000  0.5033030000000  0.4822240000000 1.0
C      1  0.5627220000000  0.5748930000000  0.5282010000000 1.0
C      1  0.4685020000000  0.5901070000000  0.4684930000000 1.0
C      1  0.4206580000000  0.4525620000000  0.5232090000000 1.0
C      1  0.5206770000000  0.4754940000000  0.5149700000000 1.0
C      1  0.4431270000000  0.4275090000000  0.5595010000000 1.0
C      1  0.5703630000000  0.4523900000000  0.4610880000000 1.0
C      1  0.5438690000000  0.5115520000000  0.5423260000000 1.0
C      1  0.4501160000000  0.5338890000000  0.5685490000000 1.0
C      1  0.5424170000000  0.5796680000000  0.4481290000000 1.0
C      1  0.4864850000000  0.5347710000000  0.4209280000000 1.0
C      1  0.4750770000000  0.4590380000000  0.5505350000000 1.0
C      1  0.5173740000000  0.4676470000000  0.5811170000000 1.0
C      1  0.5229220000000  0.5818910000000  0.5591290000000 1.0
C      1  0.5074390000000  0.4089700000000  0.5591750000000 1.0
C      1  0.5576020000000  0.5213680000000  0.4958300000000 1.0
C      1  0.5129100000000  0.5341490000000  0.4119660000000 1.0
C      1  0.5655660000000  0.5341990000000  0.5791790000000 1.0
C      1  0.4420090000000  0.5547590000000  0.5013710000000 1.0
C      1  0.4951390000000  0.4099710000000  0.5334450000000 1.0
C      1  0.4864010000000  0.4850830000000  0.4290130000000 1.0
C      1  0.5188230000000  0.5688920000000  0.5119030000000 1.0
C      1  0.4286650000000  0.4748460000000  0.5664460000000 1.0
C      1  0.5633480000000  0.4214530000000  0.5166880000000 1.0
C      1  0.4977400000000  0.4482770000000  0.4713980000000 1.0
C      1  0.4251550000000  0.5280860000000  0.5554600000000 1.0
C      1  0.4487470000000  0.4050650000000  0.5417650000000 1.0
C      1  0.5305230000000  0.5235220000000  0.4554710000000 1.0
C      1  0.4257180000000  0.5201170000000  0.5283310000000 1.0
C      1  0.4430900000000  0.5829840000000  0.4556910000000 1.0
C      1  0.5225890000000  0.5581370000000  0.4865050000000 1.0
C      1  0.4166070000000  0.5750160000000  0.4638250000000 1.0
C      1  0.5176660000000  0.5740700000000  0.4627600000000 1.0
C      1  0.5727110000000  0.6006890000000  0.4840780000000 1.0
C      1  0.4444960000000  0.5126670000000  0.4347770000000 1.0
C      1  0.4708750000000  0.4606790000000  0.4361500000000 1.0
C      1  0.5094330000000  0.4868470000000  0.5630650000000 1.0
C      1  0.4734580000000  0.4712370000000  0.5018620000000 1.0
C      1  0.4601930000000  0.5597590000000  0.5621930000000 1.0
C      1  0.5847830000000  0.5219040000000  0.4380300000000 1.0
C      1  0.4731150000000  0.3899280000000  0.4974440000000 1.0
C      1  0.5117560000000  0.4825810000000  0.4428140000000 1.0
C      1  0.5846210000000  0.4556130000000  0.4860390000000 1.0
C      1  0.4698420000000  0.5982870000000  0.4956040000000 1.0
C      1  0.4662950000000  0.4190810000000  0.4112490000000 1.0
C      1  0.5572640000000  0.4111390000000  0.5424310000000 1.0
C      1  0.5857150000000  0.4344910000000  0.5053420000000 1.0
C      1  0.4029470000000  0.4797130000000  0.4875390000000 1.0
C      1  0.5362320000000  0.4170140000000  0.4746040000000 1.0
C      1  0.4709660000000  0.3972920000000  0.5250200000000 1.0
C      1  0.4713740000000  0.5199210000000  0.5118030000000 1.0
C      1  0.5000070000000  0.4841230000000  0.4958840000000 1.0
C      1  0.5106120000000  0.4078860000000  0.4621460000000 1.0
C      1  0.4502280000000  0.4663990000000  0.4847490000000 1.0
C      1  0.5414080000000  0.5237600000000  0.5688160000000 1.0
C      1  0.5231490000000  0.6068180000000  0.5703300000000 1.0
C      1  0.4242490000000  0.4643070000000  0.4978220000000 1.0
C      1  0.4263810000000  0.4504270000000  0.5508010000000 1.0
C      1  0.4677320000000  0.5941090000000  0.5222080000000 1.0
C      1  0.4328670000000  0.5380100000000  0.4405130000000 1.0
C      1  0.5356990000000  0.5331260000000  0.4814600000000 1.0
C      1  0.5743460000000  0.5920710000000  0.5093450000000 1.0
C      1  0.5785350000000  0.5474420000000  0.4312080000000 1.0
C      1  0.4722400000000  0.5103910000000  0.4256430000000 1.0
C      1  0.5323980000000  0.4398510000000  0.4335030000000 1.0
C      1  0.5743920000000  0.5006460000000  0.4534390000000 1.0
C      1  0.4621980000000  0.4613740000000  0.5944590000000 1.0
C      1  0.4498860000000  0.5612110000000  0.4364630000000 1.0
C      1  0.5620310000000  0.4762140000000  0.4453140000000 1.0
C      1  0.5519240000000  0.4311440000000  0.4546720000000 1.0
C      1  0.5604670000000  0.5973820000000  0.4604890000000 1.0
C      1  0.4657900000000  0.5104890000000  0.5769040000000 1.0
C      1  0.5230330000000  0.4462060000000  0.5129590000000 1.0
C      1  0.5828280000000  0.5458320000000  0.5615780000000 1.0
C      1  0.5401460000000  0.4270380000000  0.5011270000000 1.0
C      1  0.4902810000000  0.4207230000000  0.5788640000000 1.0
C      1  0.3948200000000  0.5045810000000  0.4818910000000 1.0
C      1  0.5252860000000  0.4903160000000  0.5388020000000 1.0
C      1  0.4949930000000  0.5104600000000  0.5727940000000 1.0
C      1  0.4679990000000  0.4401920000000  0.5735710000000 1.0
C      1  0.5357890000000  0.4069110000000  0.5585340000000 1.0
C      1  0.5143990000000  0.5321590000000  0.5750890000000 1.0
C      1  0.4898700000000  0.3944510000000  0.4764190000000 1.0
C      1  0.5345520000000  0.5772630000000  0.5335480000000 1.0
END
