TITL C-599897-7526-1424 -135.525057777946 125000 -1108.82574662488 0 0 183 (C1) n - 1
REM
REM in /home/nfs/bkarasulu/CARBON/AIRSS/Generating-Clusters/TERSOFF/Only-C1/FIRE-HFTN
REM
REM
REM
REM
REM
REM ./C.cell (11c1c37f851c82e70ff6c80c92926a4b)
REM AIRSS Version 0.9.1 bugfix July 2018 build 013d7b7c2542+ Fri, 06 Jul 2018 19:26:36 +0100
REM compiler GCC version 9.2.1 20190827 (Red Hat 9.2.1-1)
REM options -cpp -mtune=generic -march=x86-64 -g -O0 -fpre-include=/usr/include/finclude/math-vector-fortran.h
REM seed -1832293786 1140816576 990491099 -1021679975 362657511 -1626645866 -1947983555 833678092 -814192696 -1538707629 -754211942 -1259616890 -11595560 -581545051 665974018 807481425 1221543981 161617240 -1693391027 167791125 1399128914 -36122756 -2122510279 -1902921348 -1314711834 -1252899931 1490449957 -2027106639 1205747571 319446855 26282669 -1194207804 1970359574
REM
CELL 1.54180   50.00000   50.00000   50.00000   90.00000   90.00000   90.00000
LATT -1
SFAC C  
C      1  0.4042250000000  0.5599750000000  0.4706450000000 1.0
C      1  0.5426640000000  0.5038390000000  0.5305390000000 1.0
C      1  0.5559430000000  0.4155340000000  0.4548040000000 1.0
C      1  0.5057950000000  0.5005190000000  0.4767320000000 1.0
C      1  0.6031400000000  0.5757940000000  0.5282990000000 1.0
C      1  0.4058140000000  0.5557490000000  0.5254310000000 1.0
C      1  0.4558900000000  0.6135500000000  0.5780280000000 1.0
C      1  0.4431760000000  0.3958690000000  0.5023050000000 1.0
C      1  0.5876520000000  0.5882480000000  0.4539820000000 1.0
C      1  0.4031280000000  0.5123700000000  0.4672890000000 1.0
C      1  0.5345860000000  0.5493710000000  0.5106600000000 1.0
C      1  0.4630410000000  0.4914470000000  0.5248180000000 1.0
C      1  0.4702730000000  0.5755090000000  0.4804580000000 1.0
C      1  0.4583590000000  0.5149590000000  0.4866070000000 1.0
C      1  0.4417020000000  0.4617040000000  0.4894070000000 1.0
C      1  0.5076990000000  0.4525100000000  0.4062550000000 1.0
C      1  0.5864150000000  0.3839400000000  0.5592680000000 1.0
C      1  0.5388830000000  0.5063030000000  0.4360060000000 1.0
C      1  0.4079710000000  0.5609730000000  0.4415310000000 1.0
C      1  0.4881430000000  0.5099730000000  0.5224290000000 1.0
C      1  0.4663540000000  0.4120150000000  0.5017650000000 1.0
C      1  0.5673930000000  0.6078630000000  0.4461320000000 1.0
C      1  0.4916640000000  0.5510460000000  0.3277950000000 1.0
C      1  0.5739680000000  0.4149480000000  0.3891220000000 1.0
C      1  0.5556010000000  0.4400670000000  0.5256490000000 1.0
C      1  0.3742050000000  0.4245390000000  0.4933630000000 1.0
C      1  0.4102870000000  0.5603890000000  0.5983250000000 1.0
C      1  0.4597190000000  0.6079700000000  0.5268580000000 1.0
C      1  0.5295950000000  0.4116590000000  0.6010170000000 1.0
C      1  0.3783040000000  0.4300610000000  0.4665710000000 1.0
C      1  0.5116290000000  0.4716400000000  0.3857730000000 1.0
C      1  0.5941560000000  0.5883190000000  0.4823360000000 1.0
C      1  0.5804850000000  0.4826700000000  0.4251380000000 1.0
C      1  0.5708540000000  0.4538900000000  0.5695610000000 1.0
C      1  0.5087940000000  0.4619050000000  0.5194190000000 1.0
C      1  0.4654350000000  0.4423350000000  0.4991510000000 1.0
C      1  0.5635210000000  0.5525350000000  0.5924540000000 1.0
C      1  0.5271470000000  0.5886670000000  0.5880050000000 1.0
C      1  0.5928050000000  0.5796050000000  0.5543150000000 1.0
C      1  0.4459440000000  0.5854180000000  0.5152530000000 1.0
C      1  0.3643630000000  0.4901840000000  0.4398550000000 1.0
C      1  0.5415140000000  0.3572840000000  0.5554370000000 1.0
C      1  0.4305390000000  0.5501110000000  0.4258780000000 1.0
C      1  0.6038000000000  0.5679910000000  0.5007340000000 1.0
C      1  0.3842160000000  0.4991660000000  0.4541680000000 1.0
C      1  0.4798360000000  0.4420260000000  0.4081130000000 1.0
C      1  0.5291700000000  0.4479980000000  0.5379010000000 1.0
C      1  0.4911430000000  0.3981690000000  0.5021270000000 1.0
C      1  0.4482260000000  0.5334010000000  0.6077960000000 1.0
C      1  0.4149140000000  0.4459900000000  0.4905380000000 1.0
C      1  0.5229220000000  0.6026060000000  0.4930250000000 1.0
C      1  0.4321340000000  0.5252960000000  0.4118960000000 1.0
C      1  0.5809060000000  0.4949940000000  0.4952600000000 1.0
C      1  0.5654600000000  0.5877280000000  0.5602770000000 1.0
C      1  0.4662270000000  0.4053680000000  0.4402760000000 1.0
C      1  0.4489280000000  0.3896610000000  0.4533800000000 1.0
C      1  0.4656060000000  0.4760030000000  0.4453000000000 1.0
C      1  0.4221330000000  0.4523020000000  0.4433620000000 1.0
C      1  0.4349870000000  0.6050800000000  0.5945500000000 1.0
C      1  0.4931030000000  0.5531790000000  0.5584400000000 1.0
C      1  0.4563490000000  0.4242790000000  0.5890180000000 1.0
C      1  0.3977730000000  0.4309220000000  0.5090900000000 1.0
C      1  0.4640800000000  0.3670400000000  0.5486340000000 1.0
C      1  0.5960680000000  0.4291030000000  0.3838700000000 1.0
C      1  0.5612660000000  0.5020050000000  0.4151700000000 1.0
C      1  0.5556950000000  0.5212830000000  0.4583480000000 1.0
C      1  0.6061150000000  0.5401260000000  0.4953770000000 1.0
C      1  0.4834000000000  0.5663050000000  0.4289880000000 1.0
C      1  0.5460900000000  0.5938320000000  0.5407970000000 1.0
C      1  0.4957450000000  0.5328750000000  0.3466560000000 1.0
C      1  0.4505630000000  0.6185080000000  0.5510220000000 1.0
C      1  0.5679340000000  0.4284360000000  0.5008120000000 1.0
C      1  0.4940200000000  0.5051610000000  0.4140130000000 1.0
C      1  0.4859040000000  0.4497040000000  0.4786840000000 1.0
C      1  0.3924340000000  0.4938520000000  0.5202020000000 1.0
C      1  0.4995140000000  0.5150310000000  0.3658590000000 1.0
C      1  0.5151120000000  0.3545970000000  0.5532590000000 1.0
C      1  0.5474430000000  0.4654550000000  0.5799700000000 1.0
C      1  0.5019790000000  0.5845120000000  0.5172420000000 1.0
C      1  0.6059890000000  0.5671850000000  0.5764190000000 1.0
C      1  0.5144560000000  0.5526040000000  0.4630000000000 1.0
C      1  0.5819150000000  0.4714130000000  0.4763080000000 1.0
C      1  0.5602330000000  0.4071810000000  0.4822560000000 1.0
C      1  0.4627060000000  0.4688930000000  0.5414610000000 1.0
C      1  0.4448310000000  0.3874960000000  0.5503560000000 1.0
C      1  0.5688120000000  0.4861390000000  0.5239950000000 1.0
C      1  0.4902970000000  0.5517930000000  0.5869800000000 1.0
C      1  0.4415630000000  0.5377350000000  0.4903870000000 1.0
C      1  0.5244270000000  0.4630630000000  0.5640280000000 1.0
C      1  0.5030610000000  0.4140980000000  0.6022450000000 1.0
C      1  0.4795060000000  0.6225310000000  0.5104220000000 1.0
C      1  0.5938290000000  0.4105770000000  0.5637600000000 1.0
C      1  0.4891640000000  0.5682310000000  0.4992280000000 1.0
C      1  0.4238810000000  0.5361750000000  0.5936770000000 1.0
C      1  0.4887610000000  0.3571560000000  0.5504230000000 1.0
C      1  0.4414600000000  0.6151640000000  0.4794140000000 1.0
C      1  0.4552730000000  0.5613630000000  0.4344840000000 1.0
C      1  0.4307720000000  0.4435040000000  0.4177540000000 1.0
C      1  0.4525430000000  0.4522230000000  0.4003020000000 1.0
C      1  0.5286010000000  0.4513110000000  0.4281870000000 1.0
C      1  0.4480880000000  0.4504970000000  0.5833170000000 1.0
C      1  0.4292580000000  0.4942700000000  0.5679110000000 1.0
C      1  0.5459020000000  0.3606260000000  0.4944990000000 1.0
C      1  0.4885220000000  0.5071770000000  0.5686090000000 1.0
C      1  0.5234290000000  0.4289630000000  0.4884970000000 1.0
C      1  0.4519750000000  0.5409220000000  0.5373530000000 1.0
C      1  0.4408840000000  0.4693310000000  0.4577520000000 1.0
C      1  0.4039080000000  0.4422990000000  0.4624840000000 1.0
C      1  0.5124500000000  0.5205010000000  0.4285490000000 1.0
C      1  0.5184790000000  0.6145790000000  0.4678510000000 1.0
C      1  0.5764100000000  0.4599770000000  0.5391930000000 1.0
C      1  0.5755300000000  0.4267550000000  0.5787410000000 1.0
C      1  0.5126370000000  0.4919730000000  0.5298220000000 1.0
C      1  0.5615750000000  0.5480630000000  0.4516410000000 1.0
C      1  0.4264550000000  0.5954820000000  0.4956810000000 1.0
C      1  0.5216550000000  0.4776110000000  0.4728460000000 1.0
C      1  0.4761350000000  0.4188790000000  0.6088120000000 1.0
C      1  0.5454780000000  0.5246260000000  0.5085660000000 1.0
C      1  0.5126440000000  0.4554790000000  0.4900930000000 1.0
C      1  0.4161330000000  0.5347490000000  0.4777410000000 1.0
C      1  0.5420000000000  0.6169030000000  0.4511820000000 1.0
C      1  0.5486030000000  0.5933380000000  0.4973950000000 1.0
C      1  0.4831310000000  0.6094030000000  0.5832510000000 1.0
C      1  0.5396670000000  0.5638870000000  0.4591850000000 1.0
C      1  0.4167080000000  0.5863430000000  0.5998100000000 1.0
C      1  0.4235380000000  0.5387720000000  0.5452490000000 1.0
C      1  0.5016990000000  0.4978220000000  0.3875150000000 1.0
C      1  0.5415790000000  0.3871770000000  0.4918630000000 1.0
C      1  0.4459900000000  0.4710570000000  0.5644430000000 1.0
C      1  0.4779150000000  0.4299690000000  0.4343400000000 1.0
C      1  0.4299440000000  0.3959830000000  0.5274780000000 1.0
C      1  0.5075260000000  0.4866060000000  0.5605130000000 1.0
C      1  0.4457660000000  0.4036180000000  0.5733040000000 1.0
C      1  0.5553290000000  0.4153860000000  0.5948520000000 1.0
C      1  0.4808390000000  0.4523770000000  0.4517830000000 1.0
C      1  0.4492580000000  0.5558360000000  0.5129170000000 1.0
C      1  0.5480000000000  0.5160220000000  0.5578960000000 1.0
C      1  0.6065500000000  0.5115750000000  0.4977380000000 1.0
C      1  0.5739530000000  0.6043600000000  0.4943740000000 1.0
C      1  0.5862300000000  0.4464120000000  0.4883230000000 1.0
C      1  0.4892750000000  0.5189190000000  0.4933260000000 1.0
C      1  0.4450260000000  0.4908400000000  0.5014120000000 1.0
C      1  0.5665470000000  0.3663150000000  0.5566700000000 1.0
C      1  0.6070540000000  0.4516420000000  0.3932330000000 1.0
C      1  0.5176650000000  0.4021720000000  0.4951410000000 1.0
C      1  0.4212050000000  0.5219950000000  0.5687880000000 1.0
C      1  0.6115140000000  0.4254900000000  0.5473250000000 1.0
C      1  0.4468970000000  0.5014800000000  0.4079080000000 1.0
C      1  0.5525180000000  0.5296110000000  0.5803980000000 1.0
C      1  0.4882000000000  0.5948630000000  0.4364830000000 1.0
C      1  0.5527350000000  0.5777550000000  0.5841760000000 1.0
C      1  0.5047160000000  0.5954400000000  0.5717020000000 1.0
C      1  0.4079740000000  0.4136010000000  0.5285330000000 1.0
C      1  0.5379410000000  0.4754310000000  0.4473160000000 1.0
C      1  0.5448230000000  0.4266490000000  0.4308360000000 1.0
C      1  0.4532240000000  0.5719520000000  0.4605820000000 1.0
C      1  0.4695100000000  0.4963840000000  0.4256020000000 1.0
C      1  0.6302660000000  0.4985700000000  0.5022950000000 1.0
C      1  0.4732490000000  0.5427310000000  0.6055610000000 1.0
C      1  0.5841760000000  0.5622320000000  0.4433060000000 1.0
C      1  0.4806170000000  0.5286900000000  0.5459920000000 1.0
C      1  0.4876560000000  0.5689340000000  0.3092590000000 1.0
C      1  0.4057970000000  0.5751090000000  0.4956350000000 1.0
C      1  0.4167920000000  0.4960650000000  0.5110800000000 1.0
C      1  0.5284660000000  0.6179270000000  0.5366390000000 1.0
C      1  0.4371740000000  0.3848130000000  0.4771630000000 1.0
C      1  0.4683870000000  0.4182350000000  0.6356940000000 1.0
C      1  0.4465230000000  0.4786550000000  0.3903500000000 1.0
C      1  0.5594010000000  0.5143750000000  0.4857800000000 1.0
C      1  0.4792880000000  0.4512500000000  0.5256910000000 1.0
C      1  0.4609500000000  0.4177680000000  0.6606660000000 1.0
C      1  0.5052340000000  0.6283170000000  0.5244880000000 1.0
C      1  0.5002440000000  0.5789720000000  0.5470670000000 1.0
C      1  0.4709620000000  0.6211410000000  0.4809150000000 1.0
C      1  0.6045350000000  0.4495030000000  0.5363130000000 1.0
C      1  0.5918790000000  0.5535580000000  0.5953620000000 1.0
C      1  0.4910150000000  0.6132960000000  0.4592280000000 1.0
C      1  0.5695730000000  0.4723120000000  0.4506050000000 1.0
C      1  0.5046070000000  0.5455220000000  0.4904110000000 1.0
C      1  0.6009170000000  0.4714140000000  0.4100950000000 1.0
C      1  0.5538930000000  0.4150170000000  0.4067410000000 1.0
C      1  0.5023200000000  0.5458650000000  0.4383120000000 1.0
C      1  0.5454260000000  0.5745080000000  0.5186480000000 1.0
END
