TITL C-599890-3321-129 -121.906750909605 125000 -1092.49257135527 0 0 178 (C1) n - 1
REM
REM in /home/nfs/bkarasulu/CARBON/AIRSS/Generating-Clusters/TERSOFF/Only-C1/FIRE-HFTN
REM
REM
REM
REM
REM
REM ./C.cell (11c1c37f851c82e70ff6c80c92926a4b)
REM AIRSS Version 0.9.1 bugfix July 2018 build 013d7b7c2542+ Fri, 06 Jul 2018 19:26:36 +0100
REM compiler GCC version 9.2.1 20190827 (Red Hat 9.2.1-1)
REM options -cpp -mtune=generic -march=x86-64 -g -O0 -fpre-include=/usr/include/finclude/math-vector-fortran.h
REM seed 1883657802 -704948953 1985967756 212912198 -1279220856 -1137499824 89169812 1999227359 1183011904 1109263188 -372732936 1107337348 -670852741 -298403721 -955266725 -574217576 1146454822 60837940 1751610759 1020881152 1817642864 -317170062 1020417150 -1499858354 996362161 738477774 -820860835 -1844083438 1731820900 707055752 1462886452 -1089744586 -936048361
REM
CELL 1.54180   50.00000   50.00000   50.00000   90.00000   90.00000   90.00000
LATT -1
SFAC C  
C      1  0.5641340000000  0.4423570000000  0.5571760000000 1.0
C      1  0.4474120000000  0.4720230000000  0.4888450000000 1.0
C      1  0.5585170000000  0.4576070000000  0.4173390000000 1.0
C      1  0.5265660000000  0.5827090000000  0.5573980000000 1.0
C      1  0.4468750000000  0.4063850000000  0.5322200000000 1.0
C      1  0.5274410000000  0.4798830000000  0.4882560000000 1.0
C      1  0.5017670000000  0.6292160000000  0.5255020000000 1.0
C      1  0.4902550000000  0.4044860000000  0.5136180000000 1.0
C      1  0.4940680000000  0.5461410000000  0.4768530000000 1.0
C      1  0.3883360000000  0.5474500000000  0.5162030000000 1.0
C      1  0.5339940000000  0.5633100000000  0.6027710000000 1.0
C      1  0.4125490000000  0.5029450000000  0.3910980000000 1.0
C      1  0.4804620000000  0.6135880000000  0.4715790000000 1.0
C      1  0.4595050000000  0.4653640000000  0.5989260000000 1.0
C      1  0.5582490000000  0.4589110000000  0.4642640000000 1.0
C      1  0.4739970000000  0.4603310000000  0.5265430000000 1.0
C      1  0.4865720000000  0.5597550000000  0.5441380000000 1.0
C      1  0.5523950000000  0.5034080000000  0.4491240000000 1.0
C      1  0.5699200000000  0.4553230000000  0.5106640000000 1.0
C      1  0.4931530000000  0.5208800000000  0.5824100000000 1.0
C      1  0.6021090000000  0.5349990000000  0.5063220000000 1.0
C      1  0.4677210000000  0.3797360000000  0.4657620000000 1.0
C      1  0.4649070000000  0.6110330000000  0.5586450000000 1.0
C      1  0.4457870000000  0.5101880000000  0.5634140000000 1.0
C      1  0.4724830000000  0.3879360000000  0.4390770000000 1.0
C      1  0.5273980000000  0.3683200000000  0.4465920000000 1.0
C      1  0.5514460000000  0.4707730000000  0.6023490000000 1.0
C      1  0.5252550000000  0.4423890000000  0.5806100000000 1.0
C      1  0.4218080000000  0.5061270000000  0.4518400000000 1.0
C      1  0.4731860000000  0.4774050000000  0.5018220000000 1.0
C      1  0.4819060000000  0.5327300000000  0.4254150000000 1.0
C      1  0.4628280000000  0.5138980000000  0.5405620000000 1.0
C      1  0.5154580000000  0.4801630000000  0.4075240000000 1.0
C      1  0.6004340000000  0.5245210000000  0.5327520000000 1.0
C      1  0.4265790000000  0.4571290000000  0.4080810000000 1.0
C      1  0.4553880000000  0.5897920000000  0.3881540000000 1.0
C      1  0.3749230000000  0.5692600000000  0.5113630000000 1.0
C      1  0.5421280000000  0.5504640000000  0.4104550000000 1.0
C      1  0.5271790000000  0.5549230000000  0.4357160000000 1.0
C      1  0.5065550000000  0.6146320000000  0.4614260000000 1.0
C      1  0.5354880000000  0.5646310000000  0.5014640000000 1.0
C      1  0.4535940000000  0.5664830000000  0.6076230000000 1.0
C      1  0.5288650000000  0.4552030000000  0.4097770000000 1.0
C      1  0.4923330000000  0.4123430000000  0.5922640000000 1.0
C      1  0.5046190000000  0.4614380000000  0.6154880000000 1.0
C      1  0.5190920000000  0.4314510000000  0.4770270000000 1.0
C      1  0.5001080000000  0.5455410000000  0.5679600000000 1.0
C      1  0.5947050000000  0.5193620000000  0.6092110000000 1.0
C      1  0.5192420000000  0.6322090000000  0.5050860000000 1.0
C      1  0.4031790000000  0.5242810000000  0.5198580000000 1.0
C      1  0.4885150000000  0.3623100000000  0.4752140000000 1.0
C      1  0.5134730000000  0.4448250000000  0.5549850000000 1.0
C      1  0.5168360000000  0.3665860000000  0.4728310000000 1.0
C      1  0.5804600000000  0.4135850000000  0.4469160000000 1.0
C      1  0.5642160000000  0.4222640000000  0.4246990000000 1.0
C      1  0.5502580000000  0.3852520000000  0.5080910000000 1.0
C      1  0.5269370000000  0.4952820000000  0.3858460000000 1.0
C      1  0.5274240000000  0.3852750000000  0.4913750000000 1.0
C      1  0.5243810000000  0.4818910000000  0.6062290000000 1.0
C      1  0.4421270000000  0.5977740000000  0.5479790000000 1.0
C      1  0.6251720000000  0.5317020000000  0.4918740000000 1.0
C      1  0.4228290000000  0.4024860000000  0.4767330000000 1.0
C      1  0.6227030000000  0.5243160000000  0.5497850000000 1.0
C      1  0.4635190000000  0.5739580000000  0.4976030000000 1.0
C      1  0.3971460000000  0.5034690000000  0.5395940000000 1.0
C      1  0.5394580000000  0.4095110000000  0.4174960000000 1.0
C      1  0.4326480000000  0.4631740000000  0.6027000000000 1.0
C      1  0.5614570000000  0.5596410000000  0.6090990000000 1.0
C      1  0.5696880000000  0.4699980000000  0.3929040000000 1.0
C      1  0.4777690000000  0.4685930000000  0.6202830000000 1.0
C      1  0.5492290000000  0.5987130000000  0.4430490000000 1.0
C      1  0.4464910000000  0.6369980000000  0.3657830000000 1.0
C      1  0.5754700000000  0.4262040000000  0.5023670000000 1.0
C      1  0.5073940000000  0.4354910000000  0.6014760000000 1.0
C      1  0.4535060000000  0.4512360000000  0.4176440000000 1.0
C      1  0.4641980000000  0.4569830000000  0.4437860000000 1.0
C      1  0.5004110000000  0.4870280000000  0.4309700000000 1.0
C      1  0.5017220000000  0.5852480000000  0.5433930000000 1.0
C      1  0.4117380000000  0.4819190000000  0.4107330000000 1.0
C      1  0.4628850000000  0.5195310000000  0.5861450000000 1.0
C      1  0.4150800000000  0.3969800000000  0.4507300000000 1.0
C      1  0.5677520000000  0.4642720000000  0.5388170000000 1.0
C      1  0.4793170000000  0.5040310000000  0.4946910000000 1.0
C      1  0.5695650000000  0.5797970000000  0.4319900000000 1.0
C      1  0.5062710000000  0.5738550000000  0.4317450000000 1.0
C      1  0.6880320000000  0.5098860000000  0.5787540000000 1.0
C      1  0.4223380000000  0.4956210000000  0.5527380000000 1.0
C      1  0.4723620000000  0.4624780000000  0.5739190000000 1.0
C      1  0.5601100000000  0.4909050000000  0.5494090000000 1.0
C      1  0.5643810000000  0.5303000000000  0.4438300000000 1.0
C      1  0.4837270000000  0.5614270000000  0.4195360000000 1.0
C      1  0.4294230000000  0.4861770000000  0.5055940000000 1.0
C      1  0.4915450000000  0.4657480000000  0.4490070000000 1.0
C      1  0.4608390000000  0.5657270000000  0.4008760000000 1.0
C      1  0.3825530000000  0.4797340000000  0.5282890000000 1.0
C      1  0.5001730000000  0.5177910000000  0.4701060000000 1.0
C      1  0.5532030000000  0.4862320000000  0.3782330000000 1.0
C      1  0.4938740000000  0.3950370000000  0.4222530000000 1.0
C      1  0.4051450000000  0.4288560000000  0.5384660000000 1.0
C      1  0.4133350000000  0.4365070000000  0.3952960000000 1.0
C      1  0.5710560000000  0.4179510000000  0.4739010000000 1.0
C      1  0.5704380000000  0.6087220000000  0.5671200000000 1.0
C      1  0.5202650000000  0.4289680000000  0.4062090000000 1.0
C      1  0.5782910000000  0.5822190000000  0.6073320000000 1.0
C      1  0.5524720000000  0.6161990000000  0.4666840000000 1.0
C      1  0.4026200000000  0.4153050000000  0.4931790000000 1.0
C      1  0.4934240000000  0.4192420000000  0.4066180000000 1.0
C      1  0.4623830000000  0.4007580000000  0.5095100000000 1.0
C      1  0.5197180000000  0.5209310000000  0.3777700000000 1.0
C      1  0.3746920000000  0.4625980000000  0.4840900000000 1.0
C      1  0.5148690000000  0.4989300000000  0.5382050000000 1.0
C      1  0.5199730000000  0.4855470000000  0.5151520000000 1.0
C      1  0.4501960000000  0.3941490000000  0.4842000000000 1.0
C      1  0.5233400000000  0.4213080000000  0.5421520000000 1.0
C      1  0.5101690000000  0.5594090000000  0.4955290000000 1.0
C      1  0.4887260000000  0.4572930000000  0.5509660000000 1.0
C      1  0.4442300000000  0.5066750000000  0.4343050000000 1.0
C      1  0.4888090000000  0.6105470000000  0.5423470000000 1.0
C      1  0.5221580000000  0.3878850000000  0.4271300000000 1.0
C      1  0.6618660000000  0.5134560000000  0.5766130000000 1.0
C      1  0.5184100000000  0.5984260000000  0.4404160000000 1.0
C      1  0.5803350000000  0.5481740000000  0.4945380000000 1.0
C      1  0.5829770000000  0.6019700000000  0.5898450000000 1.0
C      1  0.4899960000000  0.3998620000000  0.5674580000000 1.0
C      1  0.5301570000000  0.5439960000000  0.3864320000000 1.0
C      1  0.6172950000000  0.5140240000000  0.5962500000000 1.0
C      1  0.3915840000000  0.4517660000000  0.5295020000000 1.0
C      1  0.6343700000000  0.5172110000000  0.5742570000000 1.0
C      1  0.4893340000000  0.5072370000000  0.5424850000000 1.0
C      1  0.4933980000000  0.5883680000000  0.6222870000000 1.0
C      1  0.4614500000000  0.5573210000000  0.5232220000000 1.0
C      1  0.4466920000000  0.4539050000000  0.5352650000000 1.0
C      1  0.4395490000000  0.5725900000000  0.5383660000000 1.0
C      1  0.4467500000000  0.4574960000000  0.4655660000000 1.0
C      1  0.5275940000000  0.6243870000000  0.4793420000000 1.0
C      1  0.4522340000000  0.5401970000000  0.6025260000000 1.0
C      1  0.5638810000000  0.4070140000000  0.5206800000000 1.0
C      1  0.4696600000000  0.5897210000000  0.6072930000000 1.0
C      1  0.5692270000000  0.5506400000000  0.4217880000000 1.0
C      1  0.4705740000000  0.4346460000000  0.4022820000000 1.0
C      1  0.4032720000000  0.4901250000000  0.4372670000000 1.0
C      1  0.5104310000000  0.4089920000000  0.4932040000000 1.0
C      1  0.4561730000000  0.5264100000000  0.5150210000000 1.0
C      1  0.3692340000000  0.4823250000000  0.5025880000000 1.0
C      1  0.5086090000000  0.4585570000000  0.4726720000000 1.0
C      1  0.3988580000000  0.4067900000000  0.5206130000000 1.0
C      1  0.4657820000000  0.6008420000000  0.4901750000000 1.0
C      1  0.5518480000000  0.4192400000000  0.5433260000000 1.0
C      1  0.4673690000000  0.5559810000000  0.4757240000000 1.0
C      1  0.4260640000000  0.5241740000000  0.4733580000000 1.0
C      1  0.7137780000000  0.5063700000000  0.5808570000000 1.0
C      1  0.4948310000000  0.5133300000000  0.4407320000000 1.0
C      1  0.5559780000000  0.4699910000000  0.4902490000000 1.0
C      1  0.5772220000000  0.5121200000000  0.5423310000000 1.0
C      1  0.5734120000000  0.5347790000000  0.6132990000000 1.0
C      1  0.5485300000000  0.5994920000000  0.5549280000000 1.0
C      1  0.4421480000000  0.6602700000000  0.3548660000000 1.0
C      1  0.5551940000000  0.5549330000000  0.4845100000000 1.0
C      1  0.5332190000000  0.4978880000000  0.5598210000000 1.0
C      1  0.5169490000000  0.5757780000000  0.6213670000000 1.0
C      1  0.4309910000000  0.4766260000000  0.5328940000000 1.0
C      1  0.5236180000000  0.5610920000000  0.5763680000000 1.0
C      1  0.5528600000000  0.4495430000000  0.5828580000000 1.0
C      1  0.4447030000000  0.5409710000000  0.3978960000000 1.0
C      1  0.5598100000000  0.4755600000000  0.4417310000000 1.0
C      1  0.4337960000000  0.4296140000000  0.5409620000000 1.0
C      1  0.5465410000000  0.4325940000000  0.4679800000000 1.0
C      1  0.4509010000000  0.6133390000000  0.3768900000000 1.0
C      1  0.5288610000000  0.5044100000000  0.4705440000000 1.0
C      1  0.3900890000000  0.4413770000000  0.4925990000000 1.0
C      1  0.4278110000000  0.5169190000000  0.5026010000000 1.0
C      1  0.5173250000000  0.5016490000000  0.5855040000000 1.0
C      1  0.5009800000000  0.4037080000000  0.5406420000000 1.0
C      1  0.5453040000000  0.5473890000000  0.4589020000000 1.0
C      1  0.4671710000000  0.6090460000000  0.5868290000000 1.0
C      1  0.4570460000000  0.5233520000000  0.4167620000000 1.0
C      1  0.4228830000000  0.5276930000000  0.3856440000000 1.0
C      1  0.4432970000000  0.5456540000000  0.4662450000000 1.0
END
