TITL C-599891-72-830 0.431426306026975 125000 -280.208756909742 0 0 48 (C1) n - 1
REM
REM in /home/nfs/bkarasulu/CARBON/AIRSS/Generating-Clusters/TERSOFF/Only-C1/FIRE-HFTN
REM
REM
REM
REM
REM
REM ./C.cell (11c1c37f851c82e70ff6c80c92926a4b)
REM AIRSS Version 0.9.1 bugfix July 2018 build 013d7b7c2542+ Fri, 06 Jul 2018 19:26:36 +0100
REM compiler GCC version 9.2.1 20190827 (Red Hat 9.2.1-1)
REM options -cpp -mtune=generic -march=x86-64 -g -O0 -fpre-include=/usr/include/finclude/math-vector-fortran.h
REM seed -1427030829 -901993297 1382733901 346194052 1362340504 -2013795085 743624080 -2032969841 -1111710989 -1061390010 2088759238 -656115285 -529606378 42611788 5956988 -1004761954 -226441830 420301724 -1781218947 1091460014 -682219409 -1088075892 958196937 1476760827 -1160482509 1480123499 -1303708739 1286844021 516709026 230351147 1473666708 1999763619 769398603
REM
CELL 1.54180   50.00000   50.00000   50.00000   90.00000   90.00000   90.00000
LATT -1
SFAC C  
C      1  0.5059460000000  0.5538050000000  0.4996080000000 1.0
C      1  0.4689860000000  0.4508580000000  0.4882540000000 1.0
C      1  0.5432140000000  0.5150400000000  0.5432900000000 1.0
C      1  0.4357610000000  0.5100350000000  0.5469360000000 1.0
C      1  0.5600720000000  0.5033490000000  0.5242750000000 1.0
C      1  0.4666870000000  0.4160630000000  0.5220320000000 1.0
C      1  0.4656030000000  0.5577870000000  0.3410070000000 1.0
C      1  0.5217080000000  0.4663820000000  0.5255250000000 1.0
C      1  0.4740770000000  0.5384360000000  0.5556160000000 1.0
C      1  0.5097990000000  0.4494590000000  0.4630430000000 1.0
C      1  0.5072810000000  0.5789430000000  0.4928180000000 1.0
C      1  0.5623630000000  0.4631490000000  0.4920370000000 1.0
C      1  0.5832830000000  0.5209270000000  0.4808210000000 1.0
C      1  0.5710850000000  0.4402120000000  0.4832270000000 1.0
C      1  0.5192910000000  0.5278130000000  0.5814940000000 1.0
C      1  0.5916390000000  0.4772600000000  0.5423400000000 1.0
C      1  0.5565390000000  0.4896910000000  0.4987690000000 1.0
C      1  0.5434980000000  0.5178070000000  0.5721730000000 1.0
C      1  0.5085010000000  0.4776300000000  0.5023730000000 1.0
C      1  0.4828710000000  0.5385090000000  0.4157150000000 1.0
C      1  0.4105180000000  0.4672000000000  0.4911910000000 1.0
C      1  0.5088140000000  0.5279050000000  0.5098570000000 1.0
C      1  0.4770860000000  0.5449660000000  0.3906870000000 1.0
C      1  0.5168380000000  0.5253740000000  0.5362830000000 1.0
C      1  0.4486420000000  0.4646300000000  0.5552390000000 1.0
C      1  0.5697000000000  0.4611190000000  0.5469110000000 1.0
C      1  0.4461380000000  0.4901030000000  0.5644770000000 1.0
C      1  0.4564190000000  0.5376690000000  0.4854590000000 1.0
C      1  0.4523540000000  0.5316330000000  0.5389110000000 1.0
C      1  0.4712970000000  0.5514300000000  0.3656410000000 1.0
C      1  0.4170700000000  0.4988380000000  0.5285760000000 1.0
C      1  0.5292350000000  0.5117430000000  0.4701030000000 1.0
C      1  0.4957450000000  0.4592790000000  0.4844770000000 1.0
C      1  0.4205050000000  0.4732180000000  0.5167120000000 1.0
C      1  0.5989250000000  0.5153060000000  0.5033900000000 1.0
C      1  0.4593200000000  0.4409350000000  0.5132950000000 1.0
C      1  0.4516680000000  0.5393850000000  0.5117440000000 1.0
C      1  0.5432400000000  0.4587470000000  0.5404200000000 1.0
C      1  0.4692160000000  0.5343960000000  0.4621990000000 1.0
C      1  0.4416190000000  0.4570840000000  0.5286680000000 1.0
C      1  0.4237910000000  0.4596770000000  0.4690070000000 1.0
C      1  0.5009890000000  0.5326080000000  0.5596710000000 1.0
C      1  0.5124750000000  0.5051010000000  0.4932360000000 1.0
C      1  0.4499260000000  0.4533580000000  0.4675570000000 1.0
C      1  0.4889430000000  0.5318080000000  0.4421160000000 1.0
C      1  0.5894760000000  0.5017250000000  0.5273550000000 1.0
C      1  0.5570310000000  0.5091300000000  0.4767810000000 1.0
C      1  0.5148180000000  0.5224760000000  0.4486810000000 1.0
END
