TITL C-599891-72-1484 0.524239988997461 125000 -1007.69722915764 0 0 167 (C1) n - 1
REM
REM in /home/nfs/bkarasulu/CARBON/AIRSS/Generating-Clusters/TERSOFF/Only-C1/FIRE-HFTN
REM
REM
REM
REM
REM
REM ./C.cell (11c1c37f851c82e70ff6c80c92926a4b)
REM AIRSS Version 0.9.1 bugfix July 2018 build 013d7b7c2542+ Fri, 06 Jul 2018 19:26:36 +0100
REM compiler GCC version 9.2.1 20190827 (Red Hat 9.2.1-1)
REM options -cpp -mtune=generic -march=x86-64 -g -O0 -fpre-include=/usr/include/finclude/math-vector-fortran.h
REM seed -1239472018 1836143043 -734856522 -666784101 694790509 -439517353 -1715135306 34479783 -1028902922 -2124822751 -2060640199 1615512364 921149198 328905448 -1537854624 -881391405 -1660588873 -2032474152 1368873145 1711520384 -1476855209 1468280201 -1618085550 633556073 -665964477 1583463168 -1003010615 -1797063070 -2085089644 247646570 1697263046 266952803 281084408
REM
CELL 1.54180   50.00000   50.00000   50.00000   90.00000   90.00000   90.00000
LATT -1
SFAC C  
C      1  0.4771250000000  0.5533070000000  0.4171010000000 1.0
C      1  0.5438640000000  0.5980570000000  0.4727040000000 1.0
C      1  0.4824550000000  0.4690580000000  0.5149660000000 1.0
C      1  0.4089790000000  0.4264030000000  0.4538030000000 1.0
C      1  0.4713950000000  0.5409790000000  0.5040540000000 1.0
C      1  0.4728240000000  0.6204840000000  0.5348660000000 1.0
C      1  0.6210180000000  0.4167460000000  0.4323950000000 1.0
C      1  0.5794690000000  0.4929940000000  0.5579330000000 1.0
C      1  0.5656090000000  0.5369120000000  0.5033920000000 1.0
C      1  0.4834070000000  0.5248940000000  0.4545660000000 1.0
C      1  0.3800350000000  0.5660470000000  0.4880220000000 1.0
C      1  0.5690680000000  0.4851290000000  0.4455430000000 1.0
C      1  0.5033790000000  0.4828020000000  0.4438910000000 1.0
C      1  0.5147290000000  0.4256570000000  0.4934890000000 1.0
C      1  0.5227370000000  0.4287220000000  0.5222510000000 1.0
C      1  0.4823620000000  0.4452830000000  0.5808710000000 1.0
C      1  0.5959820000000  0.5180680000000  0.5467620000000 1.0
C      1  0.4237660000000  0.5485870000000  0.6038870000000 1.0
C      1  0.4646260000000  0.4367000000000  0.4514430000000 1.0
C      1  0.4897210000000  0.6620590000000  0.5646500000000 1.0
C      1  0.4221220000000  0.4995010000000  0.5313480000000 1.0
C      1  0.6043510000000  0.6177770000000  0.5463460000000 1.0
C      1  0.4264660000000  0.4057620000000  0.4570070000000 1.0
C      1  0.5618500000000  0.5922880000000  0.4932430000000 1.0
C      1  0.5937900000000  0.4699220000000  0.5440550000000 1.0
C      1  0.6066770000000  0.4257180000000  0.5296680000000 1.0
C      1  0.5189970000000  0.6125190000000  0.4762650000000 1.0
C      1  0.5869320000000  0.4457220000000  0.4909860000000 1.0
C      1  0.4523370000000  0.4824380000000  0.4035180000000 1.0
C      1  0.5439170000000  0.4583570000000  0.3889930000000 1.0
C      1  0.4551820000000  0.5187670000000  0.4994090000000 1.0
C      1  0.5536180000000  0.4375690000000  0.4068490000000 1.0
C      1  0.4712180000000  0.5939860000000  0.5459820000000 1.0
C      1  0.3973340000000  0.4405250000000  0.5715940000000 1.0
C      1  0.4941680000000  0.5115780000000  0.6256100000000 1.0
C      1  0.4244800000000  0.5729750000000  0.5364880000000 1.0
C      1  0.5314590000000  0.3820980000000  0.5194940000000 1.0
C      1  0.5191470000000  0.5083410000000  0.4014990000000 1.0
C      1  0.5761970000000  0.5556380000000  0.5229770000000 1.0
C      1  0.5410680000000  0.5266150000000  0.5118080000000 1.0
C      1  0.5585430000000  0.4827860000000  0.3966290000000 1.0
C      1  0.5761140000000  0.5832470000000  0.5159650000000 1.0
C      1  0.4348550000000  0.4807260000000  0.5498940000000 1.0
C      1  0.4252080000000  0.5201300000000  0.4611670000000 1.0
C      1  0.5551630000000  0.4113120000000  0.5539640000000 1.0
C      1  0.4946490000000  0.5764440000000  0.5894940000000 1.0
C      1  0.5351790000000  0.4434820000000  0.5962800000000 1.0
C      1  0.4723840000000  0.4277690000000  0.5605420000000 1.0
C      1  0.3329090000000  0.5886370000000  0.4792610000000 1.0
C      1  0.4853600000000  0.4846230000000  0.5359080000000 1.0
C      1  0.5107320000000  0.4499550000000  0.5819510000000 1.0
C      1  0.4126440000000  0.5515010000000  0.5213670000000 1.0
C      1  0.3957590000000  0.6052780000000  0.5686090000000 1.0
C      1  0.4813870000000  0.6422370000000  0.5499260000000 1.0
C      1  0.5113230000000  0.5875420000000  0.4375940000000 1.0
C      1  0.4573920000000  0.6085410000000  0.4861170000000 1.0
C      1  0.4050320000000  0.5548250000000  0.4936430000000 1.0
C      1  0.5604250000000  0.5703300000000  0.4314030000000 1.0
C      1  0.4403560000000  0.4537690000000  0.6320500000000 1.0
C      1  0.4442450000000  0.5463800000000  0.5872170000000 1.0
C      1  0.4433330000000  0.4545040000000  0.6583580000000 1.0
C      1  0.5763690000000  0.4760990000000  0.4193680000000 1.0
C      1  0.5760750000000  0.5063820000000  0.4624640000000 1.0
C      1  0.4386690000000  0.4542270000000  0.6042270000000 1.0
C      1  0.5116490000000  0.3999240000000  0.4789670000000 1.0
C      1  0.4031280000000  0.5506480000000  0.6196780000000 1.0
C      1  0.4187040000000  0.4518240000000  0.4527120000000 1.0
C      1  0.4555840000000  0.5806130000000  0.4828580000000 1.0
C      1  0.4359190000000  0.4545370000000  0.5356520000000 1.0
C      1  0.5522190000000  0.5337820000000  0.5901910000000 1.0
C      1  0.5128160000000  0.4955500000000  0.4911770000000 1.0
C      1  0.5307470000000  0.4929930000000  0.5721190000000 1.0
C      1  0.6236380000000  0.5316910000000  0.5037580000000 1.0
C      1  0.6038260000000  0.4284480000000  0.5029200000000 1.0
C      1  0.5144670000000  0.4241990000000  0.4369390000000 1.0
C      1  0.4757870000000  0.4065430000000  0.4092260000000 1.0
C      1  0.5227410000000  0.4636160000000  0.3460010000000 1.0
C      1  0.5352170000000  0.3920930000000  0.4071790000000 1.0
C      1  0.5220380000000  0.4538570000000  0.3715800000000 1.0
C      1  0.4900790000000  0.4396400000000  0.4390420000000 1.0
C      1  0.5846640000000  0.5634460000000  0.4451410000000 1.0
C      1  0.5490540000000  0.4674030000000  0.5186230000000 1.0
C      1  0.5685290000000  0.5474720000000  0.5735420000000 1.0
C      1  0.3880160000000  0.4397350000000  0.5464030000000 1.0
C      1  0.5956840000000  0.5491980000000  0.4673150000000 1.0
C      1  0.4462990000000  0.4583710000000  0.4557980000000 1.0
C      1  0.5002480000000  0.4710890000000  0.4945570000000 1.0
C      1  0.4611060000000  0.5666350000000  0.5073210000000 1.0
C      1  0.4760670000000  0.4329380000000  0.3954120000000 1.0
C      1  0.5020320000000  0.5547630000000  0.6043040000000 1.0
C      1  0.5465970000000  0.5081680000000  0.3939740000000 1.0
C      1  0.5501700000000  0.5033370000000  0.5529140000000 1.0
C      1  0.4498680000000  0.4565470000000  0.7104860000000 1.0
C      1  0.4854950000000  0.5249500000000  0.5602310000000 1.0
C      1  0.4994650000000  0.4391200000000  0.3802460000000 1.0
C      1  0.5717820000000  0.4316400000000  0.5650330000000 1.0
C      1  0.4093000000000  0.5892490000000  0.5531580000000 1.0
C      1  0.4963080000000  0.5177020000000  0.3878010000000 1.0
C      1  0.4649130000000  0.6231440000000  0.5076490000000 1.0
C      1  0.5153320000000  0.5044780000000  0.4290480000000 1.0
C      1  0.3733900000000  0.4399680000000  0.4998440000000 1.0
C      1  0.5358000000000  0.4188490000000  0.4177870000000 1.0
C      1  0.5504430000000  0.5576920000000  0.4070890000000 1.0
C      1  0.3097280000000  0.5997870000000  0.4750240000000 1.0
C      1  0.4607920000000  0.4637560000000  0.5886700000000 1.0
C      1  0.5104560000000  0.5360670000000  0.5489770000000 1.0
C      1  0.3922050000000  0.4453170000000  0.5187880000000 1.0
C      1  0.6007170000000  0.4313810000000  0.4251320000000 1.0
C      1  0.5113450000000  0.4502790000000  0.4797260000000 1.0
C      1  0.5113880000000  0.3273570000000  0.4746920000000 1.0
C      1  0.4526350000000  0.4331960000000  0.5428500000000 1.0
C      1  0.4551490000000  0.4831740000000  0.4652520000000 1.0
C      1  0.5777560000000  0.5297010000000  0.4783390000000 1.0
C      1  0.3564780000000  0.5773010000000  0.4835700000000 1.0
C      1  0.5788370000000  0.4466020000000  0.4178930000000 1.0
C      1  0.4551910000000  0.4850250000000  0.5697980000000 1.0
C      1  0.5095970000000  0.5645160000000  0.5467910000000 1.0
C      1  0.5188900000000  0.5216610000000  0.4963790000000 1.0
C      1  0.5932280000000  0.4416880000000  0.5486370000000 1.0
C      1  0.4652730000000  0.5407410000000  0.5720100000000 1.0
C      1  0.5904990000000  0.6015440000000  0.5313870000000 1.0
C      1  0.5820420000000  0.5436770000000  0.5489520000000 1.0
C      1  0.5081850000000  0.5268420000000  0.6077310000000 1.0
C      1  0.5136060000000  0.3755550000000  0.4106370000000 1.0
C      1  0.5306510000000  0.5419710000000  0.4565530000000 1.0
C      1  0.4589900000000  0.4561760000000  0.3996210000000 1.0
C      1  0.4466100000000  0.4555150000000  0.6846410000000 1.0
C      1  0.5007410000000  0.6065790000000  0.4563960000000 1.0
C      1  0.4790010000000  0.4953040000000  0.4556780000000 1.0
C      1  0.5735670000000  0.4767180000000  0.5851640000000 1.0
C      1  0.6417510000000  0.5647810000000  0.4727490000000 1.0
C      1  0.4730580000000  0.5288640000000  0.3998810000000 1.0
C      1  0.5677750000000  0.4620780000000  0.5002360000000 1.0
C      1  0.4523120000000  0.5771430000000  0.5320960000000 1.0
C      1  0.4172980000000  0.4577390000000  0.5131850000000 1.0
C      1  0.4151150000000  0.4455790000000  0.5910200000000 1.0
C      1  0.5194490000000  0.3768820000000  0.4942270000000 1.0
C      1  0.5406410000000  0.5856180000000  0.4459430000000 1.0
C      1  0.4624260000000  0.5446360000000  0.4433870000000 1.0
C      1  0.4219290000000  0.5472420000000  0.4718400000000 1.0
C      1  0.5596710000000  0.5331740000000  0.3963220000000 1.0
C      1  0.5234230000000  0.5644690000000  0.3996530000000 1.0
C      1  0.4982550000000  0.5398210000000  0.4979250000000 1.0
C      1  0.5297950000000  0.5154380000000  0.5925050000000 1.0
C      1  0.5154540000000  0.3509730000000  0.4849330000000 1.0
C      1  0.4774730000000  0.4982120000000  0.5582110000000 1.0
C      1  0.4207920000000  0.4858710000000  0.5045610000000 1.0
C      1  0.4531780000000  0.4110650000000  0.4571670000000 1.0
C      1  0.5359830000000  0.4059350000000  0.5338810000000 1.0
C      1  0.5209710000000  0.4673070000000  0.5610810000000 1.0
C      1  0.5011980000000  0.5703290000000  0.4169000000000 1.0
C      1  0.4521600000000  0.5104520000000  0.4105520000000 1.0
C      1  0.4130830000000  0.5258180000000  0.5329240000000 1.0
C      1  0.5211790000000  0.4641920000000  0.4566730000000 1.0
C      1  0.5618970000000  0.4494030000000  0.5860260000000 1.0
C      1  0.5351670000000  0.5233410000000  0.5390690000000 1.0
C      1  0.5054550000000  0.3993820000000  0.4503010000000 1.0
C      1  0.6209900000000  0.5490120000000  0.4809460000000 1.0
C      1  0.5289830000000  0.4549840000000  0.5347100000000 1.0
C      1  0.4459080000000  0.5625150000000  0.4629150000000 1.0
C      1  0.6158120000000  0.5184970000000  0.5261430000000 1.0
C      1  0.4924240000000  0.5818590000000  0.5614570000000 1.0
C      1  0.5108080000000  0.5275930000000  0.4456030000000 1.0
C      1  0.5482820000000  0.4691570000000  0.4553880000000 1.0
C      1  0.4371300000000  0.5002480000000  0.4824680000000 1.0
C      1  0.4918460000000  0.3870750000000  0.4259220000000 1.0
C      1  0.4402910000000  0.5223200000000  0.4351050000000 1.0
END
