TITL C-599896-8500-915 104371.898334739 125000 -962.633176232275 0 0 157 (C1) n - 1
REM
REM in /home/nfs/bkarasulu/CARBON/AIRSS/Generating-Clusters/TERSOFF/Only-C1/FIRE-HFTN
REM
REM
REM
REM
REM
REM ./C.cell (11c1c37f851c82e70ff6c80c92926a4b)
REM AIRSS Version 0.9.1 bugfix July 2018 build 013d7b7c2542+ Fri, 06 Jul 2018 19:26:36 +0100
REM compiler GCC version 9.2.1 20190827 (Red Hat 9.2.1-1)
REM options -cpp -mtune=generic -march=x86-64 -g -O0 -fpre-include=/usr/include/finclude/math-vector-fortran.h
REM seed -1899897380 2088671736 -1685971751 -1301330873 -1611160725 -949723424 1285485532 396318142 -2092269835 1004248057 -1367631715 -511842811 -1060639863 -2021994422 -1326653581 -1090418591 -85454353 -643802624 -543675911 1657525398 1176122471 896142423 -1231819195 -771414653 -862000397 -1066660722 1249840740 1948594742 -302994678 1482607625 2078875480 289662321 -860426309
REM
CELL 1.54180   50.00000   50.00000   50.00000   90.00000   90.00000   90.00000
LATT -1
SFAC C  
C      1  0.6017450000000  0.5029080000000  0.4819620000000 1.0
C      1  0.4794250000000  0.4086300000000  0.4545860000000 1.0
C      1  0.5221010000000  0.5289120000000  0.5510500000000 1.0
C      1  0.5626320000000  0.5009310000000  0.4187700000000 1.0
C      1  0.5988440000000  0.5738070000000  0.4568560000000 1.0
C      1  0.4406940000000  0.3929720000000  0.5136400000000 1.0
C      1  0.4431420000000  0.5501470000000  0.5588810000000 1.0
C      1  0.4041300000000  0.5703070000000  0.5145750000000 1.0
C      1  0.5216150000000  0.4894070000000  0.5737910000000 1.0
C      1  0.5397640000000  0.4095760000000  0.4943890000000 1.0
C      1  0.5136700000000  0.5177000000000  0.3974400000000 1.0
C      1  0.4939550000000  0.5366000000000  0.4710830000000 1.0
C      1  0.4432520000000  0.4255190000000  0.5463210000000 1.0
C      1  0.3742730000000  0.4307310000000  0.4320400000000 1.0
C      1  0.3297200000000  0.5088430000000  0.4942080000000 1.0
C      1  0.4919100000000  0.5173210000000  0.4919490000000 1.0
C      1  0.5696610000000  0.5365020000000  0.6008200000000 1.0
C      1  0.5366090000000  0.4707120000000  0.4771340000000 1.0
C      1  0.4576290000000  0.4141770000000  0.4736700000000 1.0
C      1  0.5593330000000  0.5098340000000  0.3920480000000 1.0
C      1  0.6017020000000  0.5023480000000  0.5123270000000 1.0
C      1  0.4885700000000  0.5250750000000  0.5183780000000 1.0
C      1  0.4719210000000  0.5362760000000  0.4121890000000 1.0
C      1  0.5457150000000  0.4911180000000  0.3750680000000 1.0
C      1  0.4568940000000  0.5207870000000  0.3941160000000 1.0
C      1  0.5197530000000  0.4430650000000  0.5804400000000 1.0
C      1  0.4303800000000  0.4936950000000  0.4859420000000 1.0
C      1  0.4654690000000  0.6030250000000  0.4449470000000 1.0
C      1  0.4239010000000  0.4620320000000  0.5847350000000 1.0
C      1  0.4758220000000  0.5570780000000  0.4811820000000 1.0
C      1  0.3735310000000  0.4888540000000  0.5576070000000 1.0
C      1  0.5112950000000  0.4603490000000  0.4719420000000 1.0
C      1  0.4256460000000  0.4101430000000  0.5306420000000 1.0
C      1  0.4141110000000  0.4334300000000  0.4596460000000 1.0
C      1  0.4959260000000  0.5009090000000  0.5771950000000 1.0
C      1  0.5651640000000  0.5629640000000  0.5550750000000 1.0
C      1  0.5561910000000  0.5207260000000  0.4379260000000 1.0
C      1  0.5363750000000  0.5696030000000  0.5650780000000 1.0
C      1  0.5393290000000  0.5317700000000  0.3925480000000 1.0
C      1  0.5364140000000  0.4156190000000  0.4413620000000 1.0
C      1  0.5240940000000  0.5835400000000  0.5412850000000 1.0
C      1  0.5713810000000  0.5863290000000  0.5384750000000 1.0
C      1  0.4599130000000  0.4516100000000  0.3849530000000 1.0
C      1  0.5892780000000  0.4727750000000  0.5793080000000 1.0
C      1  0.3510570000000  0.5216770000000  0.5019290000000 1.0
C      1  0.5083620000000  0.5285180000000  0.4477710000000 1.0
C      1  0.5821880000000  0.6549500000000  0.3931730000000 1.0
C      1  0.5910690000000  0.5510900000000  0.4709860000000 1.0
C      1  0.4010830000000  0.4348970000000  0.4346780000000 1.0
C      1  0.5584430000000  0.4865130000000  0.5467430000000 1.0
C      1  0.4657740000000  0.4394430000000  0.5378610000000 1.0
C      1  0.4367390000000  0.5722020000000  0.4244890000000 1.0
C      1  0.5466280000000  0.5959550000000  0.5272960000000 1.0
C      1  0.5454110000000  0.4796860000000  0.5210350000000 1.0
C      1  0.4617940000000  0.4450290000000  0.4302780000000 1.0
C      1  0.4493420000000  0.4644210000000  0.4762550000000 1.0
C      1  0.5593460000000  0.4354600000000  0.5557320000000 1.0
C      1  0.4300830000000  0.4753320000000  0.6085740000000 1.0
C      1  0.5692920000000  0.4633290000000  0.5614970000000 1.0
C      1  0.4708050000000  0.5420000000000  0.6012760000000 1.0
C      1  0.3991480000000  0.5428230000000  0.5157000000000 1.0
C      1  0.5888280000000  0.4325060000000  0.4905840000000 1.0
C      1  0.5687150000000  0.4246060000000  0.5314480000000 1.0
C      1  0.4377820000000  0.5195410000000  0.4745990000000 1.0
C      1  0.4522000000000  0.4749290000000  0.3710350000000 1.0
C      1  0.5306920000000  0.4616080000000  0.4278760000000 1.0
C      1  0.5960750000000  0.4764850000000  0.4703670000000 1.0
C      1  0.5524170000000  0.5742090000000  0.4862390000000 1.0
C      1  0.4125600000000  0.4794250000000  0.5351080000000 1.0
C      1  0.6018700000000  0.4576540000000  0.4921540000000 1.0
C      1  0.4886220000000  0.4462340000000  0.3881840000000 1.0
C      1  0.5290240000000  0.4062290000000  0.4671140000000 1.0
C      1  0.5208530000000  0.4660840000000  0.5331210000000 1.0
C      1  0.4716990000000  0.4657590000000  0.4459240000000 1.0
C      1  0.4747910000000  0.4843880000000  0.5685870000000 1.0
C      1  0.5111310000000  0.4521380000000  0.6067310000000 1.0
C      1  0.4702020000000  0.4673920000000  0.4958040000000 1.0
C      1  0.4629700000000  0.4656670000000  0.5252750000000 1.0
C      1  0.5966470000000  0.5966560000000  0.5340250000000 1.0
C      1  0.5854320000000  0.5239420000000  0.5265250000000 1.0
C      1  0.3852800000000  0.4695170000000  0.5389950000000 1.0
C      1  0.5580040000000  0.4744040000000  0.4296310000000 1.0
C      1  0.5953930000000  0.4989660000000  0.5831070000000 1.0
C      1  0.4661780000000  0.4887660000000  0.5418650000000 1.0
C      1  0.5808020000000  0.5376020000000  0.5532260000000 1.0
C      1  0.4636920000000  0.3982540000000  0.4977910000000 1.0
C      1  0.4111120000000  0.5953030000000  0.5121840000000 1.0
C      1  0.5057540000000  0.4479380000000  0.5188040000000 1.0
C      1  0.5194300000000  0.4647580000000  0.5617950000000 1.0
C      1  0.5189890000000  0.3993000000000  0.5147040000000 1.0
C      1  0.4517400000000  0.5546660000000  0.5839970000000 1.0
C      1  0.5056360000000  0.5688600000000  0.5241390000000 1.0
C      1  0.4935130000000  0.3931130000000  0.4982260000000 1.0
C      1  0.4657770000000  0.4366540000000  0.5929660000000 1.0
C      1  0.5330880000000  0.4229290000000  0.5637680000000 1.0
C      1  0.6066220000000  0.4737180000000  0.5163470000000 1.0
C      1  0.4614970000000  0.5148600000000  0.6109930000000 1.0
C      1  0.4379420000000  0.5957910000000  0.4391600000000 1.0
C      1  0.4509170000000  0.5009450000000  0.3773530000000 1.0
C      1  0.5008850000000  0.4674960000000  0.4470380000000 1.0
C      1  0.4765620000000  0.6123370000000  0.4686600000000 1.0
C      1  0.6208020000000  0.6042320000000  0.5262190000000 1.0
C      1  0.3736160000000  0.5331990000000  0.5096920000000 1.0
C      1  0.4446360000000  0.4459490000000  0.4081450000000 1.0
C      1  0.4344310000000  0.5040500000000  0.6029640000000 1.0
C      1  0.4796610000000  0.4223780000000  0.4300750000000 1.0
C      1  0.6443950000000  0.6110040000000  0.5174390000000 1.0
C      1  0.5085020000000  0.5408790000000  0.5291880000000 1.0
C      1  0.5681260000000  0.5511360000000  0.4881960000000 1.0
C      1  0.4996800000000  0.4289590000000  0.4098770000000 1.0
C      1  0.5901490000000  0.6360800000000  0.4093050000000 1.0
C      1  0.5612650000000  0.4298130000000  0.5028670000000 1.0
C      1  0.5790590000000  0.4685460000000  0.4487380000000 1.0
C      1  0.4979610000000  0.5267130000000  0.4199580000000 1.0
C      1  0.4430780000000  0.5320910000000  0.5372920000000 1.0
C      1  0.4803550000000  0.5838130000000  0.4284380000000 1.0
C      1  0.4389980000000  0.4365040000000  0.4725010000000 1.0
C      1  0.4805690000000  0.4934850000000  0.4870270000000 1.0
C      1  0.5383500000000  0.4996770000000  0.4766710000000 1.0
C      1  0.4200000000000  0.5247890000000  0.5221610000000 1.0
C      1  0.4175780000000  0.4409960000000  0.4125880000000 1.0
C      1  0.4942860000000  0.6022560000000  0.4878880000000 1.0
C      1  0.5467040000000  0.5494290000000  0.6070670000000 1.0
C      1  0.4195200000000  0.4967970000000  0.5131990000000 1.0
C      1  0.4891980000000  0.5763530000000  0.4997590000000 1.0
C      1  0.6002530000000  0.5954580000000  0.4416500000000 1.0
C      1  0.4923130000000  0.4292320000000  0.5361950000000 1.0
C      1  0.4634190000000  0.5620640000000  0.4187750000000 1.0
C      1  0.4807780000000  0.4947320000000  0.6212800000000 1.0
C      1  0.3832190000000  0.4418340000000  0.5333580000000 1.0
C      1  0.3871310000000  0.5076570000000  0.5732860000000 1.0
C      1  0.5173450000000  0.4920330000000  0.3818030000000 1.0
C      1  0.5510640000000  0.4589280000000  0.4991610000000 1.0
C      1  0.5014840000000  0.3978300000000  0.4694700000000 1.0
C      1  0.5638820000000  0.5294050000000  0.5070160000000 1.0
C      1  0.5041350000000  0.4678630000000  0.3791760000000 1.0
C      1  0.5465630000000  0.5067580000000  0.5032200000000 1.0
C      1  0.5148360000000  0.4110390000000  0.5420830000000 1.0
C      1  0.5261900000000  0.4338120000000  0.4215810000000 1.0
C      1  0.5256740000000  0.5603280000000  0.5910050000000 1.0
C      1  0.5846140000000  0.5249120000000  0.5793550000000 1.0
C      1  0.4159750000000  0.5065070000000  0.5782810000000 1.0
C      1  0.4975480000000  0.4727280000000  0.6196260000000 1.0
C      1  0.5341590000000  0.5175050000000  0.4549350000000 1.0
C      1  0.6047060000000  0.5269420000000  0.4685040000000 1.0
C      1  0.5431690000000  0.5972150000000  0.4992860000000 1.0
C      1  0.5400080000000  0.5064070000000  0.5588240000000 1.0
C      1  0.4988510000000  0.5472800000000  0.5923160000000 1.0
C      1  0.4494700000000  0.5444280000000  0.4778850000000 1.0
C      1  0.4692300000000  0.4600720000000  0.5816200000000 1.0
C      1  0.5013630000000  0.5277680000000  0.5717580000000 1.0
C      1  0.3990830000000  0.4201440000000  0.5292830000000 1.0
C      1  0.5968230000000  0.6163070000000  0.4256510000000 1.0
C      1  0.4226710000000  0.4809860000000  0.5624700000000 1.0
C      1  0.4954020000000  0.4521550000000  0.4934300000000 1.0
C      1  0.5209310000000  0.6111930000000  0.4894560000000 1.0
C      1  0.4660220000000  0.5157440000000  0.5327070000000 1.0
END
