TITL C-599897-7526-1172 73.5277220735122 125000 -372.528038585261 0 0 63 (C1) n - 1
REM
REM in /home/nfs/bkarasulu/CARBON/AIRSS/Generating-Clusters/TERSOFF/Only-C1/FIRE-HFTN
REM
REM
REM
REM
REM
REM ./C.cell (11c1c37f851c82e70ff6c80c92926a4b)
REM AIRSS Version 0.9.1 bugfix July 2018 build 013d7b7c2542+ Fri, 06 Jul 2018 19:26:36 +0100
REM compiler GCC version 9.2.1 20190827 (Red Hat 9.2.1-1)
REM options -cpp -mtune=generic -march=x86-64 -g -O0 -fpre-include=/usr/include/finclude/math-vector-fortran.h
REM seed -827221880 1659036912 -1566901820 583567241 -1646241112 -570912417 -1956890441 -619495876 446836047 593811522 808728152 176094499 -925195585 -260009525 -1191123834 -592215558 1587503766 -785268909 2050151955 -1477799149 1149774516 -718577818 107836078 -1750667534 -884334401 -1676499378 -764583996 -1468406935 -1080744385 -1373987100 -533993097 -1393352317 -288149132
REM
CELL 1.54180   50.00000   50.00000   50.00000   90.00000   90.00000   90.00000
LATT -1
SFAC C  
C      1  0.4550530000000  0.5717130000000  0.4908560000000 1.0
C      1  0.6361630000000  0.4750380000000  0.4816860000000 1.0
C      1  0.5006430000000  0.4955620000000  0.5525030000000 1.0
C      1  0.5614030000000  0.5086680000000  0.3915050000000 1.0
C      1  0.4955510000000  0.5225690000000  0.4803800000000 1.0
C      1  0.4543460000000  0.4997190000000  0.4672760000000 1.0
C      1  0.4287370000000  0.5498400000000  0.5938540000000 1.0
C      1  0.4919770000000  0.4089920000000  0.5736450000000 1.0
C      1  0.5843890000000  0.4920870000000  0.5381990000000 1.0
C      1  0.4765690000000  0.5289620000000  0.4212180000000 1.0
C      1  0.5016900000000  0.4880310000000  0.4281560000000 1.0
C      1  0.5508220000000  0.4531970000000  0.5480470000000 1.0
C      1  0.4955500000000  0.4725470000000  0.4754030000000 1.0
C      1  0.5014250000000  0.4236040000000  0.5521950000000 1.0
C      1  0.5107980000000  0.5257510000000  0.4562000000000 1.0
C      1  0.4704100000000  0.4945670000000  0.5133780000000 1.0
C      1  0.4405540000000  0.5211670000000  0.4549320000000 1.0
C      1  0.5373670000000  0.5340790000000  0.4575740000000 1.0
C      1  0.4599560000000  0.4212920000000  0.5197510000000 1.0
C      1  0.4274670000000  0.5589510000000  0.6182370000000 1.0
C      1  0.4250340000000  0.5136440000000  0.5285910000000 1.0
C      1  0.5007750000000  0.5909310000000  0.4902270000000 1.0
C      1  0.5601000000000  0.5407160000000  0.4695500000000 1.0
C      1  0.4426360000000  0.4936410000000  0.5193510000000 1.0
C      1  0.5734580000000  0.4969510000000  0.4119980000000 1.0
C      1  0.4925750000000  0.5435510000000  0.4998590000000 1.0
C      1  0.4888890000000  0.5360820000000  0.5273670000000 1.0
C      1  0.5882860000000  0.5348350000000  0.5084700000000 1.0
C      1  0.4304240000000  0.5403270000000  0.5680390000000 1.0
C      1  0.4200870000000  0.4161770000000  0.4958830000000 1.0
C      1  0.5511890000000  0.5973110000000  0.4963050000000 1.0
C      1  0.5908610000000  0.5141810000000  0.5249640000000 1.0
C      1  0.4790720000000  0.4962930000000  0.4844090000000 1.0
C      1  0.4877320000000  0.5078780000000  0.5319690000000 1.0
C      1  0.5704180000000  0.4710280000000  0.5463480000000 1.0
C      1  0.6124880000000  0.4752240000000  0.4707930000000 1.0
C      1  0.4682870000000  0.3969010000000  0.5775270000000 1.0
C      1  0.4166150000000  0.4029940000000  0.5200490000000 1.0
C      1  0.4455640000000  0.4271970000000  0.4950990000000 1.0
C      1  0.5250740000000  0.6014010000000  0.4929970000000 1.0
C      1  0.4186510000000  0.5163650000000  0.5567870000000 1.0
C      1  0.4344770000000  0.5526360000000  0.4948720000000 1.0
C      1  0.5065980000000  0.4448900000000  0.5145670000000 1.0
C      1  0.5273460000000  0.4407980000000  0.5424590000000 1.0
C      1  0.5480100000000  0.5204470000000  0.3724920000000 1.0
C      1  0.5704200000000  0.5788230000000  0.4963800000000 1.0
C      1  0.5866440000000  0.4762500000000  0.4602790000000 1.0
C      1  0.4468490000000  0.3955580000000  0.5614200000000 1.0
C      1  0.4512210000000  0.5299350000000  0.4303520000000 1.0
C      1  0.4856170000000  0.4289950000000  0.5266650000000 1.0
C      1  0.4831190000000  0.5695020000000  0.4922970000000 1.0
C      1  0.5413040000000  0.4620380000000  0.4861380000000 1.0
C      1  0.4981440000000  0.4693650000000  0.4473140000000 1.0
C      1  0.4445040000000  0.5520650000000  0.5452920000000 1.0
C      1  0.4727890000000  0.5526900000000  0.5439330000000 1.0
C      1  0.5823000000000  0.4862190000000  0.4345450000000 1.0
C      1  0.4992060000000  0.5159780000000  0.4318490000000 1.0
C      1  0.4406580000000  0.4052640000000  0.5360720000000 1.0
C      1  0.5141090000000  0.4595190000000  0.4924940000000 1.0
C      1  0.4317070000000  0.5415230000000  0.5206440000000 1.0
C      1  0.4262670000000  0.5383490000000  0.4720000000000 1.0
C      1  0.5649280000000  0.4675180000000  0.4755190000000 1.0
C      1  0.5747000000000  0.5516700000000  0.4908410000000 1.0
END
