TITL C-599891-72-1217 -65.0384412193706 125000 -981.875903433178 0 0 159 (C1) n - 1
REM
REM in /home/nfs/bkarasulu/CARBON/AIRSS/Generating-Clusters/TERSOFF/Only-C1/FIRE-HFTN
REM
REM
REM
REM
REM
REM ./C.cell (11c1c37f851c82e70ff6c80c92926a4b)
REM AIRSS Version 0.9.1 bugfix July 2018 build 013d7b7c2542+ Fri, 06 Jul 2018 19:26:36 +0100
REM compiler GCC version 9.2.1 20190827 (Red Hat 9.2.1-1)
REM options -cpp -mtune=generic -march=x86-64 -g -O0 -fpre-include=/usr/include/finclude/math-vector-fortran.h
REM seed 1878766767 1675784507 1719476333 -1563059705 -1883321198 -1974313537 1413349256 1043681469 1391498627 2134487802 -2055545932 1824382892 345403883 773748366 1546435266 -964682415 -1731189463 -315684305 -392328625 -137525794 -1174854836 328224522 1235944173 1551004970 973826853 1213019438 286373591 -947756484 607611681 -1031605873 -1208716051 -1067303877 848640740
REM
CELL 1.54180   50.00000   50.00000   50.00000   90.00000   90.00000   90.00000
LATT -1
SFAC C  
C      1  0.4949440000000  0.3897410000000  0.5218790000000 1.0
C      1  0.5281930000000  0.4498260000000  0.5464500000000 1.0
C      1  0.4881820000000  0.5774870000000  0.4282480000000 1.0
C      1  0.5250620000000  0.5070530000000  0.5894380000000 1.0
C      1  0.4463220000000  0.3753410000000  0.4578390000000 1.0
C      1  0.5459680000000  0.6113700000000  0.4493650000000 1.0
C      1  0.4988050000000  0.5467420000000  0.4950150000000 1.0
C      1  0.6097420000000  0.4856970000000  0.4874270000000 1.0
C      1  0.5186950000000  0.4018040000000  0.5327500000000 1.0
C      1  0.5870160000000  0.5039450000000  0.4506720000000 1.0
C      1  0.5264480000000  0.5122980000000  0.6171580000000 1.0
C      1  0.5251230000000  0.5600740000000  0.4027670000000 1.0
C      1  0.5420700000000  0.4958690000000  0.4639900000000 1.0
C      1  0.5933020000000  0.5643370000000  0.5069700000000 1.0
C      1  0.4876570000000  0.3713630000000  0.4786770000000 1.0
C      1  0.5633670000000  0.5136290000000  0.4633150000000 1.0
C      1  0.4708180000000  0.4975460000000  0.6161070000000 1.0
C      1  0.5621580000000  0.5420190000000  0.4631140000000 1.0
C      1  0.5566250000000  0.4221470000000  0.4751030000000 1.0
C      1  0.4076060000000  0.4435370000000  0.5243030000000 1.0
C      1  0.4492760000000  0.4738340000000  0.4540220000000 1.0
C      1  0.5264570000000  0.6328680000000  0.5214490000000 1.0
C      1  0.5810820000000  0.4902220000000  0.5707610000000 1.0
C      1  0.4594010000000  0.3669480000000  0.4836430000000 1.0
C      1  0.5275910000000  0.5560440000000  0.5833590000000 1.0
C      1  0.3762340000000  0.5819250000000  0.4754350000000 1.0
C      1  0.4264380000000  0.4004920000000  0.4955790000000 1.0
C      1  0.5768130000000  0.4470640000000  0.5470470000000 1.0
C      1  0.4084860000000  0.5322800000000  0.5455100000000 1.0
C      1  0.5964380000000  0.5451620000000  0.4300600000000 1.0
C      1  0.4950490000000  0.3754520000000  0.4506220000000 1.0
C      1  0.5296370000000  0.4647510000000  0.5216300000000 1.0
C      1  0.4951910000000  0.3937190000000  0.4937250000000 1.0
C      1  0.4130250000000  0.4722540000000  0.5296200000000 1.0
C      1  0.5130610000000  0.4596960000000  0.4550590000000 1.0
C      1  0.4735330000000  0.4150320000000  0.5728850000000 1.0
C      1  0.4717310000000  0.5629560000000  0.4456890000000 1.0
C      1  0.5427120000000  0.4002690000000  0.5178120000000 1.0
C      1  0.4536770000000  0.4902480000000  0.5936370000000 1.0
C      1  0.5044530000000  0.4434200000000  0.4769990000000 1.0
C      1  0.4960270000000  0.5074680000000  0.5330580000000 1.0
C      1  0.6002740000000  0.5650500000000  0.4787380000000 1.0
C      1  0.4981260000000  0.5187220000000  0.4843980000000 1.0
C      1  0.5156370000000  0.4836390000000  0.5757320000000 1.0
C      1  0.5693160000000  0.5801110000000  0.5131280000000 1.0
C      1  0.4647390000000  0.4377450000000  0.5889440000000 1.0
C      1  0.4592750000000  0.4513790000000  0.5114260000000 1.0
C      1  0.5582460000000  0.6128480000000  0.4730300000000 1.0
C      1  0.5659480000000  0.6029900000000  0.4966800000000 1.0
C      1  0.3934860000000  0.4837040000000  0.4132320000000 1.0
C      1  0.5604060000000  0.4182420000000  0.5042970000000 1.0
C      1  0.5438390000000  0.5422620000000  0.3919370000000 1.0
C      1  0.4754820000000  0.5976460000000  0.4798520000000 1.0
C      1  0.4932660000000  0.4182230000000  0.4797710000000 1.0
C      1  0.4895760000000  0.4757860000000  0.6241410000000 1.0
C      1  0.4621570000000  0.5747470000000  0.4698270000000 1.0
C      1  0.4673950000000  0.3836170000000  0.5316150000000 1.0
C      1  0.5078750000000  0.5040380000000  0.5082580000000 1.0
C      1  0.5174900000000  0.5623800000000  0.4815620000000 1.0
C      1  0.5100200000000  0.4582090000000  0.6182460000000 1.0
C      1  0.3857920000000  0.5130240000000  0.5017480000000 1.0
C      1  0.4714890000000  0.5482580000000  0.6062000000000 1.0
C      1  0.4566270000000  0.5169460000000  0.4007370000000 1.0
C      1  0.5722460000000  0.5041960000000  0.4061530000000 1.0
C      1  0.5782390000000  0.4763540000000  0.4036630000000 1.0
C      1  0.5005090000000  0.5824020000000  0.5523260000000 1.0
C      1  0.4682580000000  0.3768260000000  0.4384880000000 1.0
C      1  0.4854990000000  0.4294120000000  0.5497360000000 1.0
C      1  0.3782410000000  0.5682930000000  0.4527890000000 1.0
C      1  0.4713030000000  0.4897070000000  0.4579090000000 1.0
C      1  0.4987980000000  0.4856110000000  0.4461680000000 1.0
C      1  0.4633880000000  0.5807690000000  0.5567110000000 1.0
C      1  0.4585130000000  0.5265520000000  0.5602760000000 1.0
C      1  0.4027630000000  0.4754910000000  0.4663860000000 1.0
C      1  0.5463740000000  0.5395080000000  0.5247670000000 1.0
C      1  0.4996700000000  0.5005760000000  0.4195390000000 1.0
C      1  0.4564290000000  0.3963400000000  0.5569880000000 1.0
C      1  0.5504140000000  0.5645000000000  0.5955270000000 1.0
C      1  0.5456190000000  0.5147750000000  0.4001430000000 1.0
C      1  0.4183920000000  0.5583300000000  0.5521300000000 1.0
C      1  0.3883240000000  0.4923320000000  0.4842590000000 1.0
C      1  0.4306190000000  0.5120300000000  0.3977720000000 1.0
C      1  0.5127760000000  0.4262690000000  0.5456620000000 1.0
C      1  0.4943470000000  0.6078220000000  0.4958030000000 1.0
C      1  0.5873450000000  0.5542910000000  0.4560110000000 1.0
C      1  0.3750400000000  0.5937730000000  0.4986260000000 1.0
C      1  0.5210020000000  0.3879350000000  0.4480640000000 1.0
C      1  0.5056560000000  0.5726130000000  0.5785890000000 1.0
C      1  0.5413970000000  0.4672080000000  0.4590480000000 1.0
C      1  0.4351130000000  0.4887860000000  0.5180130000000 1.0
C      1  0.6286860000000  0.5063740000000  0.4922600000000 1.0
C      1  0.4779360000000  0.5678420000000  0.5869600000000 1.0
C      1  0.4800830000000  0.4861010000000  0.5408870000000 1.0
C      1  0.4480020000000  0.3814280000000  0.5076260000000 1.0
C      1  0.3830060000000  0.4685890000000  0.3930290000000 1.0
C      1  0.4721020000000  0.5346060000000  0.4434730000000 1.0
C      1  0.6023270000000  0.5612050000000  0.4079100000000 1.0
C      1  0.5869390000000  0.4568360000000  0.4500280000000 1.0
C      1  0.5089100000000  0.5253520000000  0.5503150000000 1.0
C      1  0.6084960000000  0.5489220000000  0.5715450000000 1.0
C      1  0.5753800000000  0.4342860000000  0.5229630000000 1.0
C      1  0.4832940000000  0.5498040000000  0.5185640000000 1.0
C      1  0.5666880000000  0.4654480000000  0.5676080000000 1.0
C      1  0.6079280000000  0.5445430000000  0.5224910000000 1.0
C      1  0.5154620000000  0.5060050000000  0.4633000000000 1.0
C      1  0.4777720000000  0.5197690000000  0.4189280000000 1.0
C      1  0.4037190000000  0.4844870000000  0.5538480000000 1.0
C      1  0.5987380000000  0.4806740000000  0.4616620000000 1.0
C      1  0.5782250000000  0.5012950000000  0.5254760000000 1.0
C      1  0.4606940000000  0.4776150000000  0.5218690000000 1.0
C      1  0.5311260000000  0.6000710000000  0.4302790000000 1.0
C      1  0.5916400000000  0.4833390000000  0.5088420000000 1.0
C      1  0.3826940000000  0.5517580000000  0.4325570000000 1.0
C      1  0.4665370000000  0.4659710000000  0.5827750000000 1.0
C      1  0.5414250000000  0.4025540000000  0.4593280000000 1.0
C      1  0.5896010000000  0.5172800000000  0.4256150000000 1.0
C      1  0.4064190000000  0.5251520000000  0.5172230000000 1.0
C      1  0.3935200000000  0.4745840000000  0.4397670000000 1.0
C      1  0.5864190000000  0.4573650000000  0.4213390000000 1.0
C      1  0.5651600000000  0.5537560000000  0.3773980000000 1.0
C      1  0.5192490000000  0.4789610000000  0.3814800000000 1.0
C      1  0.5451710000000  0.5684670000000  0.5252820000000 1.0
C      1  0.4698020000000  0.5179510000000  0.4698670000000 1.0
C      1  0.5215830000000  0.4983830000000  0.4009490000000 1.0
C      1  0.5527690000000  0.5117100000000  0.5203400000000 1.0
C      1  0.4411250000000  0.5090780000000  0.5749220000000 1.0
C      1  0.5204530000000  0.5855600000000  0.5315680000000 1.0
C      1  0.4316690000000  0.5148570000000  0.5067420000000 1.0
C      1  0.4398790000000  0.5743650000000  0.5416620000000 1.0
C      1  0.6018890000000  0.5346240000000  0.5492180000000 1.0
C      1  0.4680900000000  0.5399590000000  0.5388340000000 1.0
C      1  0.5623690000000  0.4478500000000  0.4623340000000 1.0
C      1  0.5891240000000  0.5635960000000  0.3845890000000 1.0
C      1  0.4401620000000  0.5735490000000  0.5129820000000 1.0
C      1  0.6265400000000  0.5286710000000  0.5074790000000 1.0
C      1  0.4046870000000  0.5093780000000  0.4080330000000 1.0
C      1  0.4291620000000  0.4644120000000  0.4707610000000 1.0
C      1  0.5237780000000  0.5299400000000  0.5733230000000 1.0
C      1  0.5160740000000  0.4516650000000  0.5010220000000 1.0
C      1  0.5065290000000  0.5249890000000  0.6306440000000 1.0
C      1  0.4883010000000  0.4761740000000  0.5663880000000 1.0
C      1  0.4191970000000  0.4283040000000  0.5010910000000 1.0
C      1  0.3910160000000  0.5321630000000  0.4167700000000 1.0
C      1  0.4139630000000  0.4264510000000  0.5462520000000 1.0
C      1  0.4399760000000  0.4168830000000  0.5447840000000 1.0
C      1  0.5147800000000  0.6088410000000  0.5152090000000 1.0
C      1  0.4621560000000  0.4329110000000  0.5322360000000 1.0
C      1  0.5889700000000  0.5089320000000  0.5506640000000 1.0
C      1  0.4798400000000  0.5247740000000  0.6204010000000 1.0
C      1  0.5329770000000  0.4923640000000  0.5149330000000 1.0
C      1  0.4385990000000  0.4469990000000  0.4911930000000 1.0
C      1  0.5363920000000  0.4612600000000  0.5736610000000 1.0
C      1  0.4144330000000  0.5092650000000  0.5631910000000 1.0
C      1  0.4476170000000  0.5298110000000  0.4879130000000 1.0
C      1  0.5398230000000  0.5574570000000  0.4681190000000 1.0
C      1  0.5295870000000  0.4485490000000  0.6008280000000 1.0
C      1  0.5145650000000  0.5802830000000  0.4191020000000 1.0
C      1  0.4468300000000  0.5594730000000  0.4889250000000 1.0
C      1  0.4247980000000  0.3919400000000  0.4672140000000 1.0
END
