TITL C-599893-4344-1169 -4.81542936209903e-07 125000 -605.059971997409 0 0 99 (C1) n - 1
REM
REM in /home/nfs/bkarasulu/CARBON/AIRSS/Generating-Clusters/TERSOFF/Only-C1/FIRE-HFTN
REM
REM
REM
REM
REM
REM ./C.cell (11c1c37f851c82e70ff6c80c92926a4b)
REM AIRSS Version 0.9.1 bugfix July 2018 build 013d7b7c2542+ Fri, 06 Jul 2018 19:26:36 +0100
REM compiler GCC version 9.2.1 20190827 (Red Hat 9.2.1-1)
REM options -cpp -mtune=generic -march=x86-64 -g -O0 -fpre-include=/usr/include/finclude/math-vector-fortran.h
REM seed 312960458 -678759895 -1273026809 -1099210024 1900242331 -1956432705 1087926937 -2038910046 351013488 -696196477 659374324 -1756610170 -968576450 -1553359897 23896571 92058120 526335094 -351027832 1532991349 -1854023616 -1992449401 772575017 1709554532 1068834477 -2030000842 853350790 -1973857464 1291963493 913511512 -1876853936 -625389089 -2119948565 1826093454
REM
CELL 1.54180   50.00000   50.00000   50.00000   90.00000   90.00000   90.00000
LATT -1
SFAC C  
C      1  0.4865270000000  0.5130120000000  0.4974390000000 1.0
C      1  0.4707540000000  0.4693720000000  0.5881670000000 1.0
C      1  0.5562820000000  0.5145450000000  0.4428720000000 1.0
C      1  0.5573610000000  0.4932130000000  0.5206460000000 1.0
C      1  0.5654080000000  0.4406150000000  0.4710050000000 1.0
C      1  0.5717490000000  0.5057070000000  0.4208780000000 1.0
C      1  0.4699480000000  0.4775660000000  0.5446500000000 1.0
C      1  0.4478130000000  0.5388650000000  0.4822140000000 1.0
C      1  0.5359640000000  0.5896920000000  0.5475750000000 1.0
C      1  0.5566090000000  0.5616430000000  0.5106350000000 1.0
C      1  0.4796460000000  0.5445090000000  0.4232000000000 1.0
C      1  0.4834960000000  0.4486310000000  0.4109260000000 1.0
C      1  0.5068790000000  0.5550910000000  0.4221520000000 1.0
C      1  0.4285530000000  0.4597220000000  0.4895710000000 1.0
C      1  0.5687010000000  0.4634330000000  0.4868170000000 1.0
C      1  0.5843440000000  0.4570540000000  0.5111860000000 1.0
C      1  0.5380660000000  0.4942880000000  0.4524910000000 1.0
C      1  0.6019890000000  0.4801090000000  0.5133080000000 1.0
C      1  0.4839030000000  0.4977800000000  0.4019730000000 1.0
C      1  0.5711500000000  0.5471370000000  0.5580590000000 1.0
C      1  0.4133800000000  0.5042430000000  0.5386270000000 1.0
C      1  0.4497250000000  0.5157300000000  0.5804460000000 1.0
C      1  0.5224590000000  0.4677600000000  0.5710630000000 1.0
C      1  0.5461450000000  0.4222950000000  0.5111780000000 1.0
C      1  0.4281650000000  0.4650620000000  0.4415410000000 1.0
C      1  0.5430620000000  0.4506350000000  0.5697090000000 1.0
C      1  0.5123480000000  0.5699620000000  0.3993550000000 1.0
C      1  0.5568110000000  0.4989330000000  0.5464760000000 1.0
C      1  0.5653300000000  0.5459980000000  0.4850270000000 1.0
C      1  0.4786110000000  0.4643890000000  0.4895820000000 1.0
C      1  0.5035990000000  0.4218480000000  0.5424500000000 1.0
C      1  0.4380300000000  0.5654400000000  0.5209300000000 1.0
C      1  0.4551520000000  0.5437480000000  0.5828230000000 1.0
C      1  0.5524320000000  0.5410880000000  0.4558730000000 1.0
C      1  0.4900650000000  0.4962090000000  0.5439390000000 1.0
C      1  0.4382110000000  0.4927000000000  0.4397020000000 1.0
C      1  0.6005490000000  0.5056280000000  0.5027120000000 1.0
C      1  0.4546110000000  0.4256010000000  0.4681220000000 1.0
C      1  0.5670920000000  0.4373870000000  0.5258850000000 1.0
C      1  0.5016600000000  0.5419090000000  0.5333080000000 1.0
C      1  0.4509800000000  0.4790800000000  0.5255200000000 1.0
C      1  0.4712260000000  0.4989020000000  0.5921790000000 1.0
C      1  0.5506050000000  0.4842550000000  0.4954210000000 1.0
C      1  0.5295120000000  0.5530020000000  0.4406280000000 1.0
C      1  0.4160340000000  0.5241840000000  0.5186840000000 1.0
C      1  0.4709740000000  0.4200230000000  0.4935920000000 1.0
C      1  0.5030350000000  0.5688740000000  0.4786350000000 1.0
C      1  0.5174710000000  0.4183980000000  0.5178920000000 1.0
C      1  0.5006280000000  0.4182870000000  0.4925590000000 1.0
C      1  0.4021920000000  0.4800430000000  0.5283120000000 1.0
C      1  0.5422910000000  0.5361730000000  0.5985630000000 1.0
C      1  0.5475760000000  0.5873260000000  0.5219060000000 1.0
C      1  0.5161940000000  0.4505710000000  0.4575690000000 1.0
C      1  0.4877930000000  0.5177690000000  0.5255650000000 1.0
C      1  0.4951900000000  0.5145930000000  0.5999490000000 1.0
C      1  0.4765730000000  0.4310140000000  0.5461180000000 1.0
C      1  0.5036400000000  0.5616170000000  0.5840750000000 1.0
C      1  0.4342500000000  0.4474670000000  0.4646520000000 1.0
C      1  0.4123090000000  0.4552590000000  0.4212840000000 1.0
C      1  0.4605580000000  0.5692100000000  0.5345660000000 1.0
C      1  0.4752660000000  0.4251660000000  0.4209800000000 1.0
C      1  0.4554360000000  0.5554000000000  0.4370450000000 1.0
C      1  0.4712780000000  0.4552520000000  0.5621910000000 1.0
C      1  0.5344970000000  0.4672130000000  0.4421220000000 1.0
C      1  0.4856800000000  0.4754780000000  0.4188250000000 1.0
C      1  0.4992620000000  0.5906570000000  0.5215830000000 1.0
C      1  0.5283070000000  0.5355340000000  0.5415860000000 1.0
C      1  0.4645530000000  0.4152650000000  0.4435180000000 1.0
C      1  0.4529910000000  0.4686350000000  0.5004840000000 1.0
C      1  0.4403420000000  0.5142280000000  0.4196460000000 1.0
C      1  0.5874690000000  0.5269010000000  0.4914720000000 1.0
C      1  0.4882540000000  0.5672870000000  0.5307900000000 1.0
C      1  0.4617060000000  0.4233570000000  0.5215470000000 1.0
C      1  0.4824770000000  0.4816710000000  0.4466980000000 1.0
C      1  0.4312000000000  0.5433260000000  0.5050690000000 1.0
C      1  0.5329330000000  0.5106050000000  0.5549870000000 1.0
C      1  0.5199420000000  0.4260380000000  0.4716860000000 1.0
C      1  0.4322600000000  0.5408980000000  0.4275890000000 1.0
C      1  0.5156700000000  0.5455740000000  0.4824950000000 1.0
C      1  0.4778550000000  0.5766250000000  0.4735370000000 1.0
C      1  0.5467260000000  0.4225140000000  0.4816220000000 1.0
C      1  0.5543720000000  0.5457470000000  0.5349220000000 1.0
C      1  0.4611140000000  0.4976410000000  0.4568460000000 1.0
C      1  0.5139410000000  0.5370050000000  0.5963810000000 1.0
C      1  0.4751670000000  0.5619290000000  0.5839400000000 1.0
C      1  0.5208650000000  0.5798690000000  0.5687450000000 1.0
C      1  0.4932480000000  0.4646930000000  0.4658380000000 1.0
C      1  0.5316370000000  0.4979060000000  0.4796890000000 1.0
C      1  0.5619770000000  0.4406720000000  0.5535110000000 1.0
C      1  0.5684440000000  0.4808780000000  0.4099850000000 1.0
C      1  0.5507540000000  0.4623260000000  0.4194110000000 1.0
C      1  0.4636170000000  0.5148450000000  0.4797590000000 1.0
C      1  0.5121260000000  0.5177730000000  0.4857010000000 1.0
C      1  0.4281420000000  0.5073430000000  0.5632640000000 1.0
C      1  0.4061670000000  0.4647940000000  0.5060930000000 1.0
C      1  0.5642860000000  0.5423630000000  0.5839790000000 1.0
C      1  0.4566650000000  0.5603530000000  0.4648870000000 1.0
C      1  0.5130900000000  0.4916910000000  0.5593750000000 1.0
C      1  0.4686720000000  0.5199520000000  0.4100210000000 1.0
END
