TITL C-599890-3321-290 0.597926483900017 125000 -520.349618031192 0 0 86 (C1) n - 1
REM
REM in /home/nfs/bkarasulu/CARBON/AIRSS/Generating-Clusters/TERSOFF/Only-C1/FIRE-HFTN
REM
REM
REM
REM
REM
REM ./C.cell (11c1c37f851c82e70ff6c80c92926a4b)
REM AIRSS Version 0.9.1 bugfix July 2018 build 013d7b7c2542+ Fri, 06 Jul 2018 19:26:36 +0100
REM compiler GCC version 9.2.1 20190827 (Red Hat 9.2.1-1)
REM options -cpp -mtune=generic -march=x86-64 -g -O0 -fpre-include=/usr/include/finclude/math-vector-fortran.h
REM seed 310807555 -415369558 175769257 776291251 -68365123 -1568295901 114323180 1816652272 980673145 -1857407870 -321781680 1463769799 365271962 1791156361 302728266 2034758039 1272573101 1046182139 -1489806505 1366373435 2038022956 1358731012 -792003509 1598878562 1027656843 162401465 177641016 427642719 1353188030 729940356 1607181512 1551603696 1581149380
REM
CELL 1.54180   50.00000   50.00000   50.00000   90.00000   90.00000   90.00000
LATT -1
SFAC C  
C      1  0.5599670000000  0.4988190000000  0.5720950000000 1.0
C      1  0.5627550000000  0.5364110000000  0.4737220000000 1.0
C      1  0.4934000000000  0.4846110000000  0.4699170000000 1.0
C      1  0.4503740000000  0.4162880000000  0.5303980000000 1.0
C      1  0.5410430000000  0.4043140000000  0.5635910000000 1.0
C      1  0.4723910000000  0.5230020000000  0.5397230000000 1.0
C      1  0.4460590000000  0.5393880000000  0.4828950000000 1.0
C      1  0.5628160000000  0.4467810000000  0.5738220000000 1.0
C      1  0.5094260000000  0.6114700000000  0.5423430000000 1.0
C      1  0.4830560000000  0.4343700000000  0.5634480000000 1.0
C      1  0.5153490000000  0.3973540000000  0.5621700000000 1.0
C      1  0.4562910000000  0.4376060000000  0.5748790000000 1.0
C      1  0.5687470000000  0.5151820000000  0.4914330000000 1.0
C      1  0.4601600000000  0.5530830000000  0.4647760000000 1.0
C      1  0.4903720000000  0.4075370000000  0.5556470000000 1.0
C      1  0.4627580000000  0.5054120000000  0.3792560000000 1.0
C      1  0.5668560000000  0.4278250000000  0.5293010000000 1.0
C      1  0.4772010000000  0.4398730000000  0.4904000000000 1.0
C      1  0.5370900000000  0.5444690000000  0.4646770000000 1.0
C      1  0.4712820000000  0.3973970000000  0.5368900000000 1.0
C      1  0.4818840000000  0.5644580000000  0.4506850000000 1.0
C      1  0.5453990000000  0.4730600000000  0.4988550000000 1.0
C      1  0.5323690000000  0.5807130000000  0.6069620000000 1.0
C      1  0.4865040000000  0.5008950000000  0.5991550000000 1.0
C      1  0.4938050000000  0.6047870000000  0.4758540000000 1.0
C      1  0.4591310000000  0.4377050000000  0.5129870000000 1.0
C      1  0.4947090000000  0.5286860000000  0.4167090000000 1.0
C      1  0.5548690000000  0.5356750000000  0.5364410000000 1.0
C      1  0.5653080000000  0.5634650000000  0.5424800000000 1.0
C      1  0.4510780000000  0.5426440000000  0.3423270000000 1.0
C      1  0.4620950000000  0.5989470000000  0.5360170000000 1.0
C      1  0.5095690000000  0.5137780000000  0.4365750000000 1.0
C      1  0.5741690000000  0.4779600000000  0.4602930000000 1.0
C      1  0.5874430000000  0.4466570000000  0.5247210000000 1.0
C      1  0.5276100000000  0.5663700000000  0.5041440000000 1.0
C      1  0.4802630000000  0.4834510000000  0.4179930000000 1.0
C      1  0.3910920000000  0.4346090000000  0.3040010000000 1.0
C      1  0.5103400000000  0.4947470000000  0.5493340000000 1.0
C      1  0.5010080000000  0.4247140000000  0.4892690000000 1.0
C      1  0.4384790000000  0.5351150000000  0.5097420000000 1.0
C      1  0.4980050000000  0.5143590000000  0.5341440000000 1.0
C      1  0.4675540000000  0.4819160000000  0.5994690000000 1.0
C      1  0.5557100000000  0.5881000000000  0.5469110000000 1.0
C      1  0.4738940000000  0.4646840000000  0.4761690000000 1.0
C      1  0.5258580000000  0.4172370000000  0.4962460000000 1.0
C      1  0.5632400000000  0.4730820000000  0.5781150000000 1.0
C      1  0.4422700000000  0.5812040000000  0.5338250000000 1.0
C      1  0.4544390000000  0.4594820000000  0.5924580000000 1.0
C      1  0.4234910000000  0.4756140000000  0.4592660000000 1.0
C      1  0.5297930000000  0.4649510000000  0.5189500000000 1.0
C      1  0.4534720000000  0.4778050000000  0.3789660000000 1.0
C      1  0.5960710000000  0.4718140000000  0.5283530000000 1.0
C      1  0.4877020000000  0.4552550000000  0.5445710000000 1.0
C      1  0.4966230000000  0.4878660000000  0.4408290000000 1.0
C      1  0.4789920000000  0.5093400000000  0.4025120000000 1.0
C      1  0.4881120000000  0.6160420000000  0.4993780000000 1.0
C      1  0.4317240000000  0.5585930000000  0.5241510000000 1.0
C      1  0.4568090000000  0.5246000000000  0.3602340000000 1.0
C      1  0.4859640000000  0.6106450000000  0.5269150000000 1.0
C      1  0.5116810000000  0.4686590000000  0.5399590000000 1.0
C      1  0.4872740000000  0.5544960000000  0.4247370000000 1.0
C      1  0.5494840000000  0.4180710000000  0.5090950000000 1.0
C      1  0.5276910000000  0.5332890000000  0.5821590000000 1.0
C      1  0.4499770000000  0.5139670000000  0.5251760000000 1.0
C      1  0.4380010000000  0.4258980000000  0.5555050000000 1.0
C      1  0.4218560000000  0.4553120000000  0.3412740000000 1.0
C      1  0.5308270000000  0.5413520000000  0.5171940000000 1.0
C      1  0.5071450000000  0.5084450000000  0.4839150000000 1.0
C      1  0.5912700000000  0.4982160000000  0.5300130000000 1.0
C      1  0.4644880000000  0.4653300000000  0.4025630000000 1.0
C      1  0.5307080000000  0.5591080000000  0.5924660000000 1.0
C      1  0.5472770000000  0.5226450000000  0.5636230000000 1.0
C      1  0.5192360000000  0.5231190000000  0.4610940000000 1.0
C      1  0.5740390000000  0.5182090000000  0.5196830000000 1.0
C      1  0.5586650000000  0.4248920000000  0.5566640000000 1.0
C      1  0.4640870000000  0.4621180000000  0.5285090000000 1.0
C      1  0.4477450000000  0.4698550000000  0.4668660000000 1.0
C      1  0.5346650000000  0.6045620000000  0.5476220000000 1.0
C      1  0.5012610000000  0.5799810000000  0.4650100000000 1.0
C      1  0.4063460000000  0.4448740000000  0.3224830000000 1.0
C      1  0.5245330000000  0.5674820000000  0.4759930000000 1.0
C      1  0.5069130000000  0.5171680000000  0.5930000000000 1.0
C      1  0.5114650000000  0.5208620000000  0.5102080000000 1.0
C      1  0.4488610000000  0.4856710000000  0.5248790000000 1.0
C      1  0.4373510000000  0.4658640000000  0.3599850000000 1.0
C      1  0.5629130000000  0.4883370000000  0.4829360000000 1.0
END
