TITL C-599890-3321-1019 75.3111857481976 125000 -1004.51676104105 0 0 163 (C1) n - 1
REM
REM in /home/nfs/bkarasulu/CARBON/AIRSS/Generating-Clusters/TERSOFF/Only-C1/FIRE-HFTN
REM
REM
REM
REM
REM
REM ./C.cell (11c1c37f851c82e70ff6c80c92926a4b)
REM AIRSS Version 0.9.1 bugfix July 2018 build 013d7b7c2542+ Fri, 06 Jul 2018 19:26:36 +0100
REM compiler GCC version 9.2.1 20190827 (Red Hat 9.2.1-1)
REM options -cpp -mtune=generic -march=x86-64 -g -O0 -fpre-include=/usr/include/finclude/math-vector-fortran.h
REM seed 885578025 469131998 1649945396 -1012123908 1838854693 -613246369 -1266802317 -1280665748 890732981 -1046050062 1117488849 -980640639 999100574 -24875032 1633262975 -1449484596 -1599106169 954901217 1213270295 1111429463 724630634 -326758363 950235911 1394259924 -144967458 468482447 -1940640612 1394152384 504949294 51232966 -1091490041 1713331162 1523585451
REM
CELL 1.54180   50.00000   50.00000   50.00000   90.00000   90.00000   90.00000
LATT -1
SFAC C  
C      1  0.4839490000000  0.5014190000000  0.5563730000000 1.0
C      1  0.4880040000000  0.4410370000000  0.5754420000000 1.0
C      1  0.4614700000000  0.4992490000000  0.5372010000000 1.0
C      1  0.4346790000000  0.5461400000000  0.5075780000000 1.0
C      1  0.5587440000000  0.4376500000000  0.5524470000000 1.0
C      1  0.5282750000000  0.5473300000000  0.5010860000000 1.0
C      1  0.5118440000000  0.5128600000000  0.6206730000000 1.0
C      1  0.4082520000000  0.5024340000000  0.5685740000000 1.0
C      1  0.5445310000000  0.4976220000000  0.4474100000000 1.0
C      1  0.5929060000000  0.5269660000000  0.4598530000000 1.0
C      1  0.5960230000000  0.5745170000000  0.4709310000000 1.0
C      1  0.5040040000000  0.5497020000000  0.5455840000000 1.0
C      1  0.5406970000000  0.4577510000000  0.5421060000000 1.0
C      1  0.4425520000000  0.4576220000000  0.5250500000000 1.0
C      1  0.4912220000000  0.4614390000000  0.5325070000000 1.0
C      1  0.6444300000000  0.4838370000000  0.5422260000000 1.0
C      1  0.5492470000000  0.4413570000000  0.4580460000000 1.0
C      1  0.4583830000000  0.4758080000000  0.3992440000000 1.0
C      1  0.5630380000000  0.5907530000000  0.5061930000000 1.0
C      1  0.4827590000000  0.4729190000000  0.4548950000000 1.0
C      1  0.5876840000000  0.4984710000000  0.4371690000000 1.0
C      1  0.5269620000000  0.3962100000000  0.4651390000000 1.0
C      1  0.5506060000000  0.5845700000000  0.4563160000000 1.0
C      1  0.4500490000000  0.3942690000000  0.5466590000000 1.0
C      1  0.4939550000000  0.4313480000000  0.5013820000000 1.0
C      1  0.5695400000000  0.4837290000000  0.4540890000000 1.0
C      1  0.4402450000000  0.4804880000000  0.5409610000000 1.0
C      1  0.4345690000000  0.5385240000000  0.5785270000000 1.0
C      1  0.4709750000000  0.4988880000000  0.5104780000000 1.0
C      1  0.4750500000000  0.5137630000000  0.4866810000000 1.0
C      1  0.3933360000000  0.4767550000000  0.4862800000000 1.0
C      1  0.4703520000000  0.4417670000000  0.4886200000000 1.0
C      1  0.5842640000000  0.4242610000000  0.5118500000000 1.0
C      1  0.4126750000000  0.4204460000000  0.4516030000000 1.0
C      1  0.5837020000000  0.5063670000000  0.5327910000000 1.0
C      1  0.5044480000000  0.5967190000000  0.4443040000000 1.0
C      1  0.4723660000000  0.5500510000000  0.4034650000000 1.0
C      1  0.5730190000000  0.4556580000000  0.4555750000000 1.0
C      1  0.5535670000000  0.5700110000000  0.4317340000000 1.0
C      1  0.6153410000000  0.5448550000000  0.5029730000000 1.0
C      1  0.5083490000000  0.4057010000000  0.4442190000000 1.0
C      1  0.5533280000000  0.5591650000000  0.5444330000000 1.0
C      1  0.4488230000000  0.4586700000000  0.4977360000000 1.0
C      1  0.4493850000000  0.4898060000000  0.5917060000000 1.0
C      1  0.4196590000000  0.5400990000000  0.4842430000000 1.0
C      1  0.5139780000000  0.5004440000000  0.5176450000000 1.0
C      1  0.5387710000000  0.4394070000000  0.4108410000000 1.0
C      1  0.5281370000000  0.5535970000000  0.5311800000000 1.0
C      1  0.4249630000000  0.5094220000000  0.4066510000000 1.0
C      1  0.4841620000000  0.4823240000000  0.3966960000000 1.0
C      1  0.4752680000000  0.4972120000000  0.5828360000000 1.0
C      1  0.3938130000000  0.5496320000000  0.4834460000000 1.0
C      1  0.4720930000000  0.4473070000000  0.4607720000000 1.0
C      1  0.4248440000000  0.4640310000000  0.4340630000000 1.0
C      1  0.5517650000000  0.4203970000000  0.5731510000000 1.0
C      1  0.5258440000000  0.3819590000000  0.5112470000000 1.0
C      1  0.3894990000000  0.5216670000000  0.4314330000000 1.0
C      1  0.4332130000000  0.4344040000000  0.5372970000000 1.0
C      1  0.4402530000000  0.4789990000000  0.4776290000000 1.0
C      1  0.3936820000000  0.4755040000000  0.5325830000000 1.0
C      1  0.5102380000000  0.4686540000000  0.4500710000000 1.0
C      1  0.5128250000000  0.4998780000000  0.5463930000000 1.0
C      1  0.4527020000000  0.5148180000000  0.4462310000000 1.0
C      1  0.4591820000000  0.4381470000000  0.5795430000000 1.0
C      1  0.5566950000000  0.5363590000000  0.4956890000000 1.0
C      1  0.4276560000000  0.5507890000000  0.4378380000000 1.0
C      1  0.4194850000000  0.5731070000000  0.5431040000000 1.0
C      1  0.5253880000000  0.4791400000000  0.5862560000000 1.0
C      1  0.4624960000000  0.5513360000000  0.5119930000000 1.0
C      1  0.4770890000000  0.5556160000000  0.5365100000000 1.0
C      1  0.4395390000000  0.3934340000000  0.5183730000000 1.0
C      1  0.5413330000000  0.3934120000000  0.4903670000000 1.0
C      1  0.4624600000000  0.6044460000000  0.5332720000000 1.0
C      1  0.4532830000000  0.3858460000000  0.4944480000000 1.0
C      1  0.5837470000000  0.4705320000000  0.5030000000000 1.0
C      1  0.4462990000000  0.4609070000000  0.5922550000000 1.0
C      1  0.6023390000000  0.4585770000000  0.5436550000000 1.0
C      1  0.4934340000000  0.4809060000000  0.5125020000000 1.0
C      1  0.4846210000000  0.5427100000000  0.5929900000000 1.0
C      1  0.5844840000000  0.4352750000000  0.5395750000000 1.0
C      1  0.3870630000000  0.5048750000000  0.5260520000000 1.0
C      1  0.4126810000000  0.5333700000000  0.4189340000000 1.0
C      1  0.4851790000000  0.6052510000000  0.5153470000000 1.0
C      1  0.5286270000000  0.5062150000000  0.5982410000000 1.0
C      1  0.5735790000000  0.5720410000000  0.5268330000000 1.0
C      1  0.5560630000000  0.4734940000000  0.4999030000000 1.0
C      1  0.4598840000000  0.5515750000000  0.5814790000000 1.0
C      1  0.4912010000000  0.5306090000000  0.6178080000000 1.0
C      1  0.5132900000000  0.5213360000000  0.4997440000000 1.0
C      1  0.4955090000000  0.4177100000000  0.5271450000000 1.0
C      1  0.5065630000000  0.5420420000000  0.5734430000000 1.0
C      1  0.4141670000000  0.4799080000000  0.5523990000000 1.0
C      1  0.4732960000000  0.5424530000000  0.4870380000000 1.0
C      1  0.5460530000000  0.4023350000000  0.5910480000000 1.0
C      1  0.5182730000000  0.5637720000000  0.3799380000000 1.0
C      1  0.4120970000000  0.4788790000000  0.4612100000000 1.0
C      1  0.5494620000000  0.4674680000000  0.4120910000000 1.0
C      1  0.4780010000000  0.4041640000000  0.4490810000000 1.0
C      1  0.5124590000000  0.5446840000000  0.4244810000000 1.0
C      1  0.5163620000000  0.5742360000000  0.4886980000000 1.0
C      1  0.4738370000000  0.5553890000000  0.4616400000000 1.0
C      1  0.5302920000000  0.4799670000000  0.5580370000000 1.0
C      1  0.6166620000000  0.4326970000000  0.4522270000000 1.0
C      1  0.5706320000000  0.5864410000000  0.4774570000000 1.0
C      1  0.6074820000000  0.5481200000000  0.4749610000000 1.0
C      1  0.5523350000000  0.5519600000000  0.5729810000000 1.0
C      1  0.4938740000000  0.4375920000000  0.5476210000000 1.0
C      1  0.4645110000000  0.4952110000000  0.4647930000000 1.0
C      1  0.3935220000000  0.4990210000000  0.4457110000000 1.0
C      1  0.5569540000000  0.5806250000000  0.4058450000000 1.0
C      1  0.5657150000000  0.5314420000000  0.4694560000000 1.0
C      1  0.5770990000000  0.4863520000000  0.4107830000000 1.0
C      1  0.4205470000000  0.4164390000000  0.5184620000000 1.0
C      1  0.5242330000000  0.4501840000000  0.4670890000000 1.0
C      1  0.5926250000000  0.4804520000000  0.5277580000000 1.0
C      1  0.4656850000000  0.5756600000000  0.4180850000000 1.0
C      1  0.5268770000000  0.4825150000000  0.4289390000000 1.0
C      1  0.4860780000000  0.5947100000000  0.4244080000000 1.0
C      1  0.5660390000000  0.4053960000000  0.4997020000000 1.0
C      1  0.6444990000000  0.5063300000000  0.5274350000000 1.0
C      1  0.4349010000000  0.5933520000000  0.5317200000000 1.0
C      1  0.3836020000000  0.5024250000000  0.4973830000000 1.0
C      1  0.6341390000000  0.5262500000000  0.5127210000000 1.0
C      1  0.4517710000000  0.5672820000000  0.4422810000000 1.0
C      1  0.5414520000000  0.5770970000000  0.3839470000000 1.0
C      1  0.5215100000000  0.4207370000000  0.4222460000000 1.0
C      1  0.5074410000000  0.4899180000000  0.4074740000000 1.0
C      1  0.5465880000000  0.5251010000000  0.4502240000000 1.0
C      1  0.5962470000000  0.4435480000000  0.4663360000000 1.0
C      1  0.4464750000000  0.4209440000000  0.5592550000000 1.0
C      1  0.5532490000000  0.5744830000000  0.5903330000000 1.0
C      1  0.5994650000000  0.5605900000000  0.5215550000000 1.0
C      1  0.4697740000000  0.5282970000000  0.4256730000000 1.0
C      1  0.5940240000000  0.4450870000000  0.4942950000000 1.0
C      1  0.4317100000000  0.5314700000000  0.4595370000000 1.0
C      1  0.5389350000000  0.5451830000000  0.4326720000000 1.0
C      1  0.5114690000000  0.5961970000000  0.5080720000000 1.0
C      1  0.4016190000000  0.4298660000000  0.5018620000000 1.0
C      1  0.5367640000000  0.5952250000000  0.5948400000000 1.0
C      1  0.5367110000000  0.4576630000000  0.5131100000000 1.0
C      1  0.4708780000000  0.5969850000000  0.5602390000000 1.0
C      1  0.4913330000000  0.5398770000000  0.4432660000000 1.0
C      1  0.4898260000000  0.6085910000000  0.5769800000000 1.0
C      1  0.5072550000000  0.3924170000000  0.5275730000000 1.0
C      1  0.5184330000000  0.4450160000000  0.4945080000000 1.0
C      1  0.5135430000000  0.6072460000000  0.5892290000000 1.0
C      1  0.4671520000000  0.3883070000000  0.4710670000000 1.0
C      1  0.5065880000000  0.4571360000000  0.5914970000000 1.0
C      1  0.4327310000000  0.4355270000000  0.4381850000000 1.0
C      1  0.3941980000000  0.4574760000000  0.5082940000000 1.0
C      1  0.4294660000000  0.5104770000000  0.5860830000000 1.0
C      1  0.4658130000000  0.5689690000000  0.5600490000000 1.0
C      1  0.4339370000000  0.4821330000000  0.4121230000000 1.0
C      1  0.5692610000000  0.5229340000000  0.5174140000000 1.0
C      1  0.3986290000000  0.5230350000000  0.5483530000000 1.0
C      1  0.6292250000000  0.4630580000000  0.5508420000000 1.0
C      1  0.3997600000000  0.4206190000000  0.4751840000000 1.0
C      1  0.5015340000000  0.5503100000000  0.3979030000000 1.0
C      1  0.4155180000000  0.5471670000000  0.5560240000000 1.0
C      1  0.5227430000000  0.5858340000000  0.4631700000000 1.0
C      1  0.5327850000000  0.5309750000000  0.5814120000000 1.0
C      1  0.5386740000000  0.6050930000000  0.5134250000000 1.0
C      1  0.4607240000000  0.4279830000000  0.4434540000000 1.0
END
