TITL C-599890-3321-278 -5.18631476676986e-05 125000 -534.555782797089 0 0 88 (C1) n - 1
REM
REM in /home/nfs/bkarasulu/CARBON/AIRSS/Generating-Clusters/TERSOFF/Only-C1/FIRE-HFTN
REM
REM
REM
REM
REM
REM ./C.cell (11c1c37f851c82e70ff6c80c92926a4b)
REM AIRSS Version 0.9.1 bugfix July 2018 build 013d7b7c2542+ Fri, 06 Jul 2018 19:26:36 +0100
REM compiler GCC version 9.2.1 20190827 (Red Hat 9.2.1-1)
REM options -cpp -mtune=generic -march=x86-64 -g -O0 -fpre-include=/usr/include/finclude/math-vector-fortran.h
REM seed 1895389107 739254807 865665186 -804254971 -1866163163 1503598861 -265593240 353445514 -1439491725 442251798 -876119940 651890197 -218190208 1497677600 -821130685 -1685595765 709028569 1476843631 463732455 -1946353500 -357003245 -1459513103 -455665958 1661025219 1646147147 -1559484885 1498283441 -1918634079 -2108746502 1128067425 1905740179 1119461116 1098869633
REM
CELL 1.54180   50.00000   50.00000   50.00000   90.00000   90.00000   90.00000
LATT -1
SFAC C  
C      1  0.5805980000000  0.5107390000000  0.5166600000000 1.0
C      1  0.4788620000000  0.5689870000000  0.5259410000000 1.0
C      1  0.4536600000000  0.4670800000000  0.4939040000000 1.0
C      1  0.4482910000000  0.4511040000000  0.5607110000000 1.0
C      1  0.4785480000000  0.4330640000000  0.4713610000000 1.0
C      1  0.5250740000000  0.5556890000000  0.5491880000000 1.0
C      1  0.4147470000000  0.4942160000000  0.4725260000000 1.0
C      1  0.4513930000000  0.4698940000000  0.4424340000000 1.0
C      1  0.5512440000000  0.5339300000000  0.4177950000000 1.0
C      1  0.4940280000000  0.4915190000000  0.4742210000000 1.0
C      1  0.5137700000000  0.4093300000000  0.4977300000000 1.0
C      1  0.4175520000000  0.4941160000000  0.5447690000000 1.0
C      1  0.5347810000000  0.4778220000000  0.4465640000000 1.0
C      1  0.4913020000000  0.5159460000000  0.4587920000000 1.0
C      1  0.4812410000000  0.4963660000000  0.5930890000000 1.0
C      1  0.5512380000000  0.4888320000000  0.5966260000000 1.0
C      1  0.5087480000000  0.4659340000000  0.4077660000000 1.0
C      1  0.4923410000000  0.4474610000000  0.5175410000000 1.0
C      1  0.4533350000000  0.5590600000000  0.4525220000000 1.0
C      1  0.4400610000000  0.5913840000000  0.5029890000000 1.0
C      1  0.4244410000000  0.5347330000000  0.4278710000000 1.0
C      1  0.5000520000000  0.4691150000000  0.5339880000000 1.0
C      1  0.4137900000000  0.5058730000000  0.4967270000000 1.0
C      1  0.4516390000000  0.5221340000000  0.5229010000000 1.0
C      1  0.5314380000000  0.4633850000000  0.4908720000000 1.0
C      1  0.5501470000000  0.5433190000000  0.5420370000000 1.0
C      1  0.4850650000000  0.4784370000000  0.4079040000000 1.0
C      1  0.5359830000000  0.4997860000000  0.5302060000000 1.0
C      1  0.4969740000000  0.4519340000000  0.6057900000000 1.0
C      1  0.5759390000000  0.4972870000000  0.4671780000000 1.0
C      1  0.4730840000000  0.4875200000000  0.4938540000000 1.0
C      1  0.5580360000000  0.4690290000000  0.5777650000000 1.0
C      1  0.4642320000000  0.4463360000000  0.4525700000000 1.0
C      1  0.5274810000000  0.4027930000000  0.4741430000000 1.0
C      1  0.4097390000000  0.5538740000000  0.4417880000000 1.0
C      1  0.5393390000000  0.5591810000000  0.4146390000000 1.0
C      1  0.4524980000000  0.5351790000000  0.4357540000000 1.0
C      1  0.5395080000000  0.5121760000000  0.6022160000000 1.0
C      1  0.5279930000000  0.4583830000000  0.4267280000000 1.0
C      1  0.4238160000000  0.5841340000000  0.4828370000000 1.0
C      1  0.4271860000000  0.4798120000000  0.4535000000000 1.0
C      1  0.4716750000000  0.5029370000000  0.5178350000000 1.0
C      1  0.5749160000000  0.5154570000000  0.4888770000000 1.0
C      1  0.4847530000000  0.5969150000000  0.4861870000000 1.0
C      1  0.5083600000000  0.5368600000000  0.4678310000000 1.0
C      1  0.5088640000000  0.5831620000000  0.4812120000000 1.0
C      1  0.4613590000000  0.5472580000000  0.5308950000000 1.0
C      1  0.5220650000000  0.5779080000000  0.5059550000000 1.0
C      1  0.5261440000000  0.5343060000000  0.5954080000000 1.0
C      1  0.5545970000000  0.5349820000000  0.4847450000000 1.0
C      1  0.3743580000000  0.5097800000000  0.5731980000000 1.0
C      1  0.5206690000000  0.5125580000000  0.5095850000000 1.0
C      1  0.5191320000000  0.4772850000000  0.4706490000000 1.0
C      1  0.4931130000000  0.4292510000000  0.4956480000000 1.0
C      1  0.5345070000000  0.4315940000000  0.4320670000000 1.0
C      1  0.4671660000000  0.4884690000000  0.4270540000000 1.0
C      1  0.5369920000000  0.4584320000000  0.5618690000000 1.0
C      1  0.5270030000000  0.4751650000000  0.5410710000000 1.0
C      1  0.5270890000000  0.5292330000000  0.4878350000000 1.0
C      1  0.4796590000000  0.5000100000000  0.5666640000000 1.0
C      1  0.4890350000000  0.4773010000000  0.6103320000000 1.0
C      1  0.5999360000000  0.4937480000000  0.5277810000000 1.0
C      1  0.3951900000000  0.5020990000000  0.5595540000000 1.0
C      1  0.5797640000000  0.4984570000000  0.4011140000000 1.0
C      1  0.4713380000000  0.5146310000000  0.4383450000000 1.0
C      1  0.4828020000000  0.4905910000000  0.5404870000000 1.0
C      1  0.5946590000000  0.4878870000000  0.3825260000000 1.0
C      1  0.5226030000000  0.4034810000000  0.5239050000000 1.0
C      1  0.5246720000000  0.4127830000000  0.5490170000000 1.0
C      1  0.4705320000000  0.4380610000000  0.5686230000000 1.0
C      1  0.4962330000000  0.4380620000000  0.5810920000000 1.0
C      1  0.4267100000000  0.5692630000000  0.4595240000000 1.0
C      1  0.4677240000000  0.5888680000000  0.5075830000000 1.0
C      1  0.5344710000000  0.4117190000000  0.4499260000000 1.0
C      1  0.5586280000000  0.4935520000000  0.4447780000000 1.0
C      1  0.5843540000000  0.4672870000000  0.5679360000000 1.0
C      1  0.5082800000000  0.5679510000000  0.5292060000000 1.0
C      1  0.5584380000000  0.5172490000000  0.5341730000000 1.0
C      1  0.5438640000000  0.5739860000000  0.3921150000000 1.0
C      1  0.5209560000000  0.4346840000000  0.5665000000000 1.0
C      1  0.5226900000000  0.5689050000000  0.4350600000000 1.0
C      1  0.5111120000000  0.5641770000000  0.4600010000000 1.0
C      1  0.4357030000000  0.4493230000000  0.5008490000000 1.0
C      1  0.6002570000000  0.4767280000000  0.5485490000000 1.0
C      1  0.4316190000000  0.4706650000000  0.5526960000000 1.0
C      1  0.4255360000000  0.5102310000000  0.5221730000000 1.0
C      1  0.5632480000000  0.5088170000000  0.4211170000000 1.0
C      1  0.5180320000000  0.5510370000000  0.5760550000000 1.0
END
