TITL C-599895-9959-946 0.000585575206017261 125000 -406.632803855988 0 0 69 (C1) n - 1
REM
REM in /home/nfs/bkarasulu/CARBON/AIRSS/Generating-Clusters/TERSOFF/Only-C1/FIRE-HFTN
REM
REM
REM
REM
REM
REM ./C.cell (11c1c37f851c82e70ff6c80c92926a4b)
REM AIRSS Version 0.9.1 bugfix July 2018 build 013d7b7c2542+ Fri, 06 Jul 2018 19:26:36 +0100
REM compiler GCC version 9.2.1 20190827 (Red Hat 9.2.1-1)
REM options -cpp -mtune=generic -march=x86-64 -g -O0 -fpre-include=/usr/include/finclude/math-vector-fortran.h
REM seed 430449962 -1835126696 -545709998 295948602 1325711540 -1164444697 -585636989 -1284273007 1842786737 -628868652 -106683364 -502244734 -504922746 1166535228 -178501009 -1130008696 1520818389 -318189858 -619944437 1523758515 -35013783 1916896129 1980261759 119680573 -871158408 897481514 1740683366 -317059542 -1655703053 -2029643796 -943673862 681180281 1235870082
REM
CELL 1.54180   50.00000   50.00000   50.00000   90.00000   90.00000   90.00000
LATT -1
SFAC C  
C      1  0.5227970000000  0.4083540000000  0.4458670000000 1.0
C      1  0.4705890000000  0.4793240000000  0.5834270000000 1.0
C      1  0.4523820000000  0.4915600000000  0.4815760000000 1.0
C      1  0.5101450000000  0.5645860000000  0.5382330000000 1.0
C      1  0.5631070000000  0.5294590000000  0.5563960000000 1.0
C      1  0.5280830000000  0.5370190000000  0.4115160000000 1.0
C      1  0.4660080000000  0.4312890000000  0.4831570000000 1.0
C      1  0.5176010000000  0.5331210000000  0.4828950000000 1.0
C      1  0.5071250000000  0.5664610000000  0.5654240000000 1.0
C      1  0.4902370000000  0.4783340000000  0.5181510000000 1.0
C      1  0.5148350000000  0.4692660000000  0.5083120000000 1.0
C      1  0.4989950000000  0.4082820000000  0.4607880000000 1.0
C      1  0.5382360000000  0.4490840000000  0.4649560000000 1.0
C      1  0.4725540000000  0.5743260000000  0.4739190000000 1.0
C      1  0.5818890000000  0.5325820000000  0.4932120000000 1.0
C      1  0.4845700000000  0.4260890000000  0.5305770000000 1.0
C      1  0.4840400000000  0.4778680000000  0.4312490000000 1.0
C      1  0.5306670000000  0.5482420000000  0.5277110000000 1.0
C      1  0.4320650000000  0.5197600000000  0.5322750000000 1.0
C      1  0.5213430000000  0.4579250000000  0.4837010000000 1.0
C      1  0.4970240000000  0.5707290000000  0.4602050000000 1.0
C      1  0.4666740000000  0.5306560000000  0.5042920000000 1.0
C      1  0.5203900000000  0.5593700000000  0.4712850000000 1.0
C      1  0.4422950000000  0.4452420000000  0.4856430000000 1.0
C      1  0.5104800000000  0.3769250000000  0.4982320000000 1.0
C      1  0.5790640000000  0.5332060000000  0.4647590000000 1.0
C      1  0.5742890000000  0.5550550000000  0.5103600000000 1.0
C      1  0.4899940000000  0.5056890000000  0.4284980000000 1.0
C      1  0.5590450000000  0.5483070000000  0.5351740000000 1.0
C      1  0.4126740000000  0.5003660000000  0.5250640000000 1.0
C      1  0.5470260000000  0.5050440000000  0.5118450000000 1.0
C      1  0.4884490000000  0.4613810000000  0.5697230000000 1.0
C      1  0.4357400000000  0.4714700000000  0.4927360000000 1.0
C      1  0.5292720000000  0.5275160000000  0.5079380000000 1.0
C      1  0.5404440000000  0.5065840000000  0.4427730000000 1.0
C      1  0.4810120000000  0.4526710000000  0.4403340000000 1.0
C      1  0.4281080000000  0.5480560000000  0.4246510000000 1.0
C      1  0.5739880000000  0.5079730000000  0.5045230000000 1.0
C      1  0.5172550000000  0.5138280000000  0.4255410000000 1.0
C      1  0.4981120000000  0.3990620000000  0.4884330000000 1.0
C      1  0.4799700000000  0.4303630000000  0.4576250000000 1.0
C      1  0.4981630000000  0.5145190000000  0.4746630000000 1.0
C      1  0.4553570000000  0.4999870000000  0.5745170000000 1.0
C      1  0.4814190000000  0.4173730000000  0.5038140000000 1.0
C      1  0.4541690000000  0.5079030000000  0.5474380000000 1.0
C      1  0.4402150000000  0.5380320000000  0.5117360000000 1.0
C      1  0.5550340000000  0.4705800000000  0.5979070000000 1.0
C      1  0.4259320000000  0.4553310000000  0.5373340000000 1.0
C      1  0.5424070000000  0.5756710000000  0.4782720000000 1.0
C      1  0.4747050000000  0.4421320000000  0.5520650000000 1.0
C      1  0.4493100000000  0.5439880000000  0.4417330000000 1.0
C      1  0.5399890000000  0.4833050000000  0.5778170000000 1.0
C      1  0.4493450000000  0.5588230000000  0.4666840000000 1.0
C      1  0.5509330000000  0.5078970000000  0.5678390000000 1.0
C      1  0.4207880000000  0.4744610000000  0.5170650000000 1.0
C      1  0.5689250000000  0.4587340000000  0.6165060000000 1.0
C      1  0.5158100000000  0.4698860000000  0.5700850000000 1.0
C      1  0.5616840000000  0.5273320000000  0.4433870000000 1.0
C      1  0.4696680000000  0.5255190000000  0.4333960000000 1.0
C      1  0.5369910000000  0.4808880000000  0.5207170000000 1.0
C      1  0.4461980000000  0.4446080000000  0.5513100000000 1.0
C      1  0.4746280000000  0.4951860000000  0.5319050000000 1.0
C      1  0.5409940000000  0.4281870000000  0.4482650000000 1.0
C      1  0.5530160000000  0.5445360000000  0.4214720000000 1.0
C      1  0.5634270000000  0.5767020000000  0.4952460000000 1.0
C      1  0.4922220000000  0.5786780000000  0.5215950000000 1.0
C      1  0.4763630000000  0.5835120000000  0.5005070000000 1.0
C      1  0.4725490000000  0.5110060000000  0.4850310000000 1.0
C      1  0.4311860000000  0.5527990000000  0.4887150000000 1.0
END
