TITL C-599897-7526-99 4.79815896905301 125000 -167.270736995887 0 0 30 (C1) n - 1
REM
REM in /home/nfs/bkarasulu/CARBON/AIRSS/Generating-Clusters/TERSOFF/Only-C1/FIRE-HFTN
REM
REM
REM
REM
REM
REM ./C.cell (11c1c37f851c82e70ff6c80c92926a4b)
REM AIRSS Version 0.9.1 bugfix July 2018 build 013d7b7c2542+ Fri, 06 Jul 2018 19:26:36 +0100
REM compiler GCC version 9.2.1 20190827 (Red Hat 9.2.1-1)
REM options -cpp -mtune=generic -march=x86-64 -g -O0 -fpre-include=/usr/include/finclude/math-vector-fortran.h
REM seed -607558843 -125590900 1058656367 1325225478 -1646948323 445899973 -613867884 -832104173 529315480 -2134146381 -632483270 707182887 -699186337 -2014632427 1912227160 -572062149 1628308860 1880028901 1199319495 -112174319 -827282652 429708558 804959024 -465237648 -483763036 220333521 565394085 877591489 -1262536631 731457419 1055798419 31167220 1177214704
REM
CELL 1.54180   50.00000   50.00000   50.00000   90.00000   90.00000   90.00000
LATT -1
SFAC C  
C      1  0.4825760000000  0.5643520000000  0.5300650000000 1.0
C      1  0.4494740000000  0.6016270000000  0.4772510000000 1.0
C      1  0.4795300000000  0.5407230000000  0.6457870000000 1.0
C      1  0.4802220000000  0.5781050000000  0.5075520000000 1.0
C      1  0.5449680000000  0.4720940000000  0.4401530000000 1.0
C      1  0.5342830000000  0.4166000000000  0.4842690000000 1.0
C      1  0.5100670000000  0.5045050000000  0.4307270000000 1.0
C      1  0.4915810000000  0.4826730000000  0.4280690000000 1.0
C      1  0.4935320000000  0.5539870000000  0.4435480000000 1.0
C      1  0.5077930000000  0.4691630000000  0.5885570000000 1.0
C      1  0.5371660000000  0.4971300000000  0.4337220000000 1.0
C      1  0.5333530000000  0.4120230000000  0.5103830000000 1.0
C      1  0.5016930000000  0.5309030000000  0.4334050000000 1.0
C      1  0.4877470000000  0.5356130000000  0.5743000000000 1.0
C      1  0.4849200000000  0.5306580000000  0.6223590000000 1.0
C      1  0.4682090000000  0.4135620000000  0.4235380000000 1.0
C      1  0.5295690000000  0.4163800000000  0.5362750000000 1.0
C      1  0.5321070000000  0.4298150000000  0.4613770000000 1.0
C      1  0.4851050000000  0.5501290000000  0.5522910000000 1.0
C      1  0.5160290000000  0.4469400000000  0.5766710000000 1.0
C      1  0.4657770000000  0.4874390000000  0.4201120000000 1.0
C      1  0.4781000000000  0.5921420000000  0.4814050000000 1.0
C      1  0.5235360000000  0.4286420000000  0.5590060000000 1.0
C      1  0.5003070000000  0.4557880000000  0.4336620000000 1.0
C      1  0.4993930000000  0.4934520000000  0.5950070000000 1.0
C      1  0.5265160000000  0.4511490000000  0.4444190000000 1.0
C      1  0.4906860000000  0.5199090000000  0.5972290000000 1.0
C      1  0.4858410000000  0.5738980000000  0.4592310000000 1.0
C      1  0.4963930000000  0.6164740000000  0.4814140000000 1.0
C      1  0.4835250000000  0.4341220000000  0.4282190000000 1.0
END
