TITL C-599894-471-980 0.4415492812429 125000 -331.060969330272 0 0 55 (C1) n - 1
REM
REM in /home/nfs/bkarasulu/CARBON/AIRSS/Generating-Clusters/TERSOFF/Only-C1/FIRE-HFTN
REM
REM
REM
REM
REM
REM ./C.cell (11c1c37f851c82e70ff6c80c92926a4b)
REM AIRSS Version 0.9.1 bugfix July 2018 build 013d7b7c2542+ Fri, 06 Jul 2018 19:26:36 +0100
REM compiler GCC version 9.2.1 20190827 (Red Hat 9.2.1-1)
REM options -cpp -mtune=generic -march=x86-64 -g -O0 -fpre-include=/usr/include/finclude/math-vector-fortran.h
REM seed 47391468 941706402 630802184 1983982199 -868910554 -1666343027 1476825111 490693987 2030423996 1918526058 -743808660 -1405495326 303675491 1478104914 1738924994 527478824 -376742378 946646727 -1684425259 -341739308 -1204493020 2086608224 1081484479 496015270 -973767669 -97677620 515269280 728937503 934574555 -1151606793 845858382 -73924404 -1179511659
REM
CELL 1.54180   50.00000   50.00000   50.00000   90.00000   90.00000   90.00000
LATT -1
SFAC C  
C      1  0.5511810000000  0.4839910000000  0.4604040000000 1.0
C      1  0.4582070000000  0.5119140000000  0.5152130000000 1.0
C      1  0.5328510000000  0.5211450000000  0.5633250000000 1.0
C      1  0.5496410000000  0.4822730000000  0.5403220000000 1.0
C      1  0.5557670000000  0.4766080000000  0.4874600000000 1.0
C      1  0.4083290000000  0.5241150000000  0.4618510000000 1.0
C      1  0.4702510000000  0.4867660000000  0.5114950000000 1.0
C      1  0.4944970000000  0.5392030000000  0.4557580000000 1.0
C      1  0.6284660000000  0.4364290000000  0.4144110000000 1.0
C      1  0.4170840000000  0.5097330000000  0.4834690000000 1.0
C      1  0.5839440000000  0.4710600000000  0.3943620000000 1.0
C      1  0.6086920000000  0.4482780000000  0.4284370000000 1.0
C      1  0.4388890000000  0.5055410000000  0.5893860000000 1.0
C      1  0.5976430000000  0.4648040000000  0.3719720000000 1.0
C      1  0.5095990000000  0.5179930000000  0.4485590000000 1.0
C      1  0.4438190000000  0.4484210000000  0.4966000000000 1.0
C      1  0.4289770000000  0.5408640000000  0.5572310000000 1.0
C      1  0.4878930000000  0.5519200000000  0.5211540000000 1.0
C      1  0.4160220000000  0.5532230000000  0.5346650000000 1.0
C      1  0.5555700000000  0.5090810000000  0.5499200000000 1.0
C      1  0.4909110000000  0.4987600000000  0.5836240000000 1.0
C      1  0.4958680000000  0.5605600000000  0.4745230000000 1.0
C      1  0.5240870000000  0.5467550000000  0.5564900000000 1.0
C      1  0.4649200000000  0.4986540000000  0.5903250000000 1.0
C      1  0.5155090000000  0.4984630000000  0.5700970000000 1.0
C      1  0.5129540000000  0.4504630000000  0.5576290000000 1.0
C      1  0.5092620000000  0.5591670000000  0.5378470000000 1.0
C      1  0.5395340000000  0.5496440000000  0.4922020000000 1.0
C      1  0.5335270000000  0.5249140000000  0.5009590000000 1.0
C      1  0.6197820000000  0.4496340000000  0.3686250000000 1.0
C      1  0.4213040000000  0.5222710000000  0.5771060000000 1.0
C      1  0.3927210000000  0.5672560000000  0.5368330000000 1.0
C      1  0.5297060000000  0.5003930000000  0.4516020000000 1.0
C      1  0.6337770000000  0.4367510000000  0.3878940000000 1.0
C      1  0.4606870000000  0.4352400000000  0.4781770000000 1.0
C      1  0.4661520000000  0.4471950000000  0.5401900000000 1.0
C      1  0.5229140000000  0.5676320000000  0.4805330000000 1.0
C      1  0.4185380000000  0.4582400000000  0.4900420000000 1.0
C      1  0.4570690000000  0.5404810000000  0.5544600000000 1.0
C      1  0.4576740000000  0.4617310000000  0.5178730000000 1.0
C      1  0.5690390000000  0.4744230000000  0.4410760000000 1.0
C      1  0.4960500000000  0.4855040000000  0.4989290000000 1.0
C      1  0.4093340000000  0.4829890000000  0.4862490000000 1.0
C      1  0.5153700000000  0.5053410000000  0.5033930000000 1.0
C      1  0.4296680000000  0.5496190000000  0.5093020000000 1.0
C      1  0.4343370000000  0.5217820000000  0.5024500000000 1.0
C      1  0.4777960000000  0.5630790000000  0.4965990000000 1.0
C      1  0.4710020000000  0.5317640000000  0.5318670000000 1.0
C      1  0.5561690000000  0.4741900000000  0.5142390000000 1.0
C      1  0.4493530000000  0.5669120000000  0.4973580000000 1.0
C      1  0.4884560000000  0.4408160000000  0.5533470000000 1.0
C      1  0.4859000000000  0.4428030000000  0.4720700000000 1.0
C      1  0.5265340000000  0.4747020000000  0.5567140000000 1.0
C      1  0.5866840000000  0.4648790000000  0.4218800000000 1.0
C      1  0.5000920000000  0.4636290000000  0.4815020000000 1.0
END
