TITL C-599892-9790-1216 0.243766240454028 125000 -733.812706263685 0 0 120 (C1) n - 1
REM
REM in /home/nfs/bkarasulu/CARBON/AIRSS/Generating-Clusters/TERSOFF/Only-C1/FIRE-HFTN
REM
REM
REM
REM
REM
REM ./C.cell (11c1c37f851c82e70ff6c80c92926a4b)
REM AIRSS Version 0.9.1 bugfix July 2018 build 013d7b7c2542+ Fri, 06 Jul 2018 19:26:36 +0100
REM compiler GCC version 9.2.1 20190827 (Red Hat 9.2.1-1)
REM options -cpp -mtune=generic -march=x86-64 -g -O0 -fpre-include=/usr/include/finclude/math-vector-fortran.h
REM seed 1171354141 -1409542723 1008257518 -1697423523 537209740 1321722186 1089059967 -306302281 214539538 1413866087 -2071793855 2063423600 -579615495 -504249673 -911420668 -1966969268 626572894 885983641 -67088985 -1357358017 323763729 -461096931 -536431016 1903475300 231693819 817363429 414765270 1980206340 -125493676 1214169736 -2028731095 -1137472562 1639633550
REM
CELL 1.54180   50.00000   50.00000   50.00000   90.00000   90.00000   90.00000
LATT -1
SFAC C  
C      1  0.4745570000000  0.5541620000000  0.4151270000000 1.0
C      1  0.4888820000000  0.5932300000000  0.5339800000000 1.0
C      1  0.4478290000000  0.5763000000000  0.6348320000000 1.0
C      1  0.4923120000000  0.5412580000000  0.5719180000000 1.0
C      1  0.5486050000000  0.4761380000000  0.5143550000000 1.0
C      1  0.5194130000000  0.5425040000000  0.4702560000000 1.0
C      1  0.4644140000000  0.5938360000000  0.5486580000000 1.0
C      1  0.5627420000000  0.4299970000000  0.5234870000000 1.0
C      1  0.4388100000000  0.4788520000000  0.4952840000000 1.0
C      1  0.5282810000000  0.4602990000000  0.5005080000000 1.0
C      1  0.5995170000000  0.5410870000000  0.5362450000000 1.0
C      1  0.4914460000000  0.5424030000000  0.5432870000000 1.0
C      1  0.5598750000000  0.5115460000000  0.4787250000000 1.0
C      1  0.4670310000000  0.5379170000000  0.5846770000000 1.0
C      1  0.5880650000000  0.4000460000000  0.4484570000000 1.0
C      1  0.5032460000000  0.4556590000000  0.4542490000000 1.0
C      1  0.4364490000000  0.5650090000000  0.6126640000000 1.0
C      1  0.4145430000000  0.4342460000000  0.4707520000000 1.0
C      1  0.5303020000000  0.5601110000000  0.4270670000000 1.0
C      1  0.5381480000000  0.6042960000000  0.4470950000000 1.0
C      1  0.4454360000000  0.5346710000000  0.4634630000000 1.0
C      1  0.4553500000000  0.4247050000000  0.4112150000000 1.0
C      1  0.4499850000000  0.4856190000000  0.5803650000000 1.0
C      1  0.4098140000000  0.5565320000000  0.6130570000000 1.0
C      1  0.5286900000000  0.4693860000000  0.4476600000000 1.0
C      1  0.4596450000000  0.5066330000000  0.4617410000000 1.0
C      1  0.6239030000000  0.5494670000000  0.5281620000000 1.0
C      1  0.5424980000000  0.4405050000000  0.5422800000000 1.0
C      1  0.6051730000000  0.4840560000000  0.5344090000000 1.0
C      1  0.5748070000000  0.4811780000000  0.4392760000000 1.0
C      1  0.4742000000000  0.4231080000000  0.5189020000000 1.0
C      1  0.4664510000000  0.4449640000000  0.5608740000000 1.0
C      1  0.5116370000000  0.5368420000000  0.3896020000000 1.0
C      1  0.4016250000000  0.4527900000000  0.4532970000000 1.0
C      1  0.5397480000000  0.5000610000000  0.5859620000000 1.0
C      1  0.5591050000000  0.5663410000000  0.5315220000000 1.0
C      1  0.5415780000000  0.5112030000000  0.4192450000000 1.0
C      1  0.4962570000000  0.4337200000000  0.4375800000000 1.0
C      1  0.4863900000000  0.4335730000000  0.5426840000000 1.0
C      1  0.5209810000000  0.3822040000000  0.4822860000000 1.0
C      1  0.4877050000000  0.5179200000000  0.5041640000000 1.0
C      1  0.5677550000000  0.5407120000000  0.5733070000000 1.0
C      1  0.4472710000000  0.4255170000000  0.5088540000000 1.0
C      1  0.5989500000000  0.4987710000000  0.5588550000000 1.0
C      1  0.5319990000000  0.5370350000000  0.4097180000000 1.0
C      1  0.4185450000000  0.5001840000000  0.4415800000000 1.0
C      1  0.4709960000000  0.5102110000000  0.3923420000000 1.0
C      1  0.4984960000000  0.4758540000000  0.5803980000000 1.0
C      1  0.5791680000000  0.4459460000000  0.5037790000000 1.0
C      1  0.4671230000000  0.5711990000000  0.4915920000000 1.0
C      1  0.5098980000000  0.4729600000000  0.5545810000000 1.0
C      1  0.5928150000000  0.3775080000000  0.4362500000000 1.0
C      1  0.5223750000000  0.4927490000000  0.4305900000000 1.0
C      1  0.4954280000000  0.5007760000000  0.4326980000000 1.0
C      1  0.5294600000000  0.5734260000000  0.5692320000000 1.0
C      1  0.3856200000000  0.4448120000000  0.4327260000000 1.0
C      1  0.4864370000000  0.5905380000000  0.5039620000000 1.0
C      1  0.4573570000000  0.4176140000000  0.4605670000000 1.0
C      1  0.5575740000000  0.4645000000000  0.4555810000000 1.0
C      1  0.4820750000000  0.5605510000000  0.4422740000000 1.0
C      1  0.4995800000000  0.5248900000000  0.4792890000000 1.0
C      1  0.4866610000000  0.4667230000000  0.4759160000000 1.0
C      1  0.5028460000000  0.4721930000000  0.4983400000000 1.0
C      1  0.5314040000000  0.5190520000000  0.5354460000000 1.0
C      1  0.4295930000000  0.4726910000000  0.5642410000000 1.0
C      1  0.4737530000000  0.5348770000000  0.5226360000000 1.0
C      1  0.5120270000000  0.5899620000000  0.5521810000000 1.0
C      1  0.4067570000000  0.4803030000000  0.4591070000000 1.0
C      1  0.5247280000000  0.4075060000000  0.4872960000000 1.0
C      1  0.5104520000000  0.5575090000000  0.4477350000000 1.0
C      1  0.4834170000000  0.5361450000000  0.3942030000000 1.0
C      1  0.5681230000000  0.5020610000000  0.4230750000000 1.0
C      1  0.4522210000000  0.5818710000000  0.5692680000000 1.0
C      1  0.4649940000000  0.4918390000000  0.3719190000000 1.0
C      1  0.5459230000000  0.5332440000000  0.4711020000000 1.0
C      1  0.4373500000000  0.4045180000000  0.4065000000000 1.0
C      1  0.4135220000000  0.4838830000000  0.4867500000000 1.0
C      1  0.5192410000000  0.5477880000000  0.5814520000000 1.0
C      1  0.4563570000000  0.5538320000000  0.5117530000000 1.0
C      1  0.4023220000000  0.4254860000000  0.5288240000000 1.0
C      1  0.4546730000000  0.5125330000000  0.5864120000000 1.0
C      1  0.5132240000000  0.4444910000000  0.5460920000000 1.0
C      1  0.5573370000000  0.5669470000000  0.5607070000000 1.0
C      1  0.4611310000000  0.4652170000000  0.3747160000000 1.0
C      1  0.4881540000000  0.5116820000000  0.4576030000000 1.0
C      1  0.5923190000000  0.5273400000000  0.5607070000000 1.0
C      1  0.5836960000000  0.4831640000000  0.5766550000000 1.0
C      1  0.5575850000000  0.5199680000000  0.5236010000000 1.0
C      1  0.4387920000000  0.4484200000000  0.5512260000000 1.0
C      1  0.5154320000000  0.4205190000000  0.4231230000000 1.0
C      1  0.5743400000000  0.5436920000000  0.5234030000000 1.0
C      1  0.5978920000000  0.4648410000000  0.5161320000000 1.0
C      1  0.5425940000000  0.5286300000000  0.5842480000000 1.0
C      1  0.4285000000000  0.4333440000000  0.5294800000000 1.0
C      1  0.4693020000000  0.4251690000000  0.4362250000000 1.0
C      1  0.4516140000000  0.5617140000000  0.5889400000000 1.0
C      1  0.5228530000000  0.6098860000000  0.4684660000000 1.0
C      1  0.5563040000000  0.4819540000000  0.5698010000000 1.0
C      1  0.4611340000000  0.4809790000000  0.4780560000000 1.0
C      1  0.4192200000000  0.5280600000000  0.4519010000000 1.0
C      1  0.5722580000000  0.4457930000000  0.4742780000000 1.0
C      1  0.5135070000000  0.4958320000000  0.5377920000000 1.0
C      1  0.5328400000000  0.5646960000000  0.5206270000000 1.0
C      1  0.4392130000000  0.4243220000000  0.4810190000000 1.0
C      1  0.3850800000000  0.5470730000000  0.6122650000000 1.0
C      1  0.4596520000000  0.4439520000000  0.3909670000000 1.0
C      1  0.4707010000000  0.4976150000000  0.4176980000000 1.0
C      1  0.5288960000000  0.4331600000000  0.4927430000000 1.0
C      1  0.4973140000000  0.4938740000000  0.5147080000000 1.0
C      1  0.5161940000000  0.4890660000000  0.5975000000000 1.0
C      1  0.4472260000000  0.4962000000000  0.4349190000000 1.0
C      1  0.5432150000000  0.5850870000000  0.4286900000000 1.0
C      1  0.4721340000000  0.4666310000000  0.5801140000000 1.0
C      1  0.5517200000000  0.4691680000000  0.5436560000000 1.0
C      1  0.5821590000000  0.4226600000000  0.4609260000000 1.0
C      1  0.5598460000000  0.5000260000000  0.5041720000000 1.0
C      1  0.4631440000000  0.5587810000000  0.4646550000000 1.0
C      1  0.5174710000000  0.5437050000000  0.5319780000000 1.0
C      1  0.5044360000000  0.6046650000000  0.4871900000000 1.0
C      1  0.3608370000000  0.5375330000000  0.6113180000000 1.0
END
