TITL C-599891-72-767 57929.3941748693 125000 -804.28770237733 0 0 133 (C1) n - 1
REM
REM in /home/nfs/bkarasulu/CARBON/AIRSS/Generating-Clusters/TERSOFF/Only-C1/FIRE-HFTN
REM
REM
REM
REM
REM
REM ./C.cell (11c1c37f851c82e70ff6c80c92926a4b)
REM AIRSS Version 0.9.1 bugfix July 2018 build 013d7b7c2542+ Fri, 06 Jul 2018 19:26:36 +0100
REM compiler GCC version 9.2.1 20190827 (Red Hat 9.2.1-1)
REM options -cpp -mtune=generic -march=x86-64 -g -O0 -fpre-include=/usr/include/finclude/math-vector-fortran.h
REM seed 2131342766 1464993423 61933302 1563058360 112435380 -234294275 -129503128 -887375913 824245261 -1004503911 -1401442072 -1550711730 1901783008 1468163779 1826561405 -1715102541 -270526749 -83581865 -1977250200 -1710871132 1529328029 828257305 1733502237 536483578 1934917983 680582344 -1315311817 1313610334 159502843 1872164981 1017086003 784597625 636292857
REM
CELL 1.54180   50.00000   50.00000   50.00000   90.00000   90.00000   90.00000
LATT -1
SFAC C  
C      1  0.4862330000000  0.4872590000000  0.6303940000000 1.0
C      1  0.4768460000000  0.4843830000000  0.4506210000000 1.0
C      1  0.4018540000000  0.4955360000000  0.5084690000000 1.0
C      1  0.5786990000000  0.4624940000000  0.4815330000000 1.0
C      1  0.4636620000000  0.5839630000000  0.5304570000000 1.0
C      1  0.4420690000000  0.4770120000000  0.4090160000000 1.0
C      1  0.4858140000000  0.5619090000000  0.4119230000000 1.0
C      1  0.4777400000000  0.5065870000000  0.4095800000000 1.0
C      1  0.4305620000000  0.4407180000000  0.5744150000000 1.0
C      1  0.5196630000000  0.3951090000000  0.5040280000000 1.0
C      1  0.5174240000000  0.5524510000000  0.5469760000000 1.0
C      1  0.4936420000000  0.4713900000000  0.5708080000000 1.0
C      1  0.4530080000000  0.5140760000000  0.4730140000000 1.0
C      1  0.4306970000000  0.5569820000000  0.4912280000000 1.0
C      1  0.5752960000000  0.5367550000000  0.4849210000000 1.0
C      1  0.4320130000000  0.5055030000000  0.4127460000000 1.0
C      1  0.5205870000000  0.5201500000000  0.6110870000000 1.0
C      1  0.4671960000000  0.4444340000000  0.4906430000000 1.0
C      1  0.4161680000000  0.4273420000000  0.5532670000000 1.0
C      1  0.5352500000000  0.4427960000000  0.5806810000000 1.0
C      1  0.4529840000000  0.4563420000000  0.5106090000000 1.0
C      1  0.5134270000000  0.5202720000000  0.5831560000000 1.0
C      1  0.5510420000000  0.4256870000000  0.5662820000000 1.0
C      1  0.5105490000000  0.5338000000000  0.5278950000000 1.0
C      1  0.4559250000000  0.4006020000000  0.5423060000000 1.0
C      1  0.5866100000000  0.4901870000000  0.4859290000000 1.0
C      1  0.5306400000000  0.4413190000000  0.4837200000000 1.0
C      1  0.6175410000000  0.5578410000000  0.4755310000000 1.0
C      1  0.4355570000000  0.5434720000000  0.5161370000000 1.0
C      1  0.4993920000000  0.4680090000000  0.4468970000000 1.0
C      1  0.5724160000000  0.6052020000000  0.5088690000000 1.0
C      1  0.6254470000000  0.6060050000000  0.4824990000000 1.0
C      1  0.4518260000000  0.4860460000000  0.4653790000000 1.0
C      1  0.4813050000000  0.5108640000000  0.4379890000000 1.0
C      1  0.5733970000000  0.6324800000000  0.5000380000000 1.0
C      1  0.5051810000000  0.5460800000000  0.5717650000000 1.0
C      1  0.5233290000000  0.5671870000000  0.6300750000000 1.0
C      1  0.6009830000000  0.5355410000000  0.4707400000000 1.0
C      1  0.4501350000000  0.3935340000000  0.4946800000000 1.0
C      1  0.4713950000000  0.4360680000000  0.4647810000000 1.0
C      1  0.4720460000000  0.4294070000000  0.4056890000000 1.0
C      1  0.5414800000000  0.4073900000000  0.5208650000000 1.0
C      1  0.5145190000000  0.5940990000000  0.5175270000000 1.0
C      1  0.4609830000000  0.5515770000000  0.4013860000000 1.0
C      1  0.4121950000000  0.5445440000000  0.4732290000000 1.0
C      1  0.5909500000000  0.5005590000000  0.4312780000000 1.0
C      1  0.5174150000000  0.4903880000000  0.4904260000000 1.0
C      1  0.5233570000000  0.5325300000000  0.4735540000000 1.0
C      1  0.5061280000000  0.5707220000000  0.4276420000000 1.0
C      1  0.5053750000000  0.5955550000000  0.4696590000000 1.0
C      1  0.6299180000000  0.6319010000000  0.4875790000000 1.0
C      1  0.4536850000000  0.5715460000000  0.4822480000000 1.0
C      1  0.5738890000000  0.6034340000000  0.5373880000000 1.0
C      1  0.5374590000000  0.4911160000000  0.5456050000000 1.0
C      1  0.5920560000000  0.6502810000000  0.5129370000000 1.0
C      1  0.5640160000000  0.5636300000000  0.4813890000000 1.0
C      1  0.4889690000000  0.5261080000000  0.5093600000000 1.0
C      1  0.4948180000000  0.4176060000000  0.5703900000000 1.0
C      1  0.5125880000000  0.3989000000000  0.4754910000000 1.0
C      1  0.4069930000000  0.4956570000000  0.4792470000000 1.0
C      1  0.4137070000000  0.5139030000000  0.4334020000000 1.0
C      1  0.4162200000000  0.4327500000000  0.4933590000000 1.0
C      1  0.5810090000000  0.5846980000000  0.4915680000000 1.0
C      1  0.5223060000000  0.4817210000000  0.4388380000000 1.0
C      1  0.5586940000000  0.4407440000000  0.4346410000000 1.0
C      1  0.5163290000000  0.4488150000000  0.4024230000000 1.0
C      1  0.4674970000000  0.4789690000000  0.6132700000000 1.0
C      1  0.4946160000000  0.4976220000000  0.5029650000000 1.0
C      1  0.4286930000000  0.4094480000000  0.5346600000000 1.0
C      1  0.5385940000000  0.5068070000000  0.4766780000000 1.0
C      1  0.4959860000000  0.5947140000000  0.4961120000000 1.0
C      1  0.5385770000000  0.4059040000000  0.5496420000000 1.0
C      1  0.4684030000000  0.3899780000000  0.5183360000000 1.0
C      1  0.4261380000000  0.4080970000000  0.5047120000000 1.0
C      1  0.6088610000000  0.5834880000000  0.4835220000000 1.0
C      1  0.4155240000000  0.4476670000000  0.4688050000000 1.0
C      1  0.4652920000000  0.5588060000000  0.4594840000000 1.0
C      1  0.4333730000000  0.4511980000000  0.4185880000000 1.0
C      1  0.4610120000000  0.4728880000000  0.5317760000000 1.0
C      1  0.6169250000000  0.6521000000000  0.4998070000000 1.0
C      1  0.4843360000000  0.5780270000000  0.6022790000000 1.0
C      1  0.4497710000000  0.4276270000000  0.4239910000000 1.0
C      1  0.4148490000000  0.4762560000000  0.5255310000000 1.0
C      1  0.4251550000000  0.4749820000000  0.4685570000000 1.0
C      1  0.5906380000000  0.6480190000000  0.5413920000000 1.0
C      1  0.4675780000000  0.4107250000000  0.5669200000000 1.0
C      1  0.4961260000000  0.3852230000000  0.5172220000000 1.0
C      1  0.5660130000000  0.4558920000000  0.5076090000000 1.0
C      1  0.5696630000000  0.4857280000000  0.4423600000000 1.0
C      1  0.5205780000000  0.4492300000000  0.5070140000000 1.0
C      1  0.5199150000000  0.5798430000000  0.4510570000000 1.0
C      1  0.5441380000000  0.4955720000000  0.4495150000000 1.0
C      1  0.5723630000000  0.4583650000000  0.4527930000000 1.0
C      1  0.4889160000000  0.3852020000000  0.4659690000000 1.0
C      1  0.4615080000000  0.5322020000000  0.5189480000000 1.0
C      1  0.6033670000000  0.5192580000000  0.4481480000000 1.0
C      1  0.5042490000000  0.4529630000000  0.5270440000000 1.0
C      1  0.5538880000000  0.4861330000000  0.5218730000000 1.0
C      1  0.5450930000000  0.5706620000000  0.4610580000000 1.0
C      1  0.5232130000000  0.5782670000000  0.5374610000000 1.0
C      1  0.5137980000000  0.3984420000000  0.5610290000000 1.0
C      1  0.4995190000000  0.5390880000000  0.4840160000000 1.0
C      1  0.4720380000000  0.4783220000000  0.4021680000000 1.0
C      1  0.5823090000000  0.6245060000000  0.5526410000000 1.0
C      1  0.5602240000000  0.4284120000000  0.5134960000000 1.0
C      1  0.4068000000000  0.5190490000000  0.4612670000000 1.0
C      1  0.4609070000000  0.3931070000000  0.4673850000000 1.0
C      1  0.5065600000000  0.4438230000000  0.5781570000000 1.0
C      1  0.4403830000000  0.4679760000000  0.5722500000000 1.0
C      1  0.4966640000000  0.4411630000000  0.4539940000000 1.0
C      1  0.5989650000000  0.4969840000000  0.4054430000000 1.0
C      1  0.4659950000000  0.4744530000000  0.5856280000000 1.0
C      1  0.5321640000000  0.5428230000000  0.6230700000000 1.0
C      1  0.4836730000000  0.5647470000000  0.5775390000000 1.0
C      1  0.4556660000000  0.4169400000000  0.4505210000000 1.0
C      1  0.4493760000000  0.4224090000000  0.5853410000000 1.0
C      1  0.4692710000000  0.5311010000000  0.4556150000000 1.0
C      1  0.5089390000000  0.5010610000000  0.6279860000000 1.0
C      1  0.5016860000000  0.5811700000000  0.6224880000000 1.0
C      1  0.4877550000000  0.4531560000000  0.4004890000000 1.0
C      1  0.4434700000000  0.5686870000000  0.3890700000000 1.0
C      1  0.4544370000000  0.5237790000000  0.4037450000000 1.0
C      1  0.5171040000000  0.4253580000000  0.4655110000000 1.0
C      1  0.3943020000000  0.5189180000000  0.5223090000000 1.0
C      1  0.5393280000000  0.4411480000000  0.4151660000000 1.0
C      1  0.5639180000000  0.5086500000000  0.4945100000000 1.0
C      1  0.4685850000000  0.5753390000000  0.5556300000000 1.0
C      1  0.4363930000000  0.4801070000000  0.5463660000000 1.0
C      1  0.4123960000000  0.5371480000000  0.5306130000000 1.0
C      1  0.4693520000000  0.5857640000000  0.5023020000000 1.0
C      1  0.4860440000000  0.4673540000000  0.5420560000000 1.0
C      1  0.4245860000000  0.4532540000000  0.5114440000000 1.0
C      1  0.5159400000000  0.4949330000000  0.5674570000000 1.0
END
