TITL C-599893-4344-1273 491.948139550505 125000 -986.116575177468 0 0 165 (C1) n - 1
REM
REM in /home/nfs/bkarasulu/CARBON/AIRSS/Generating-Clusters/TERSOFF/Only-C1/FIRE-HFTN
REM
REM
REM
REM
REM
REM ./C.cell (11c1c37f851c82e70ff6c80c92926a4b)
REM AIRSS Version 0.9.1 bugfix July 2018 build 013d7b7c2542+ Fri, 06 Jul 2018 19:26:36 +0100
REM compiler GCC version 9.2.1 20190827 (Red Hat 9.2.1-1)
REM options -cpp -mtune=generic -march=x86-64 -g -O0 -fpre-include=/usr/include/finclude/math-vector-fortran.h
REM seed 1488886846 -787488335 -2034225148 -1225163296 -1363300080 -1435774927 1320979144 1507185864 99256138 -2027055545 972273022 -1404474664 1840382776 -1784055526 -1441824490 -603673378 1907092118 -1019515718 -686648073 428559524 904710330 1116364882 -1201601908 -851072269 755237432 -880241762 -44554845 -1872024305 -507864347 2137049833 1765508950 11116297 -595579709
REM
CELL 1.54180   50.00000   50.00000   50.00000   90.00000   90.00000   90.00000
LATT -1
SFAC C  
C      1  0.6018600000000  0.5125440000000  0.5096600000000 1.0
C      1  0.4216150000000  0.4481870000000  0.3977600000000 1.0
C      1  0.5391700000000  0.5872020000000  0.4653300000000 1.0
C      1  0.5284440000000  0.4194230000000  0.4124840000000 1.0
C      1  0.5529110000000  0.4366050000000  0.4120940000000 1.0
C      1  0.4796250000000  0.4536200000000  0.5290730000000 1.0
C      1  0.4591740000000  0.5830370000000  0.4224610000000 1.0
C      1  0.5719970000000  0.5607920000000  0.5323500000000 1.0
C      1  0.3692250000000  0.4963040000000  0.5150910000000 1.0
C      1  0.4837610000000  0.5243190000000  0.6263580000000 1.0
C      1  0.4804720000000  0.6249530000000  0.5468930000000 1.0
C      1  0.5520280000000  0.4406900000000  0.4705850000000 1.0
C      1  0.4426250000000  0.6554010000000  0.5669400000000 1.0
C      1  0.4903520000000  0.4409240000000  0.4845950000000 1.0
C      1  0.4647060000000  0.5371020000000  0.6420170000000 1.0
C      1  0.4788910000000  0.5204010000000  0.5169520000000 1.0
C      1  0.4226770000000  0.4173680000000  0.4824750000000 1.0
C      1  0.5148800000000  0.4840250000000  0.4812260000000 1.0
C      1  0.4937320000000  0.5456440000000  0.3993310000000 1.0
C      1  0.4769320000000  0.5621810000000  0.5472930000000 1.0
C      1  0.5222960000000  0.5039310000000  0.3775200000000 1.0
C      1  0.4269770000000  0.4501090000000  0.5164920000000 1.0
C      1  0.5430300000000  0.5941120000000  0.5570900000000 1.0
C      1  0.5993300000000  0.5068500000000  0.4557070000000 1.0
C      1  0.4270780000000  0.5611490000000  0.6705340000000 1.0
C      1  0.4618250000000  0.4057390000000  0.4438190000000 1.0
C      1  0.4948310000000  0.3930670000000  0.4770120000000 1.0
C      1  0.4360640000000  0.4494900000000  0.5763830000000 1.0
C      1  0.4233240000000  0.5004120000000  0.5610740000000 1.0
C      1  0.4462350000000  0.5182340000000  0.5597220000000 1.0
C      1  0.4404780000000  0.4258720000000  0.5581350000000 1.0
C      1  0.5170840000000  0.4142630000000  0.5388110000000 1.0
C      1  0.5158120000000  0.5717660000000  0.4724810000000 1.0
C      1  0.5845420000000  0.5033410000000  0.4293520000000 1.0
C      1  0.4222940000000  0.4736230000000  0.5676710000000 1.0
C      1  0.5845850000000  0.4754670000000  0.4194250000000 1.0
C      1  0.5305030000000  0.5253640000000  0.5009740000000 1.0
C      1  0.5152980000000  0.4290050000000  0.3884670000000 1.0
C      1  0.4995130000000  0.4601050000000  0.5724860000000 1.0
C      1  0.5792530000000  0.5527220000000  0.4560040000000 1.0
C      1  0.3886650000000  0.4482310000000  0.4557510000000 1.0
C      1  0.5075460000000  0.4878480000000  0.6091200000000 1.0
C      1  0.4492640000000  0.5037640000000  0.3702000000000 1.0
C      1  0.4813400000000  0.4430940000000  0.4236560000000 1.0
C      1  0.4542800000000  0.4759090000000  0.4901340000000 1.0
C      1  0.4817100000000  0.4966210000000  0.6181430000000 1.0
C      1  0.4813850000000  0.4806510000000  0.3948260000000 1.0
C      1  0.5499980000000  0.6158790000000  0.5385960000000 1.0
C      1  0.4275750000000  0.5139750000000  0.4599640000000 1.0
C      1  0.5358610000000  0.3953130000000  0.4571070000000 1.0
C      1  0.5137440000000  0.4582370000000  0.4949990000000 1.0
C      1  0.5669620000000  0.5337170000000  0.5324970000000 1.0
C      1  0.5800610000000  0.5832470000000  0.4887500000000 1.0
C      1  0.4475410000000  0.5214980000000  0.4416170000000 1.0
C      1  0.4599000000000  0.4252370000000  0.4234670000000 1.0
C      1  0.4370550000000  0.4963300000000  0.4802560000000 1.0
C      1  0.5361090000000  0.5256140000000  0.6232310000000 1.0
C      1  0.5428030000000  0.4837060000000  0.4429240000000 1.0
C      1  0.4291100000000  0.4209030000000  0.5110550000000 1.0
C      1  0.5160440000000  0.5114330000000  0.4811500000000 1.0
C      1  0.5779630000000  0.6168030000000  0.5323650000000 1.0
C      1  0.5078590000000  0.5380210000000  0.6164870000000 1.0
C      1  0.4036070000000  0.5360870000000  0.4234290000000 1.0
C      1  0.4462280000000  0.4120440000000  0.5318900000000 1.0
C      1  0.6044670000000  0.5392230000000  0.4969200000000 1.0
C      1  0.5609820000000  0.4647350000000  0.4030070000000 1.0
C      1  0.5171250000000  0.5328080000000  0.3856450000000 1.0
C      1  0.5584620000000  0.4615320000000  0.4534590000000 1.0
C      1  0.4032890000000  0.4392710000000  0.4777610000000 1.0
C      1  0.4526960000000  0.4523850000000  0.6010940000000 1.0
C      1  0.4907580000000  0.4266880000000  0.5364620000000 1.0
C      1  0.5026380000000  0.4556410000000  0.4335950000000 1.0
C      1  0.5193320000000  0.4987980000000  0.5842680000000 1.0
C      1  0.5909040000000  0.4752750000000  0.5444580000000 1.0
C      1  0.5072340000000  0.5699500000000  0.5001740000000 1.0
C      1  0.5837930000000  0.4477070000000  0.5852080000000 1.0
C      1  0.5981900000000  0.5984200000000  0.5271800000000 1.0
C      1  0.4402490000000  0.4056420000000  0.4631910000000 1.0
C      1  0.4615040000000  0.6404080000000  0.5570230000000 1.0
C      1  0.4673610000000  0.5011240000000  0.5675600000000 1.0
C      1  0.4756520000000  0.4758660000000  0.5692760000000 1.0
C      1  0.5128300000000  0.4878950000000  0.5372540000000 1.0
C      1  0.5040170000000  0.5230680000000  0.4580080000000 1.0
C      1  0.4548870000000  0.5445080000000  0.5515730000000 1.0
C      1  0.4982400000000  0.5659770000000  0.5672840000000 1.0
C      1  0.4652230000000  0.5426180000000  0.4402520000000 1.0
C      1  0.4316130000000  0.5014680000000  0.3952300000000 1.0
C      1  0.5551280000000  0.5187790000000  0.5113380000000 1.0
C      1  0.5968750000000  0.4656490000000  0.4946450000000 1.0
C      1  0.4081910000000  0.5731790000000  0.6847170000000 1.0
C      1  0.5119730000000  0.5502480000000  0.4534800000000 1.0
C      1  0.4459300000000  0.5491280000000  0.6563110000000 1.0
C      1  0.3896020000000  0.5850100000000  0.6986510000000 1.0
C      1  0.4750210000000  0.5585350000000  0.4183170000000 1.0
C      1  0.5917770000000  0.5716150000000  0.5128070000000 1.0
C      1  0.4728830000000  0.4098260000000  0.5212620000000 1.0
C      1  0.5329490000000  0.3811750000000  0.5070490000000 1.0
C      1  0.5824380000000  0.4594230000000  0.5207010000000 1.0
C      1  0.6000860000000  0.4778270000000  0.4676020000000 1.0
C      1  0.5005020000000  0.6060980000000  0.5360000000000 1.0
C      1  0.5497000000000  0.4769070000000  0.6293000000000 1.0
C      1  0.5467140000000  0.4206490000000  0.5315870000000 1.0
C      1  0.4753300000000  0.4921140000000  0.3693960000000 1.0
C      1  0.5004610000000  0.4987930000000  0.3581090000000 1.0
C      1  0.5145690000000  0.5889400000000  0.5588440000000 1.0
C      1  0.5753900000000  0.5041360000000  0.4990640000000 1.0
C      1  0.4629290000000  0.5994390000000  0.4732310000000 1.0
C      1  0.5830570000000  0.4728540000000  0.5738710000000 1.0
C      1  0.5591610000000  0.4999830000000  0.6161460000000 1.0
C      1  0.4039520000000  0.4573880000000  0.5008650000000 1.0
C      1  0.5375830000000  0.4777060000000  0.3855630000000 1.0
C      1  0.5977410000000  0.5340320000000  0.4679840000000 1.0
C      1  0.3794910000000  0.4718320000000  0.4469980000000 1.0
C      1  0.5153390000000  0.4799740000000  0.4393730000000 1.0
C      1  0.4893230000000  0.3974810000000  0.4484420000000 1.0
C      1  0.5863970000000  0.4623330000000  0.4459450000000 1.0
C      1  0.5411930000000  0.4476750000000  0.4954070000000 1.0
C      1  0.5235250000000  0.4711730000000  0.6255680000000 1.0
C      1  0.5068210000000  0.5461850000000  0.5875590000000 1.0
C      1  0.5622740000000  0.5741910000000  0.5550940000000 1.0
C      1  0.5353780000000  0.5509250000000  0.3747330000000 1.0
C      1  0.5515950000000  0.5347960000000  0.5789720000000 1.0
C      1  0.5650390000000  0.5748430000000  0.4669920000000 1.0
C      1  0.4772010000000  0.4956140000000  0.4181100000000 1.0
C      1  0.4968720000000  0.4372720000000  0.5886210000000 1.0
C      1  0.4647230000000  0.5976880000000  0.4463980000000 1.0
C      1  0.4104460000000  0.5221400000000  0.3994370000000 1.0
C      1  0.4838300000000  0.4133370000000  0.4937450000000 1.0
C      1  0.4313080000000  0.5798530000000  0.4170170000000 1.0
C      1  0.5250270000000  0.6211180000000  0.5250780000000 1.0
C      1  0.5751220000000  0.5202740000000  0.5763730000000 1.0
C      1  0.4191170000000  0.4744200000000  0.3946390000000 1.0
C      1  0.4976480000000  0.5024990000000  0.4374520000000 1.0
C      1  0.4530270000000  0.4632300000000  0.5169390000000 1.0
C      1  0.5035900000000  0.4670670000000  0.5213380000000 1.0
C      1  0.5223140000000  0.3844850000000  0.4808120000000 1.0
C      1  0.4374100000000  0.4293000000000  0.4077390000000 1.0
C      1  0.5558840000000  0.4141710000000  0.4625920000000 1.0
C      1  0.3827630000000  0.4983580000000  0.4477310000000 1.0
C      1  0.5218780000000  0.4533250000000  0.3774080000000 1.0
C      1  0.4665540000000  0.5938290000000  0.4993890000000 1.0
C      1  0.5195910000000  0.5482690000000  0.5122970000000 1.0
C      1  0.4107240000000  0.5634590000000  0.4230500000000 1.0
C      1  0.4739320000000  0.4330910000000  0.6027250000000 1.0
C      1  0.5569860000000  0.4446790000000  0.5192930000000 1.0
C      1  0.4506650000000  0.5042940000000  0.4198000000000 1.0
C      1  0.4696130000000  0.4580220000000  0.4740800000000 1.0
C      1  0.5845880000000  0.5205940000000  0.5505960000000 1.0
C      1  0.5562350000000  0.5075760000000  0.4326260000000 1.0
C      1  0.5191900000000  0.4794530000000  0.5635210000000 1.0
C      1  0.4018890000000  0.5189370000000  0.4472100000000 1.0
C      1  0.5557370000000  0.3965130000000  0.5165160000000 1.0
C      1  0.5169220000000  0.4027290000000  0.4349240000000 1.0
C      1  0.5749060000000  0.4960880000000  0.5911210000000 1.0
C      1  0.5365120000000  0.6131280000000  0.4569200000000 1.0
C      1  0.6009430000000  0.5018430000000  0.5371230000000 1.0
C      1  0.4986220000000  0.5114540000000  0.5318460000000 1.0
C      1  0.5250790000000  0.5262570000000  0.5775790000000 1.0
C      1  0.3850490000000  0.4762540000000  0.5080640000000 1.0
C      1  0.5462930000000  0.5320470000000  0.4245280000000 1.0
C      1  0.4871310000000  0.5839840000000  0.5187520000000 1.0
C      1  0.5150520000000  0.3857080000000  0.5295770000000 1.0
C      1  0.5296130000000  0.5516520000000  0.4314660000000 1.0
C      1  0.3545310000000  0.5168700000000  0.5214650000000 1.0
C      1  0.4596750000000  0.4777730000000  0.6145560000000 1.0
END
