TITL C-599890-3321-1294 3.1117714726313 125000 -92.2519726224458 0 0 16 (D(inf)h) n - 1
REM
REM in /home/nfs/bkarasulu/CARBON/AIRSS/Generating-Clusters/TERSOFF/Only-C1/FIRE-HFTN
REM
REM
REM
REM
REM
REM ./C.cell (11c1c37f851c82e70ff6c80c92926a4b)
REM AIRSS Version 0.9.1 bugfix July 2018 build 013d7b7c2542+ Fri, 06 Jul 2018 19:26:36 +0100
REM compiler GCC version 9.2.1 20190827 (Red Hat 9.2.1-1)
REM options -cpp -mtune=generic -march=x86-64 -g -O0 -fpre-include=/usr/include/finclude/math-vector-fortran.h
REM seed -1864285842 2063327504 666156949 -1281170706 1704779197 324944357 1591050077 1552334210 208670496 -2023341636 -83026438 -612002861 -1072423384 914088223 1016463181 1767413740 556341350 -1670244278 1069835872 -82614416 -527155020 363000273 -360417831 -943180077 -1822402996 1087534466 -874665010 103124991 130070295 1772386892 -875265165 1399892199 571322622
REM
CELL 1.54180   50.00000   50.00000   50.00000   90.00000   90.00000   90.00000
LATT -1
SFAC C  
C      1  0.3774200000000  0.5247200000000  0.5748700000000 1.0
C      1  0.5780060000000  0.4842690000000  0.4523560000000 1.0
C      1  0.3997070000000  0.5202250000000  0.5612570000000 1.0
C      1  0.4888570000000  0.5022460000000  0.5068070000000 1.0
C      1  0.3332000000000  0.5336380000000  0.6018770000000 1.0
C      1  0.4442820000000  0.5112350000000  0.5340330000000 1.0
C      1  0.5111440000000  0.4977520000000  0.4931950000000 1.0
C      1  0.6225800000000  0.4752810000000  0.4251290000000 1.0
C      1  0.6448730000000  0.4707860000000  0.4115130000000 1.0
C      1  0.4219950000000  0.5157300000000  0.5476450000000 1.0
C      1  0.6002930000000  0.4797750000000  0.4387430000000 1.0
C      1  0.4665690000000  0.5067410000000  0.5204200000000 1.0
C      1  0.5557180000000  0.4887630000000  0.4659690000000 1.0
C      1  0.6667990000000  0.4663650000000  0.3981200000000 1.0
C      1  0.5334310000000  0.4932580000000  0.4795820000000 1.0
C      1  0.3551260000000  0.5292160000000  0.5884860000000 1.0
END
