TITL C-599891-72-198 0.224911372922567 125000 -687.299265832421 0 0 112 (C1) n - 1
REM
REM in /home/nfs/bkarasulu/CARBON/AIRSS/Generating-Clusters/TERSOFF/Only-C1/FIRE-HFTN
REM
REM
REM
REM
REM
REM ./C.cell (11c1c37f851c82e70ff6c80c92926a4b)
REM AIRSS Version 0.9.1 bugfix July 2018 build 013d7b7c2542+ Fri, 06 Jul 2018 19:26:36 +0100
REM compiler GCC version 9.2.1 20190827 (Red Hat 9.2.1-1)
REM options -cpp -mtune=generic -march=x86-64 -g -O0 -fpre-include=/usr/include/finclude/math-vector-fortran.h
REM seed 296270537 -1074250690 1557898137 1066998161 1720500576 -1235968287 1170681631 -2112773721 -1074446352 -554551643 1344987020 -1064444471 -1487899270 559387050 -1060343740 -1623550149 1073803022 1321355224 -378153828 -293438174 -1983417869 1683385061 -1204529334 -88257179 -1004728040 -296757810 -634350469 687271210 -1774699649 -1885184601 1240696947 -1733113451 -1260075103
REM
CELL 1.54180   50.00000   50.00000   50.00000   90.00000   90.00000   90.00000
LATT -1
SFAC C  
C      1  0.5718890000000  0.4457780000000  0.4111560000000 1.0
C      1  0.4787140000000  0.5835480000000  0.5398780000000 1.0
C      1  0.4663360000000  0.5617990000000  0.5587620000000 1.0
C      1  0.4712080000000  0.5865290000000  0.5117280000000 1.0
C      1  0.4528570000000  0.5105190000000  0.4505670000000 1.0
C      1  0.5799040000000  0.5354250000000  0.4956020000000 1.0
C      1  0.5077570000000  0.5490990000000  0.4962330000000 1.0
C      1  0.5297140000000  0.4347420000000  0.3919270000000 1.0
C      1  0.4164070000000  0.5196090000000  0.5091690000000 1.0
C      1  0.5447580000000  0.4436330000000  0.5868030000000 1.0
C      1  0.4629840000000  0.4119470000000  0.4850070000000 1.0
C      1  0.4903490000000  0.5540700000000  0.5748890000000 1.0
C      1  0.5318630000000  0.5909070000000  0.4897570000000 1.0
C      1  0.4542280000000  0.3673840000000  0.5388730000000 1.0
C      1  0.4964170000000  0.4410450000000  0.5661700000000 1.0
C      1  0.5706420000000  0.4554710000000  0.4903000000000 1.0
C      1  0.5376310000000  0.5643130000000  0.5778170000000 1.0
C      1  0.4291650000000  0.4686050000000  0.4903160000000 1.0
C      1  0.5017510000000  0.5277220000000  0.5739000000000 1.0
C      1  0.5665370000000  0.5423680000000  0.4716250000000 1.0
C      1  0.4647080000000  0.5513420000000  0.4746810000000 1.0
C      1  0.5946730000000  0.4530630000000  0.4760060000000 1.0
C      1  0.4802130000000  0.5227980000000  0.5332030000000 1.0
C      1  0.4136100000000  0.4896050000000  0.5068150000000 1.0
C      1  0.5091370000000  0.6052200000000  0.4502300000000 1.0
C      1  0.4501100000000  0.5191040000000  0.5822360000000 1.0
C      1  0.5038510000000  0.4983260000000  0.4486620000000 1.0
C      1  0.4241910000000  0.4418990000000  0.5017760000000 1.0
C      1  0.4935720000000  0.5500480000000  0.4704200000000 1.0
C      1  0.5108060000000  0.5744190000000  0.5753560000000 1.0
C      1  0.4772550000000  0.5215970000000  0.4120820000000 1.0
C      1  0.4995500000000  0.5111840000000  0.5500560000000 1.0
C      1  0.4445940000000  0.5406770000000  0.5598040000000 1.0
C      1  0.5239520000000  0.5494770000000  0.4037900000000 1.0
C      1  0.5207700000000  0.4530200000000  0.4635430000000 1.0
C      1  0.5269320000000  0.5919750000000  0.4318170000000 1.0
C      1  0.5446940000000  0.5270880000000  0.4615720000000 1.0
C      1  0.4347970000000  0.4921580000000  0.4389130000000 1.0
C      1  0.4811940000000  0.6028950000000  0.4898220000000 1.0
C      1  0.6401530000000  0.4505280000000  0.4497860000000 1.0
C      1  0.4380850000000  0.4200940000000  0.4909730000000 1.0
C      1  0.5033660000000  0.4149540000000  0.5585050000000 1.0
C      1  0.5296440000000  0.5708880000000  0.5334980000000 1.0
C      1  0.5688460000000  0.5696680000000  0.4647760000000 1.0
C      1  0.4983050000000  0.4444790000000  0.4797880000000 1.0
C      1  0.4176270000000  0.4466440000000  0.5298100000000 1.0
C      1  0.4410800000000  0.4840710000000  0.5457830000000 1.0
C      1  0.5221430000000  0.4993680000000  0.4932790000000 1.0
C      1  0.5770840000000  0.4280780000000  0.5550300000000 1.0
C      1  0.5339760000000  0.4698230000000  0.5905620000000 1.0
C      1  0.4652260000000  0.4756740000000  0.3776100000000 1.0
C      1  0.4448840000000  0.5326730000000  0.4669900000000 1.0
C      1  0.5849840000000  0.4452400000000  0.5361210000000 1.0
C      1  0.4921550000000  0.4957530000000  0.6065740000000 1.0
C      1  0.4643320000000  0.4958000000000  0.5949480000000 1.0
C      1  0.5071050000000  0.5180600000000  0.5994980000000 1.0
C      1  0.4654470000000  0.6043370000000  0.4646700000000 1.0
C      1  0.4642040000000  0.5599320000000  0.5027470000000 1.0
C      1  0.4870770000000  0.4029610000000  0.5376030000000 1.0
C      1  0.5219870000000  0.5216060000000  0.3979210000000 1.0
C      1  0.5464400000000  0.4996060000000  0.5064190000000 1.0
C      1  0.4217540000000  0.5320170000000  0.4838110000000 1.0
C      1  0.5516900000000  0.4249290000000  0.5665880000000 1.0
C      1  0.6177260000000  0.4517630000000  0.4630190000000 1.0
C      1  0.4612960000000  0.3933550000000  0.5432790000000 1.0
C      1  0.4553740000000  0.5066420000000  0.5304230000000 1.0
C      1  0.5219140000000  0.5108980000000  0.4673790000000 1.0
C      1  0.4447090000000  0.4701180000000  0.3939530000000 1.0
C      1  0.4615830000000  0.4677080000000  0.5861240000000 1.0
C      1  0.4850480000000  0.5818590000000  0.4184450000000 1.0
C      1  0.4861290000000  0.4924930000000  0.3755950000000 1.0
C      1  0.5605650000000  0.4872600000000  0.5272110000000 1.0
C      1  0.4329270000000  0.4766540000000  0.4171030000000 1.0
C      1  0.4342190000000  0.4382220000000  0.5521050000000 1.0
C      1  0.5065470000000  0.4710120000000  0.6015120000000 1.0
C      1  0.5130980000000  0.5733020000000  0.4143300000000 1.0
C      1  0.4856220000000  0.5424210000000  0.5143100000000 1.0
C      1  0.4579170000000  0.5003150000000  0.5018250000000 1.0
C      1  0.4848670000000  0.4664040000000  0.4920640000000 1.0
C      1  0.5093390000000  0.6043910000000  0.4792330000000 1.0
C      1  0.5300090000000  0.4067610000000  0.5224010000000 1.0
C      1  0.5626660000000  0.5319540000000  0.5453910000000 1.0
C      1  0.5075250000000  0.5850970000000  0.5477380000000 1.0
C      1  0.4809580000000  0.6002350000000  0.4406500000000 1.0
C      1  0.5565240000000  0.5907710000000  0.4761530000000 1.0
C      1  0.4432320000000  0.4120430000000  0.5539060000000 1.0
C      1  0.5262890000000  0.5682300000000  0.5058240000000 1.0
C      1  0.4154430000000  0.4765030000000  0.5326250000000 1.0
C      1  0.5025020000000  0.4062620000000  0.5124490000000 1.0
C      1  0.5453730000000  0.4512910000000  0.4071310000000 1.0
C      1  0.5166980000000  0.4726610000000  0.4417820000000 1.0
C      1  0.4866390000000  0.4532670000000  0.5895230000000 1.0
C      1  0.5382480000000  0.5002290000000  0.4069690000000 1.0
C      1  0.5339450000000  0.4744880000000  0.4187330000000 1.0
C      1  0.4334840000000  0.5282930000000  0.5337050000000 1.0
C      1  0.4954560000000  0.5130720000000  0.3922600000000 1.0
C      1  0.4902010000000  0.4186260000000  0.4898000000000 1.0
C      1  0.5464550000000  0.4509400000000  0.4760060000000 1.0
C      1  0.5794660000000  0.5357860000000  0.5224570000000 1.0
C      1  0.4346180000000  0.5506870000000  0.3966530000000 1.0
C      1  0.4560960000000  0.5384040000000  0.4048610000000 1.0
C      1  0.5475150000000  0.4907230000000  0.5753840000000 1.0
C      1  0.5045960000000  0.4606260000000  0.5477730000000 1.0
C      1  0.5469790000000  0.5550190000000  0.5520550000000 1.0
C      1  0.4791810000000  0.5100690000000  0.4383840000000 1.0
C      1  0.5023610000000  0.4845550000000  0.5069780000000 1.0
C      1  0.4463660000000  0.4620050000000  0.5634410000000 1.0
C      1  0.5727860000000  0.4629960000000  0.5183120000000 1.0
C      1  0.5043560000000  0.4856260000000  0.5360450000000 1.0
C      1  0.5585270000000  0.5031120000000  0.5517910000000 1.0
C      1  0.4576600000000  0.4751870000000  0.4891500000000 1.0
C      1  0.5316590000000  0.4120720000000  0.5512050000000 1.0
END
