TITL C-599893-4344-595 19234.9813764298 125000 -1129.40539665709 0 0 185 (C1) n - 1
REM
REM in /home/nfs/bkarasulu/CARBON/AIRSS/Generating-Clusters/TERSOFF/Only-C1/FIRE-HFTN
REM
REM
REM
REM
REM
REM ./C.cell (11c1c37f851c82e70ff6c80c92926a4b)
REM AIRSS Version 0.9.1 bugfix July 2018 build 013d7b7c2542+ Fri, 06 Jul 2018 19:26:36 +0100
REM compiler GCC version 9.2.1 20190827 (Red Hat 9.2.1-1)
REM options -cpp -mtune=generic -march=x86-64 -g -O0 -fpre-include=/usr/include/finclude/math-vector-fortran.h
REM seed -994380015 -1767719017 1002303713 1873923594 -393985659 550736397 30916242 -274581499 -2000972141 1361740794 -652244087 21005152 -239599886 22581612 -1537595191 -1171696748 1262594304 1541671359 -1046336418 -1961956925 399473816 256799279 -930467229 -898745809 -2069136723 -1101359252 -935669670 1075141284 1190015848 -1901409200 -95006886 493052184 1676156499
REM
CELL 1.54180   50.00000   50.00000   50.00000   90.00000   90.00000   90.00000
LATT -1
SFAC C  
C      1  0.5589790000000  0.5641570000000  0.4452730000000 1.0
C      1  0.5236330000000  0.5770250000000  0.5175130000000 1.0
C      1  0.5917090000000  0.4656250000000  0.4448860000000 1.0
C      1  0.4918760000000  0.4455060000000  0.5771010000000 1.0
C      1  0.5158820000000  0.4623290000000  0.4024670000000 1.0
C      1  0.5456770000000  0.4252830000000  0.4593890000000 1.0
C      1  0.6129880000000  0.5389800000000  0.4220950000000 1.0
C      1  0.5109090000000  0.3846130000000  0.5406340000000 1.0
C      1  0.6528370000000  0.5611630000000  0.4052800000000 1.0
C      1  0.5196390000000  0.5346110000000  0.5322030000000 1.0
C      1  0.4539640000000  0.5564830000000  0.4587260000000 1.0
C      1  0.5166650000000  0.4779020000000  0.4660210000000 1.0
C      1  0.6240870000000  0.4691740000000  0.4785490000000 1.0
C      1  0.5154310000000  0.3906680000000  0.4607510000000 1.0
C      1  0.5943260000000  0.5773390000000  0.5106770000000 1.0
C      1  0.4704710000000  0.4710110000000  0.5430870000000 1.0
C      1  0.5131940000000  0.4002820000000  0.4320380000000 1.0
C      1  0.5383770000000  0.4015210000000  0.4754500000000 1.0
C      1  0.4086790000000  0.4485060000000  0.5386710000000 1.0
C      1  0.6168320000000  0.4912700000000  0.4949150000000 1.0
C      1  0.3882610000000  0.5242320000000  0.5087510000000 1.0
C      1  0.5161960000000  0.5137930000000  0.3957010000000 1.0
C      1  0.4943490000000  0.4977960000000  0.6564510000000 1.0
C      1  0.4576980000000  0.4161590000000  0.4966460000000 1.0
C      1  0.4607590000000  0.5988320000000  0.4814510000000 1.0
C      1  0.3919000000000  0.5279680000000  0.5381790000000 1.0
C      1  0.3880080000000  0.5194790000000  0.3870290000000 1.0
C      1  0.5635430000000  0.4341740000000  0.5608990000000 1.0
C      1  0.4619260000000  0.3961190000000  0.5450150000000 1.0
C      1  0.4090510000000  0.4684310000000  0.4094890000000 1.0
C      1  0.5580740000000  0.4615870000000  0.4160890000000 1.0
C      1  0.4668040000000  0.5369280000000  0.4436890000000 1.0
C      1  0.5562900000000  0.6058440000000  0.4827660000000 1.0
C      1  0.4753840000000  0.5150990000000  0.5430040000000 1.0
C      1  0.4118600000000  0.4421350000000  0.5078360000000 1.0
C      1  0.4936580000000  0.4037970000000  0.4741310000000 1.0
C      1  0.6112900000000  0.5680400000000  0.4892470000000 1.0
C      1  0.4661880000000  0.5603840000000  0.5337430000000 1.0
C      1  0.4539740000000  0.5844870000000  0.4578860000000 1.0
C      1  0.5399890000000  0.4074140000000  0.5038220000000 1.0
C      1  0.3939080000000  0.5699700000000  0.5107290000000 1.0
C      1  0.4573270000000  0.4020820000000  0.4287460000000 1.0
C      1  0.6323850000000  0.5592740000000  0.4231510000000 1.0
C      1  0.4723150000000  0.4564620000000  0.5958210000000 1.0
C      1  0.5126330000000  0.5612320000000  0.5381070000000 1.0
C      1  0.5281340000000  0.5792540000000  0.6242040000000 1.0
C      1  0.5961380000000  0.4745240000000  0.5798410000000 1.0
C      1  0.3741740000000  0.4882320000000  0.4671060000000 1.0
C      1  0.4909930000000  0.4325470000000  0.5265790000000 1.0
C      1  0.3772030000000  0.5413070000000  0.4657460000000 1.0
C      1  0.5339750000000  0.4469440000000  0.5270070000000 1.0
C      1  0.5782180000000  0.4594140000000  0.5630590000000 1.0
C      1  0.5204670000000  0.4459130000000  0.5802030000000 1.0
C      1  0.4979750000000  0.5031600000000  0.5813000000000 1.0
C      1  0.5796820000000  0.4965420000000  0.5284720000000 1.0
C      1  0.4786550000000  0.5179270000000  0.5704100000000 1.0
C      1  0.4947630000000  0.4623720000000  0.4222600000000 1.0
C      1  0.5432780000000  0.5347350000000  0.5770490000000 1.0
C      1  0.4897910000000  0.6023060000000  0.4834680000000 1.0
C      1  0.4018350000000  0.4919510000000  0.4244420000000 1.0
C      1  0.4409400000000  0.5946730000000  0.5027670000000 1.0
C      1  0.3993930000000  0.4902530000000  0.4525480000000 1.0
C      1  0.6135610000000  0.5167880000000  0.4822770000000 1.0
C      1  0.5630750000000  0.4707440000000  0.4431000000000 1.0
C      1  0.4790260000000  0.4635430000000  0.4929020000000 1.0
C      1  0.3911800000000  0.5544290000000  0.4435100000000 1.0
C      1  0.4674820000000  0.4900170000000  0.4876690000000 1.0
C      1  0.4356660000000  0.5030720000000  0.6106830000000 1.0
C      1  0.5508330000000  0.5392180000000  0.4558470000000 1.0
C      1  0.3733340000000  0.4675750000000  0.4888820000000 1.0
C      1  0.5055070000000  0.5952910000000  0.5059320000000 1.0
C      1  0.6015390000000  0.4822630000000  0.5174870000000 1.0
C      1  0.6017860000000  0.4531350000000  0.5228860000000 1.0
C      1  0.6025390000000  0.4777060000000  0.4214390000000 1.0
C      1  0.4306440000000  0.4837880000000  0.5908080000000 1.0
C      1  0.5976100000000  0.5646910000000  0.5371730000000 1.0
C      1  0.4433230000000  0.4137230000000  0.5547330000000 1.0
C      1  0.5845940000000  0.4396410000000  0.4833160000000 1.0
C      1  0.4284680000000  0.4652910000000  0.4987400000000 1.0
C      1  0.5679970000000  0.5308170000000  0.4766360000000 1.0
C      1  0.4292330000000  0.4387460000000  0.5603510000000 1.0
C      1  0.4821520000000  0.5660000000000  0.6009770000000 1.0
C      1  0.4615000000000  0.5008820000000  0.4060660000000 1.0
C      1  0.4834490000000  0.4467880000000  0.5500780000000 1.0
C      1  0.6073190000000  0.5782420000000  0.4624920000000 1.0
C      1  0.5488930000000  0.5664430000000  0.5074170000000 1.0
C      1  0.4125020000000  0.5897960000000  0.5013520000000 1.0
C      1  0.5066060000000  0.6040790000000  0.4594410000000 1.0
C      1  0.3858960000000  0.5814390000000  0.4403320000000 1.0
C      1  0.3701940000000  0.4753390000000  0.5170040000000 1.0
C      1  0.4844880000000  0.3884930000000  0.5274830000000 1.0
C      1  0.4449690000000  0.4823520000000  0.5480600000000 1.0
C      1  0.4319460000000  0.5315940000000  0.4997260000000 1.0
C      1  0.4952500000000  0.5957580000000  0.4343010000000 1.0
C      1  0.5105910000000  0.4935870000000  0.5138960000000 1.0
C      1  0.5079250000000  0.5216800000000  0.5086170000000 1.0
C      1  0.5366960000000  0.4435500000000  0.4121790000000 1.0
C      1  0.3826180000000  0.5486440000000  0.4932370000000 1.0
C      1  0.4988730000000  0.4550020000000  0.4748430000000 1.0
C      1  0.5273730000000  0.4816160000000  0.4947270000000 1.0
C      1  0.5362610000000  0.4445370000000  0.5560300000000 1.0
C      1  0.5352850000000  0.4547750000000  0.6030560000000 1.0
C      1  0.4263020000000  0.4723420000000  0.3876210000000 1.0
C      1  0.6031090000000  0.4539050000000  0.4672520000000 1.0
C      1  0.4403600000000  0.5473040000000  0.4806750000000 1.0
C      1  0.4790690000000  0.6068190000000  0.5757840000000 1.0
C      1  0.5533990000000  0.4734390000000  0.6109520000000 1.0
C      1  0.4707620000000  0.4397280000000  0.5067900000000 1.0
C      1  0.5652970000000  0.5220880000000  0.5259850000000 1.0
C      1  0.4201070000000  0.4987930000000  0.4695100000000 1.0
C      1  0.5434160000000  0.4591650000000  0.5018780000000 1.0
C      1  0.5361970000000  0.3913250000000  0.5504490000000 1.0
C      1  0.5566010000000  0.4442520000000  0.4789920000000 1.0
C      1  0.5960380000000  0.5530590000000  0.5639850000000 1.0
C      1  0.4963740000000  0.5289660000000  0.3821700000000 1.0
C      1  0.4918290000000  0.4317330000000  0.4617980000000 1.0
C      1  0.4492240000000  0.4861320000000  0.3876360000000 1.0
C      1  0.5963860000000  0.5254430000000  0.5739450000000 1.0
C      1  0.3995420000000  0.5025490000000  0.5524810000000 1.0
C      1  0.5346060000000  0.6088840000000  0.4659790000000 1.0
C      1  0.4794590000000  0.5217290000000  0.4993450000000 1.0
C      1  0.5679940000000  0.5870210000000  0.5014220000000 1.0
C      1  0.3934820000000  0.4281050000000  0.4634950000000 1.0
C      1  0.6288490000000  0.5775540000000  0.4443130000000 1.0
C      1  0.4853100000000  0.4094060000000  0.4237430000000 1.0
C      1  0.4462820000000  0.5274400000000  0.6146170000000 1.0
C      1  0.4836550000000  0.4744720000000  0.6157420000000 1.0
C      1  0.4667550000000  0.5337380000000  0.5233280000000 1.0
C      1  0.3897290000000  0.4426020000000  0.4875200000000 1.0
C      1  0.5881480000000  0.5012420000000  0.5883340000000 1.0
C      1  0.5536700000000  0.5840580000000  0.6186180000000 1.0
C      1  0.5229930000000  0.5241610000000  0.4209430000000 1.0
C      1  0.4611350000000  0.5638070000000  0.4038540000000 1.0
C      1  0.5906150000000  0.5719820000000  0.5843780000000 1.0
C      1  0.5670090000000  0.4111440000000  0.5185230000000 1.0
C      1  0.4881430000000  0.4903960000000  0.5327130000000 1.0
C      1  0.4152270000000  0.4866280000000  0.5129910000000 1.0
C      1  0.4333730000000  0.5562700000000  0.4119760000000 1.0
C      1  0.4094440000000  0.5426180000000  0.4235760000000 1.0
C      1  0.4415780000000  0.4114820000000  0.4744270000000 1.0
C      1  0.4654740000000  0.5158170000000  0.4276490000000 1.0
C      1  0.5918180000000  0.5198630000000  0.4634040000000 1.0
C      1  0.4360200000000  0.4113110000000  0.4465670000000 1.0
C      1  0.5589670000000  0.4872180000000  0.4005940000000 1.0
C      1  0.5937010000000  0.5209470000000  0.4327660000000 1.0
C      1  0.3946790000000  0.5573760000000  0.5383140000000 1.0
C      1  0.4002850000000  0.5178100000000  0.4116320000000 1.0
C      1  0.4432330000000  0.4573930000000  0.5870610000000 1.0
C      1  0.4831070000000  0.5796050000000  0.5757660000000 1.0
C      1  0.5635980000000  0.4996080000000  0.6041210000000 1.0
C      1  0.4864960000000  0.4369900000000  0.4335270000000 1.0
C      1  0.5180020000000  0.4244760000000  0.5173140000000 1.0
C      1  0.5610570000000  0.4079910000000  0.5470890000000 1.0
C      1  0.5193590000000  0.5126800000000  0.6181230000000 1.0
C      1  0.5424330000000  0.4893870000000  0.4521660000000 1.0
C      1  0.5189210000000  0.4898440000000  0.5714420000000 1.0
C      1  0.5882290000000  0.4305060000000  0.5102230000000 1.0
C      1  0.5606190000000  0.5391780000000  0.5032660000000 1.0
C      1  0.5647310000000  0.4807870000000  0.5476040000000 1.0
C      1  0.5343660000000  0.4224500000000  0.4316510000000 1.0
C      1  0.4796650000000  0.3965090000000  0.4986360000000 1.0
C      1  0.4247050000000  0.4947770000000  0.5650000000000 1.0
C      1  0.5382180000000  0.5174530000000  0.4432990000000 1.0
C      1  0.5427130000000  0.5194850000000  0.6021200000000 1.0
C      1  0.4762460000000  0.5468020000000  0.3861180000000 1.0
C      1  0.4070430000000  0.4425070000000  0.4198980000000 1.0
C      1  0.5034080000000  0.5713320000000  0.6185440000000 1.0
C      1  0.4119320000000  0.5106790000000  0.4967900000000 1.0
C      1  0.4417710000000  0.4817290000000  0.4779810000000 1.0
C      1  0.5428710000000  0.5236390000000  0.5478920000000 1.0
C      1  0.4992180000000  0.4949110000000  0.6294220000000 1.0
C      1  0.3634540000000  0.5153730000000  0.4642490000000 1.0
C      1  0.5814830000000  0.5783250000000  0.4504180000000 1.0
C      1  0.6230600000000  0.5419750000000  0.4914230000000 1.0
C      1  0.4882200000000  0.5668330000000  0.5509300000000 1.0
C      1  0.3952760000000  0.4779300000000  0.5345620000000 1.0
C      1  0.4775480000000  0.5839750000000  0.4170980000000 1.0
C      1  0.5848580000000  0.4999780000000  0.4128970000000 1.0
C      1  0.4111050000000  0.4248550000000  0.4411930000000 1.0
C      1  0.5293530000000  0.4882580000000  0.3923790000000 1.0
C      1  0.5757420000000  0.5821050000000  0.6039400000000 1.0
C      1  0.5408260000000  0.4942170000000  0.5548850000000 1.0
C      1  0.4982910000000  0.4837930000000  0.4415770000000 1.0
C      1  0.4515660000000  0.5822380000000  0.5254550000000 1.0
C      1  0.4611410000000  0.5490120000000  0.6090190000000 1.0
END
