TITL C-599894-471-292 0.00105054543515027 125000 -445.891249755565 0 0 75 (C1) n - 1
REM
REM in /home/nfs/bkarasulu/CARBON/AIRSS/Generating-Clusters/TERSOFF/Only-C1/FIRE-HFTN
REM
REM
REM
REM
REM
REM ./C.cell (11c1c37f851c82e70ff6c80c92926a4b)
REM AIRSS Version 0.9.1 bugfix July 2018 build 013d7b7c2542+ Fri, 06 Jul 2018 19:26:36 +0100
REM compiler GCC version 9.2.1 20190827 (Red Hat 9.2.1-1)
REM options -cpp -mtune=generic -march=x86-64 -g -O0 -fpre-include=/usr/include/finclude/math-vector-fortran.h
REM seed 2095766228 -9895629 970161399 906494272 -1388414276 1389980350 1754508081 -1020539275 607447994 -807871564 -1302887023 939020236 1295499124 260617155 -822269469 89485786 -448124217 -706071327 1814072861 -1952583388 1859839501 -8241783 1589528844 -1382157855 -1466161623 -2005096556 1768062063 773432807 -92427625 1097539071 1363715035 -1978700440 329510912
REM
CELL 1.54180   50.00000   50.00000   50.00000   90.00000   90.00000   90.00000
LATT -1
SFAC C  
C      1  0.4728380000000  0.5138170000000  0.4969840000000 1.0
C      1  0.4304530000000  0.5391330000000  0.4698230000000 1.0
C      1  0.4896480000000  0.5495960000000  0.4335490000000 1.0
C      1  0.4819210000000  0.4638170000000  0.5659460000000 1.0
C      1  0.5429870000000  0.4969460000000  0.4818050000000 1.0
C      1  0.5807010000000  0.4795230000000  0.4616340000000 1.0
C      1  0.4797350000000  0.4628160000000  0.3983550000000 1.0
C      1  0.4210580000000  0.4992410000000  0.5025630000000 1.0
C      1  0.4885940000000  0.4152220000000  0.4576280000000 1.0
C      1  0.4578930000000  0.5229960000000  0.5524520000000 1.0
C      1  0.5066910000000  0.4649390000000  0.4952400000000 1.0
C      1  0.5029470000000  0.5603230000000  0.4804920000000 1.0
C      1  0.4893900000000  0.5070020000000  0.4746450000000 1.0
C      1  0.5167080000000  0.5873640000000  0.4853570000000 1.0
C      1  0.5329950000000  0.5050480000000  0.5271220000000 1.0
C      1  0.5630960000000  0.5605490000000  0.4784250000000 1.0
C      1  0.4556040000000  0.5454670000000  0.5332150000000 1.0
C      1  0.4925070000000  0.4727520000000  0.5178400000000 1.0
C      1  0.5581630000000  0.5568590000000  0.5851970000000 1.0
C      1  0.4801910000000  0.4234880000000  0.5075550000000 1.0
C      1  0.4753090000000  0.5373960000000  0.4127590000000 1.0
C      1  0.4591630000000  0.5361900000000  0.5065830000000 1.0
C      1  0.5530080000000  0.4529150000000  0.5660850000000 1.0
C      1  0.5365110000000  0.5679820000000  0.5734740000000 1.0
C      1  0.4530950000000  0.4358920000000  0.5083280000000 1.0
C      1  0.5533560000000  0.4535720000000  0.5154690000000 1.0
C      1  0.5206480000000  0.5399760000000  0.4655800000000 1.0
C      1  0.4721350000000  0.5147900000000  0.3987950000000 1.0
C      1  0.4327800000000  0.4841630000000  0.5234550000000 1.0
C      1  0.4887400000000  0.4557860000000  0.5392370000000 1.0
C      1  0.4199310000000  0.5184200000000  0.4836250000000 1.0
C      1  0.5658910000000  0.5309560000000  0.5846150000000 1.0
C      1  0.5185960000000  0.5232150000000  0.5098140000000 1.0
C      1  0.5654720000000  0.5054900000000  0.4624260000000 1.0
C      1  0.5099070000000  0.5285240000000  0.5630010000000 1.0
C      1  0.5697310000000  0.4551510000000  0.4676950000000 1.0
C      1  0.5162480000000  0.5562670000000  0.5578650000000 1.0
C      1  0.4542230000000  0.4718990000000  0.5654780000000 1.0
C      1  0.5671610000000  0.4588960000000  0.5430170000000 1.0
C      1  0.4827510000000  0.4399390000000  0.4118040000000 1.0
C      1  0.5718630000000  0.5350300000000  0.4730010000000 1.0
C      1  0.5311690000000  0.5104470000000  0.5549550000000 1.0
C      1  0.5185700000000  0.5138220000000  0.4802490000000 1.0
C      1  0.4875090000000  0.5862940000000  0.5280250000000 1.0
C      1  0.4942550000000  0.4282290000000  0.5330250000000 1.0
C      1  0.5452220000000  0.5812830000000  0.4821010000000 1.0
C      1  0.5201790000000  0.4244280000000  0.5448110000000 1.0
C      1  0.4333290000000  0.4646090000000  0.4450400000000 1.0
C      1  0.4622060000000  0.5738280000000  0.5356680000000 1.0
C      1  0.5078260000000  0.5486540000000  0.5103550000000 1.0
C      1  0.4995870000000  0.6007190000000  0.5053520000000 1.0
C      1  0.4826420000000  0.5226760000000  0.5667930000000 1.0
C      1  0.4379650000000  0.4503810000000  0.5533790000000 1.0
C      1  0.5462030000000  0.4854190000000  0.5098230000000 1.0
C      1  0.4565000000000  0.4772650000000  0.4474540000000 1.0
C      1  0.4368120000000  0.4541910000000  0.5242890000000 1.0
C      1  0.4453430000000  0.4964310000000  0.5490650000000 1.0
C      1  0.5168900000000  0.5408590000000  0.4372300000000 1.0
C      1  0.4510690000000  0.5556290000000  0.4640260000000 1.0
C      1  0.5539080000000  0.5104100000000  0.5717780000000 1.0
C      1  0.5408360000000  0.4258210000000  0.5256210000000 1.0
C      1  0.4975830000000  0.4226610000000  0.4832480000000 1.0
C      1  0.4787330000000  0.5598660000000  0.4595100000000 1.0
C      1  0.5067400000000  0.5652750000000  0.5330740000000 1.0
C      1  0.4752840000000  0.4887460000000  0.3937520000000 1.0
C      1  0.4846610000000  0.4229700000000  0.4323360000000 1.0
C      1  0.5044400000000  0.4546830000000  0.5813040000000 1.0
C      1  0.5556080000000  0.5113570000000  0.4341580000000 1.0
C      1  0.5494190000000  0.4454510000000  0.4848690000000 1.0
C      1  0.5266910000000  0.4412140000000  0.5684760000000 1.0
C      1  0.5196430000000  0.4423620000000  0.4835020000000 1.0
C      1  0.4778050000000  0.4913420000000  0.4548250000000 1.0
C      1  0.4108820000000  0.4513990000000  0.4440110000000 1.0
C      1  0.5362970000000  0.5266130000000  0.4230660000000 1.0
C      1  0.4775580000000  0.4953160000000  0.5169010000000 1.0
END
