TITL C-599893-4344-714 -0.0660891497927561 125000 -1159.13404134342 0 0 188 (C1) n - 1
REM
REM in /home/nfs/bkarasulu/CARBON/AIRSS/Generating-Clusters/TERSOFF/Only-C1/FIRE-HFTN
REM
REM
REM
REM
REM
REM ./C.cell (11c1c37f851c82e70ff6c80c92926a4b)
REM AIRSS Version 0.9.1 bugfix July 2018 build 013d7b7c2542+ Fri, 06 Jul 2018 19:26:36 +0100
REM compiler GCC version 9.2.1 20190827 (Red Hat 9.2.1-1)
REM options -cpp -mtune=generic -march=x86-64 -g -O0 -fpre-include=/usr/include/finclude/math-vector-fortran.h
REM seed 1616924976 -1534912843 -967852956 2050218404 2024784644 -220082243 1868234597 -1576191336 52279598 1628369558 -2129180095 -819117398 675719573 -741983223 1266852379 -1666840349 -1521191916 -677050144 -634634497 1141744797 233775178 430004558 -414565563 -1102003144 -595689282 -1704864356 359489922 -1061624973 587077684 -226636298 1707279526 -1370343780 975948545
REM
CELL 1.54180   50.00000   50.00000   50.00000   90.00000   90.00000   90.00000
LATT -1
SFAC C  
C      1  0.5008610000000  0.4620060000000  0.5940540000000 1.0
C      1  0.3977840000000  0.4424140000000  0.4475020000000 1.0
C      1  0.3671290000000  0.4911330000000  0.5059050000000 1.0
C      1  0.4707440000000  0.4895600000000  0.4527720000000 1.0
C      1  0.3520770000000  0.5726110000000  0.5150500000000 1.0
C      1  0.4138820000000  0.5296790000000  0.5050570000000 1.0
C      1  0.5990090000000  0.4621730000000  0.5685430000000 1.0
C      1  0.5424020000000  0.5882460000000  0.5257290000000 1.0
C      1  0.4911310000000  0.4247860000000  0.4179300000000 1.0
C      1  0.4405590000000  0.5407260000000  0.5853150000000 1.0
C      1  0.4637700000000  0.5246450000000  0.3698400000000 1.0
C      1  0.4531740000000  0.5964840000000  0.5978450000000 1.0
C      1  0.6622510000000  0.5591030000000  0.4661330000000 1.0
C      1  0.4260890000000  0.4036020000000  0.4686470000000 1.0
C      1  0.3637450000000  0.5300400000000  0.5370590000000 1.0
C      1  0.5755070000000  0.6030450000000  0.4379910000000 1.0
C      1  0.5039700000000  0.5350020000000  0.6159170000000 1.0
C      1  0.4821450000000  0.5353650000000  0.5537540000000 1.0
C      1  0.6589720000000  0.5353050000000  0.4775280000000 1.0
C      1  0.4549330000000  0.4432180000000  0.4796880000000 1.0
C      1  0.4568130000000  0.5824720000000  0.6202110000000 1.0
C      1  0.5512560000000  0.3991070000000  0.3265070000000 1.0
C      1  0.4156500000000  0.5505490000000  0.5845960000000 1.0
C      1  0.4453540000000  0.3999200000000  0.4465870000000 1.0
C      1  0.4748940000000  0.3905410000000  0.5304780000000 1.0
C      1  0.4086100000000  0.5084930000000  0.4868970000000 1.0
C      1  0.5769090000000  0.5143960000000  0.5534660000000 1.0
C      1  0.5220600000000  0.4360250000000  0.4799450000000 1.0
C      1  0.4924870000000  0.5978660000000  0.5368910000000 1.0
C      1  0.5846450000000  0.4864560000000  0.6107910000000 1.0
C      1  0.4829780000000  0.4151030000000  0.5438990000000 1.0
C      1  0.5281530000000  0.3918910000000  0.4972940000000 1.0
C      1  0.4671970000000  0.4892460000000  0.6155990000000 1.0
C      1  0.6229350000000  0.5027680000000  0.5010670000000 1.0
C      1  0.4651500000000  0.4300400000000  0.4055040000000 1.0
C      1  0.3869990000000  0.4443570000000  0.5411390000000 1.0
C      1  0.4229060000000  0.5809130000000  0.5081630000000 1.0
C      1  0.5674690000000  0.5920820000000  0.5386630000000 1.0
C      1  0.5519820000000  0.4670550000000  0.5757460000000 1.0
C      1  0.4843300000000  0.4395610000000  0.5857960000000 1.0
C      1  0.6147770000000  0.4844950000000  0.5614520000000 1.0
C      1  0.4210200000000  0.4151030000000  0.5206420000000 1.0
C      1  0.4670620000000  0.5047810000000  0.5000540000000 1.0
C      1  0.5719000000000  0.5065210000000  0.4135790000000 1.0
C      1  0.5128380000000  0.5853880000000  0.4317290000000 1.0
C      1  0.6045700000000  0.5898780000000  0.5091760000000 1.0
C      1  0.4652870000000  0.4349900000000  0.5039720000000 1.0
C      1  0.5625430000000  0.4292040000000  0.3946740000000 1.0
C      1  0.6076470000000  0.5273300000000  0.5863460000000 1.0
C      1  0.4042940000000  0.4390330000000  0.5192590000000 1.0
C      1  0.4080170000000  0.5843970000000  0.5511780000000 1.0
C      1  0.4049860000000  0.4671440000000  0.4394860000000 1.0
C      1  0.4817800000000  0.3431430000000  0.5552960000000 1.0
C      1  0.4616330000000  0.5608220000000  0.6375530000000 1.0
C      1  0.5656930000000  0.4860560000000  0.4859970000000 1.0
C      1  0.6027940000000  0.5099510000000  0.5642100000000 1.0
C      1  0.5489950000000  0.6439830000000  0.4291650000000 1.0
C      1  0.4636740000000  0.3921300000000  0.5033930000000 1.0
C      1  0.6038590000000  0.5959240000000  0.4811090000000 1.0
C      1  0.6248070000000  0.4754540000000  0.5012300000000 1.0
C      1  0.4779940000000  0.3657560000000  0.5429130000000 1.0
C      1  0.5772950000000  0.5212750000000  0.5265880000000 1.0
C      1  0.5355030000000  0.4581810000000  0.3705120000000 1.0
C      1  0.5929610000000  0.4290170000000  0.4577220000000 1.0
C      1  0.5511710000000  0.4122690000000  0.4395280000000 1.0
C      1  0.5251820000000  0.5864640000000  0.5697440000000 1.0
C      1  0.5355790000000  0.4233340000000  0.5360480000000 1.0
C      1  0.3398600000000  0.5292550000000  0.4948670000000 1.0
C      1  0.6104940000000  0.5543510000000  0.5780330000000 1.0
C      1  0.5720490000000  0.6299520000000  0.4297030000000 1.0
C      1  0.4037040000000  0.4195640000000  0.4606910000000 1.0
C      1  0.5275190000000  0.5553460000000  0.3956680000000 1.0
C      1  0.5530180000000  0.5164710000000  0.5686810000000 1.0
C      1  0.5794980000000  0.5990480000000  0.4661140000000 1.0
C      1  0.5609090000000  0.5836350000000  0.4229170000000 1.0
C      1  0.4292100000000  0.4109260000000  0.5480020000000 1.0
C      1  0.6442150000000  0.5176380000000  0.4906950000000 1.0
C      1  0.4361750000000  0.5923170000000  0.5512710000000 1.0
C      1  0.4880530000000  0.4679590000000  0.4589630000000 1.0
C      1  0.5091730000000  0.4616420000000  0.4774400000000 1.0
C      1  0.4826880000000  0.5724920000000  0.4949760000000 1.0
C      1  0.4948460000000  0.4985540000000  0.3980700000000 1.0
C      1  0.4912360000000  0.5237930000000  0.5015270000000 1.0
C      1  0.3894070000000  0.4628750000000  0.5604970000000 1.0
C      1  0.6072730000000  0.5717280000000  0.5573800000000 1.0
C      1  0.4809320000000  0.5416350000000  0.6303860000000 1.0
C      1  0.5136180000000  0.4550240000000  0.3885010000000 1.0
C      1  0.5216700000000  0.5563320000000  0.6110410000000 1.0
C      1  0.4234450000000  0.4882760000000  0.4419590000000 1.0
C      1  0.5567720000000  0.5082720000000  0.4661440000000 1.0
C      1  0.4740650000000  0.4387850000000  0.5300910000000 1.0
C      1  0.5650970000000  0.4597870000000  0.4988660000000 1.0
C      1  0.5138490000000  0.5061710000000  0.4922090000000 1.0
C      1  0.5405380000000  0.4024270000000  0.5182430000000 1.0
C      1  0.4728450000000  0.3980140000000  0.4554890000000 1.0
C      1  0.3487280000000  0.5449420000000  0.5170940000000 1.0
C      1  0.4443690000000  0.4139560000000  0.4198520000000 1.0
C      1  0.5096160000000  0.4087660000000  0.4843800000000 1.0
C      1  0.5235950000000  0.6361830000000  0.4333470000000 1.0
C      1  0.5558830000000  0.5365790000000  0.5181880000000 1.0
C      1  0.5362880000000  0.4410970000000  0.3474980000000 1.0
C      1  0.5000750000000  0.5465550000000  0.3927560000000 1.0
C      1  0.4830530000000  0.3960760000000  0.4818240000000 1.0
C      1  0.5553670000000  0.5968400000000  0.4803820000000 1.0
C      1  0.5672890000000  0.5015620000000  0.4392620000000 1.0
C      1  0.4274020000000  0.5033060000000  0.4668180000000 1.0
C      1  0.5079620000000  0.4686330000000  0.5248500000000 1.0
C      1  0.5720870000000  0.4573040000000  0.5285270000000 1.0
C      1  0.4652420000000  0.4551500000000  0.3907600000000 1.0
C      1  0.6000930000000  0.5156590000000  0.5111420000000 1.0
C      1  0.4955370000000  0.5453090000000  0.4547750000000 1.0
C      1  0.3939480000000  0.4857180000000  0.4976520000000 1.0
C      1  0.5280350000000  0.5752710000000  0.5935670000000 1.0
C      1  0.5289130000000  0.4607260000000  0.5905260000000 1.0
C      1  0.5301890000000  0.5125570000000  0.5822890000000 1.0
C      1  0.5427320000000  0.4242230000000  0.4151630000000 1.0
C      1  0.4935200000000  0.5321010000000  0.5299590000000 1.0
C      1  0.3725840000000  0.5897430000000  0.5158610000000 1.0
C      1  0.5889190000000  0.4431310000000  0.5489790000000 1.0
C      1  0.3489360000000  0.5043390000000  0.4881560000000 1.0
C      1  0.4731680000000  0.4441800000000  0.4582740000000 1.0
C      1  0.5160280000000  0.4333710000000  0.4079600000000 1.0
C      1  0.5656890000000  0.4269520000000  0.4595440000000 1.0
C      1  0.4053470000000  0.4855370000000  0.5661170000000 1.0
C      1  0.4607770000000  0.4853770000000  0.5210740000000 1.0
C      1  0.4805270000000  0.4666640000000  0.5318950000000 1.0
C      1  0.5474410000000  0.3852570000000  0.4427830000000 1.0
C      1  0.5466980000000  0.4154690000000  0.5618850000000 1.0
C      1  0.5266050000000  0.5108110000000  0.4671760000000 1.0
C      1  0.4379590000000  0.4225600000000  0.5708430000000 1.0
C      1  0.4464590000000  0.5883030000000  0.5235870000000 1.0
C      1  0.4967380000000  0.4188500000000  0.5695620000000 1.0
C      1  0.6283640000000  0.5962930000000  0.4675070000000 1.0
C      1  0.5981080000000  0.5120190000000  0.6087310000000 1.0
C      1  0.4476930000000  0.5584070000000  0.6609430000000 1.0
C      1  0.4921470000000  0.5661280000000  0.4353880000000 1.0
C      1  0.5274780000000  0.4515020000000  0.5357400000000 1.0
C      1  0.4305470000000  0.4560600000000  0.4824450000000 1.0
C      1  0.5530630000000  0.5516120000000  0.4950390000000 1.0
C      1  0.3992360000000  0.5888390000000  0.5234720000000 1.0
C      1  0.4894690000000  0.5215060000000  0.3818060000000 1.0
C      1  0.4635580000000  0.5363250000000  0.5726890000000 1.0
C      1  0.4844610000000  0.4220220000000  0.4449380000000 1.0
C      1  0.4556090000000  0.5025770000000  0.4741440000000 1.0
C      1  0.5777600000000  0.4771650000000  0.6357090000000 1.0
C      1  0.5453980000000  0.5786940000000  0.4989600000000 1.0
C      1  0.4144750000000  0.4642310000000  0.5059820000000 1.0
C      1  0.4538730000000  0.5588690000000  0.4009690000000 1.0
C      1  0.5749760000000  0.4203270000000  0.5613370000000 1.0
C      1  0.4505810000000  0.4866800000000  0.4317110000000 1.0
C      1  0.6505160000000  0.5826340000000  0.4619200000000 1.0
C      1  0.5230130000000  0.4095250000000  0.5767260000000 1.0
C      1  0.4213700000000  0.5553760000000  0.4966310000000 1.0
C      1  0.5516120000000  0.4391540000000  0.4814500000000 1.0
C      1  0.5058010000000  0.5059220000000  0.4233790000000 1.0
C      1  0.5636810000000  0.5373140000000  0.4728650000000 1.0
C      1  0.5347630000000  0.5751880000000  0.4157700000000 1.0
C      1  0.4348230000000  0.4008290000000  0.4978520000000 1.0
C      1  0.5946780000000  0.5851230000000  0.5355190000000 1.0
C      1  0.5781870000000  0.4702360000000  0.5875360000000 1.0
C      1  0.4916700000000  0.4875830000000  0.6033370000000 1.0
C      1  0.5101140000000  0.5214210000000  0.4466910000000 1.0
C      1  0.4789690000000  0.6104070000000  0.5587610000000 1.0
C      1  0.4900890000000  0.4709450000000  0.3908940000000 1.0
C      1  0.5505380000000  0.4161450000000  0.3477360000000 1.0
C      1  0.4559970000000  0.4364220000000  0.5856330000000 1.0
C      1  0.4461390000000  0.5425450000000  0.3805350000000 1.0
C      1  0.5195410000000  0.5905850000000  0.5422900000000 1.0
C      1  0.5126820000000  0.4792150000000  0.4993490000000 1.0
C      1  0.4326750000000  0.4807830000000  0.5257400000000 1.0
C      1  0.4546700000000  0.6017560000000  0.5704480000000 1.0
C      1  0.5085820000000  0.5109630000000  0.6008510000000 1.0
C      1  0.4887640000000  0.5478400000000  0.4827450000000 1.0
C      1  0.4804870000000  0.5592580000000  0.4104660000000 1.0
C      1  0.5498460000000  0.4658110000000  0.5465780000000 1.0
C      1  0.5481260000000  0.5398810000000  0.3845790000000 1.0
C      1  0.5604610000000  0.4562670000000  0.3849250000000 1.0
C      1  0.5639230000000  0.4109520000000  0.3726260000000 1.0
C      1  0.4102310000000  0.5235040000000  0.5329780000000 1.0
C      1  0.4180680000000  0.4979840000000  0.5436340000000 1.0
C      1  0.5106320000000  0.6129050000000  0.4362710000000 1.0
C      1  0.4089310000000  0.4937230000000  0.5918810000000 1.0
C      1  0.3997820000000  0.5596030000000  0.5630990000000 1.0
C      1  0.4742980000000  0.5873870000000  0.5171480000000 1.0
C      1  0.3895300000000  0.5388410000000  0.5460960000000 1.0
C      1  0.3625550000000  0.5014440000000  0.5325080000000 1.0
C      1  0.5652460000000  0.5208690000000  0.3921460000000 1.0
C      1  0.4434850000000  0.4630620000000  0.3761160000000 1.0
END
