TITL C-599895-9959-563 14647.6870772649 125000 -895.373965010727 0 0 146 (C1) n - 1
REM
REM in /home/nfs/bkarasulu/CARBON/AIRSS/Generating-Clusters/TERSOFF/Only-C1/FIRE-HFTN
REM
REM
REM
REM
REM
REM ./C.cell (11c1c37f851c82e70ff6c80c92926a4b)
REM AIRSS Version 0.9.1 bugfix July 2018 build 013d7b7c2542+ Fri, 06 Jul 2018 19:26:36 +0100
REM compiler GCC version 9.2.1 20190827 (Red Hat 9.2.1-1)
REM options -cpp -mtune=generic -march=x86-64 -g -O0 -fpre-include=/usr/include/finclude/math-vector-fortran.h
REM seed 1641004481 1018877874 -189654060 -1291117230 1485388532 1294288819 432102929 -52319341 595880409 -625765555 848211036 1843283933 -927911946 -984689761 1046831049 2036159387 -771762373 990874571 1149235480 1591185159 -1284109511 -203486280 389660246 603814255 -1962324718 -1877288970 -1621474338 1748533801 322406840 -1668949083 1698154578 178661085 624694590
REM
CELL 1.54180   50.00000   50.00000   50.00000   90.00000   90.00000   90.00000
LATT -1
SFAC C  
C      1  0.3999690000000  0.5812090000000  0.4723540000000 1.0
C      1  0.5019410000000  0.5746600000000  0.4038530000000 1.0
C      1  0.5785310000000  0.4919730000000  0.3901500000000 1.0
C      1  0.5735030000000  0.4669180000000  0.5081500000000 1.0
C      1  0.5034310000000  0.5771780000000  0.5839160000000 1.0
C      1  0.4170910000000  0.5584530000000  0.5632320000000 1.0
C      1  0.5620850000000  0.4605430000000  0.5958870000000 1.0
C      1  0.5061320000000  0.5944170000000  0.5607490000000 1.0
C      1  0.4676530000000  0.4832470000000  0.5524940000000 1.0
C      1  0.5287890000000  0.4434080000000  0.4423230000000 1.0
C      1  0.4608050000000  0.5769430000000  0.5587770000000 1.0
C      1  0.6209810000000  0.5063280000000  0.4738290000000 1.0
C      1  0.4180530000000  0.4523070000000  0.5100300000000 1.0
C      1  0.4256630000000  0.4601840000000  0.4496260000000 1.0
C      1  0.6016430000000  0.5134490000000  0.4280290000000 1.0
C      1  0.4154240000000  0.3538930000000  0.5226280000000 1.0
C      1  0.5600540000000  0.4800680000000  0.4637930000000 1.0
C      1  0.5319340000000  0.5348890000000  0.3961790000000 1.0
C      1  0.4430100000000  0.5210070000000  0.4840810000000 1.0
C      1  0.5874660000000  0.4765740000000  0.4563830000000 1.0
C      1  0.5164000000000  0.4833370000000  0.5497530000000 1.0
C      1  0.5008910000000  0.5031780000000  0.3806950000000 1.0
C      1  0.4239650000000  0.3789340000000  0.5214010000000 1.0
C      1  0.5712320000000  0.4443950000000  0.5754710000000 1.0
C      1  0.5193270000000  0.5181240000000  0.4851720000000 1.0
C      1  0.4297610000000  0.5333920000000  0.5599170000000 1.0
C      1  0.5349580000000  0.5167910000000  0.4399700000000 1.0
C      1  0.5334110000000  0.4300720000000  0.5153510000000 1.0
C      1  0.5203200000000  0.4707890000000  0.4388210000000 1.0
C      1  0.4749600000000  0.6131610000000  0.4622120000000 1.0
C      1  0.5775460000000  0.5768710000000  0.5288490000000 1.0
C      1  0.5530090000000  0.5797090000000  0.5441370000000 1.0
C      1  0.5408810000000  0.4228370000000  0.5397390000000 1.0
C      1  0.4493370000000  0.5255050000000  0.5793220000000 1.0
C      1  0.4070240000000  0.3287590000000  0.5231860000000 1.0
C      1  0.5915700000000  0.5398580000000  0.4287620000000 1.0
C      1  0.6065140000000  0.5068870000000  0.5474400000000 1.0
C      1  0.4815940000000  0.4115390000000  0.5478250000000 1.0
C      1  0.4876730000000  0.5253930000000  0.4481840000000 1.0
C      1  0.3802420000000  0.5978560000000  0.4664230000000 1.0
C      1  0.5794690000000  0.4324360000000  0.4411670000000 1.0
C      1  0.5027620000000  0.5803270000000  0.5355420000000 1.0
C      1  0.4334770000000  0.4051300000000  0.5186710000000 1.0
C      1  0.4660170000000  0.4615360000000  0.4998210000000 1.0
C      1  0.6024450000000  0.4995090000000  0.4030150000000 1.0
C      1  0.4282560000000  0.4885150000000  0.4475850000000 1.0
C      1  0.5541340000000  0.5683570000000  0.4780620000000 1.0
C      1  0.4632240000000  0.4464460000000  0.4231260000000 1.0
C      1  0.5225910000000  0.4337990000000  0.4681410000000 1.0
C      1  0.4324650000000  0.4552180000000  0.5682500000000 1.0
C      1  0.4908640000000  0.5877880000000  0.4261130000000 1.0
C      1  0.4800410000000  0.4671480000000  0.4135870000000 1.0
C      1  0.4755130000000  0.5674830000000  0.5831200000000 1.0
C      1  0.5002080000000  0.3919210000000  0.5432470000000 1.0
C      1  0.4971170000000  0.4491790000000  0.5830990000000 1.0
C      1  0.5667970000000  0.5455350000000  0.4902660000000 1.0
C      1  0.5537230000000  0.4335950000000  0.4323480000000 1.0
C      1  0.4498110000000  0.5330610000000  0.5101590000000 1.0
C      1  0.6054540000000  0.4415650000000  0.4841850000000 1.0
C      1  0.4919330000000  0.5298390000000  0.5524540000000 1.0
C      1  0.4920090000000  0.5315690000000  0.5263020000000 1.0
C      1  0.5969080000000  0.4508740000000  0.5098820000000 1.0
C      1  0.5794960000000  0.5512960000000  0.5154130000000 1.0
C      1  0.4613140000000  0.5326810000000  0.3906530000000 1.0
C      1  0.5035640000000  0.5274690000000  0.5759820000000 1.0
C      1  0.4462530000000  0.4661380000000  0.5459210000000 1.0
C      1  0.4915150000000  0.5092200000000  0.6251740000000 1.0
C      1  0.5345730000000  0.5763820000000  0.4974850000000 1.0
C      1  0.5350140000000  0.4439080000000  0.4912190000000 1.0
C      1  0.5957340000000  0.4467210000000  0.5614050000000 1.0
C      1  0.4891740000000  0.4766320000000  0.5083670000000 1.0
C      1  0.4586580000000  0.5616080000000  0.5097870000000 1.0
C      1  0.4647670000000  0.5436650000000  0.5961360000000 1.0
C      1  0.5530460000000  0.4934240000000  0.3821730000000 1.0
C      1  0.4914100000000  0.4811080000000  0.5365900000000 1.0
C      1  0.5409450000000  0.4895750000000  0.4449080000000 1.0
C      1  0.4819470000000  0.4261000000000  0.5726940000000 1.0
C      1  0.4327970000000  0.5804740000000  0.5612010000000 1.0
C      1  0.5449860000000  0.5353460000000  0.4211500000000 1.0
C      1  0.3977960000000  0.5156280000000  0.4710310000000 1.0
C      1  0.4880080000000  0.5296250000000  0.3825510000000 1.0
C      1  0.4872610000000  0.4796640000000  0.3891650000000 1.0
C      1  0.5271630000000  0.5339730000000  0.5905430000000 1.0
C      1  0.6228340000000  0.5057540000000  0.5261670000000 1.0
C      1  0.4047660000000  0.5043270000000  0.4456590000000 1.0
C      1  0.4738970000000  0.5741200000000  0.5320730000000 1.0
C      1  0.4176550000000  0.5352710000000  0.4779200000000 1.0
C      1  0.5594680000000  0.5709530000000  0.4506290000000 1.0
C      1  0.4765330000000  0.4993970000000  0.4502150000000 1.0
C      1  0.4617070000000  0.5009400000000  0.5733050000000 1.0
C      1  0.6271090000000  0.4934000000000  0.3914480000000 1.0
C      1  0.5298080000000  0.5681330000000  0.5268960000000 1.0
C      1  0.5427780000000  0.5090270000000  0.5915360000000 1.0
C      1  0.4511310000000  0.3958440000000  0.5977110000000 1.0
C      1  0.4770260000000  0.5311350000000  0.6186500000000 1.0
C      1  0.4509420000000  0.4467940000000  0.4489830000000 1.0
C      1  0.5142200000000  0.5258110000000  0.4568250000000 1.0
C      1  0.5078520000000  0.4905550000000  0.4920500000000 1.0
C      1  0.3989460000000  0.3039750000000  0.5236280000000 1.0
C      1  0.4503840000000  0.5009180000000  0.4626020000000 1.0
C      1  0.5274740000000  0.4850020000000  0.5981810000000 1.0
C      1  0.4857810000000  0.4633960000000  0.6073240000000 1.0
C      1  0.5031490000000  0.4852930000000  0.6153530000000 1.0
C      1  0.5348530000000  0.5052930000000  0.5462410000000 1.0
C      1  0.5502710000000  0.5745040000000  0.5723650000000 1.0
C      1  0.4740820000000  0.5716130000000  0.4441850000000 1.0
C      1  0.4928340000000  0.4793030000000  0.4362400000000 1.0
C      1  0.4537320000000  0.5385980000000  0.4158060000000 1.0
C      1  0.4581900000000  0.4116670000000  0.5313760000000 1.0
C      1  0.3922650000000  0.4941100000000  0.4896910000000 1.0
C      1  0.4069040000000  0.4225180000000  0.4766660000000 1.0
C      1  0.5395700000000  0.5322260000000  0.5337770000000 1.0
C      1  0.5291560000000  0.5629420000000  0.5883410000000 1.0
C      1  0.4432860000000  0.4444110000000  0.5922660000000 1.0
C      1  0.5804940000000  0.5150560000000  0.5531310000000 1.0
C      1  0.6271400000000  0.5071070000000  0.4998170000000 1.0
C      1  0.5952670000000  0.4488550000000  0.4583190000000 1.0
C      1  0.3604610000000  0.6145200000000  0.4606270000000 1.0
C      1  0.6053390000000  0.4455380000000  0.5361940000000 1.0
C      1  0.5494340000000  0.5225000000000  0.4888650000000 1.0
C      1  0.4637420000000  0.5868650000000  0.4669430000000 1.0
C      1  0.4432630000000  0.4613440000000  0.5183640000000 1.0
C      1  0.5660700000000  0.5518270000000  0.4306390000000 1.0
C      1  0.3409680000000  0.6308760000000  0.4549590000000 1.0
C      1  0.4575900000000  0.4610400000000  0.6105080000000 1.0
C      1  0.5689100000000  0.5329090000000  0.5340240000000 1.0
C      1  0.4903490000000  0.6136490000000  0.4390190000000 1.0
C      1  0.4209030000000  0.5639140000000  0.4785620000000 1.0
C      1  0.5028490000000  0.5350110000000  0.5024860000000 1.0
C      1  0.4580480000000  0.4203320000000  0.5881380000000 1.0
C      1  0.5529630000000  0.4269490000000  0.5630470000000 1.0
C      1  0.4703100000000  0.5449220000000  0.4377960000000 1.0
C      1  0.5179200000000  0.4684360000000  0.5745810000000 1.0
C      1  0.4352500000000  0.5252850000000  0.5332660000000 1.0
C      1  0.5532630000000  0.4660910000000  0.4884780000000 1.0
C      1  0.4053690000000  0.4501380000000  0.4669950000000 1.0
C      1  0.4643870000000  0.4480320000000  0.4744740000000 1.0
C      1  0.4178670000000  0.4236830000000  0.5036800000000 1.0
C      1  0.4017400000000  0.4672860000000  0.4911340000000 1.0
C      1  0.4473350000000  0.5743860000000  0.4862800000000 1.0
C      1  0.5295000000000  0.5083290000000  0.3838660000000 1.0
C      1  0.5573660000000  0.5050050000000  0.5668610000000 1.0
C      1  0.5075860000000  0.5498870000000  0.3915430000000 1.0
C      1  0.6503450000000  0.4875490000000  0.3812010000000 1.0
C      1  0.3992920000000  0.4002980000000  0.4630510000000 1.0
C      1  0.6046590000000  0.4986530000000  0.4522650000000 1.0
END
