TITL C-599895-9959-451 0.0162722417492854 125000 -744.995100136894 0 0 121 (C1) n - 1
REM
REM in /home/nfs/bkarasulu/CARBON/AIRSS/Generating-Clusters/TERSOFF/Only-C1/FIRE-HFTN
REM
REM
REM
REM
REM
REM ./C.cell (11c1c37f851c82e70ff6c80c92926a4b)
REM AIRSS Version 0.9.1 bugfix July 2018 build 013d7b7c2542+ Fri, 06 Jul 2018 19:26:36 +0100
REM compiler GCC version 9.2.1 20190827 (Red Hat 9.2.1-1)
REM options -cpp -mtune=generic -march=x86-64 -g -O0 -fpre-include=/usr/include/finclude/math-vector-fortran.h
REM seed 660418952 -1615888247 -1229740062 -720538096 48045005 -1866576949 -614280956 1954877150 -156456980 -1294507778 -2062394408 639642534 -486097490 1173106725 1500580787 -3290749 -1046009055 -998545161 -1541437899 1230816010 -1295736265 539381381 -1946025479 1743603070 -1332423025 -529095554 -1749951164 40606982 817771082 -1219639444 -2092834528 -1374971821 -1778666172
REM
CELL 1.54180   50.00000   50.00000   50.00000   90.00000   90.00000   90.00000
LATT -1
SFAC C  
C      1  0.4570160000000  0.4577510000000  0.4249430000000 1.0
C      1  0.5139980000000  0.5545040000000  0.5640270000000 1.0
C      1  0.5794340000000  0.5045120000000  0.4191850000000 1.0
C      1  0.5148150000000  0.4580150000000  0.4362230000000 1.0
C      1  0.5960480000000  0.4598650000000  0.4890480000000 1.0
C      1  0.4899300000000  0.4622730000000  0.5353900000000 1.0
C      1  0.4826290000000  0.4075370000000  0.4758040000000 1.0
C      1  0.4163800000000  0.5289650000000  0.5114780000000 1.0
C      1  0.5205760000000  0.3589700000000  0.4017670000000 1.0
C      1  0.5499960000000  0.4393570000000  0.5633010000000 1.0
C      1  0.4639600000000  0.5356510000000  0.5080110000000 1.0
C      1  0.4324140000000  0.4187330000000  0.4949930000000 1.0
C      1  0.5339070000000  0.4717790000000  0.5187570000000 1.0
C      1  0.5485750000000  0.4653470000000  0.4950340000000 1.0
C      1  0.4551850000000  0.6059830000000  0.5158220000000 1.0
C      1  0.5007300000000  0.4245210000000  0.5695230000000 1.0
C      1  0.4492770000000  0.5742500000000  0.4055960000000 1.0
C      1  0.4708710000000  0.5900820000000  0.4519740000000 1.0
C      1  0.4321290000000  0.4931660000000  0.5711300000000 1.0
C      1  0.5810630000000  0.4280670000000  0.4567870000000 1.0
C      1  0.3973520000000  0.4880450000000  0.4809730000000 1.0
C      1  0.4039420000000  0.4541620000000  0.5166300000000 1.0
C      1  0.4135940000000  0.4385570000000  0.4524690000000 1.0
C      1  0.4511480000000  0.5592680000000  0.5550680000000 1.0
C      1  0.5977270000000  0.4923020000000  0.5528370000000 1.0
C      1  0.5370300000000  0.5506390000000  0.4474200000000 1.0
C      1  0.5782140000000  0.5011840000000  0.4699230000000 1.0
C      1  0.5945040000000  0.4322070000000  0.4818470000000 1.0
C      1  0.4798420000000  0.4115180000000  0.4472580000000 1.0
C      1  0.5373980000000  0.5279530000000  0.4300220000000 1.0
C      1  0.5383490000000  0.4175820000000  0.4984930000000 1.0
C      1  0.5937170000000  0.5185240000000  0.5401160000000 1.0
C      1  0.5669540000000  0.5967540000000  0.5227380000000 1.0
C      1  0.5635930000000  0.4230460000000  0.5440930000000 1.0
C      1  0.5738630000000  0.4782550000000  0.4871600000000 1.0
C      1  0.4309810000000  0.5924940000000  0.3976100000000 1.0
C      1  0.4664510000000  0.5060720000000  0.4134660000000 1.0
C      1  0.4649630000000  0.5451270000000  0.5344920000000 1.0
C      1  0.4989540000000  0.5869310000000  0.4587300000000 1.0
C      1  0.4485570000000  0.4183070000000  0.5631070000000 1.0
C      1  0.5868500000000  0.4141530000000  0.5025440000000 1.0
C      1  0.4187570000000  0.4291060000000  0.5192570000000 1.0
C      1  0.4781060000000  0.4772680000000  0.5928960000000 1.0
C      1  0.4286350000000  0.4211330000000  0.5449620000000 1.0
C      1  0.5373690000000  0.4437430000000  0.4346720000000 1.0
C      1  0.4598090000000  0.4091550000000  0.4960550000000 1.0
C      1  0.5219760000000  0.5979850000000  0.5033760000000 1.0
C      1  0.4319830000000  0.4375590000000  0.4734370000000 1.0
C      1  0.4233510000000  0.5608050000000  0.5487020000000 1.0
C      1  0.4875790000000  0.5818240000000  0.5885910000000 1.0
C      1  0.4072840000000  0.5046490000000  0.5249950000000 1.0
C      1  0.5160780000000  0.5109100000000  0.4352760000000 1.0
C      1  0.5617930000000  0.4139810000000  0.5167270000000 1.0
C      1  0.4505010000000  0.4886080000000  0.5176650000000 1.0
C      1  0.4921750000000  0.3921670000000  0.4309840000000 1.0
C      1  0.5758470000000  0.4845650000000  0.5708730000000 1.0
C      1  0.5153400000000  0.5757580000000  0.5838500000000 1.0
C      1  0.5044730000000  0.4726880000000  0.5948160000000 1.0
C      1  0.5784760000000  0.5294650000000  0.4762760000000 1.0
C      1  0.4091740000000  0.4857260000000  0.4553990000000 1.0
C      1  0.5166650000000  0.5283010000000  0.5738430000000 1.0
C      1  0.5976490000000  0.5377450000000  0.4961830000000 1.0
C      1  0.4484580000000  0.5133880000000  0.4690210000000 1.0
C      1  0.4514760000000  0.4862390000000  0.4276410000000 1.0
C      1  0.5663200000000  0.5249140000000  0.5484790000000 1.0
C      1  0.4540320000000  0.4851490000000  0.5842540000000 1.0
C      1  0.4862080000000  0.5291130000000  0.4917800000000 1.0
C      1  0.5537810000000  0.4356010000000  0.4556060000000 1.0
C      1  0.4350790000000  0.4968480000000  0.4497640000000 1.0
C      1  0.5343430000000  0.5079010000000  0.5816070000000 1.0
C      1  0.4394790000000  0.5265500000000  0.4942830000000 1.0
C      1  0.5414560000000  0.5870160000000  0.5841230000000 1.0
C      1  0.5585740000000  0.5204380000000  0.4134660000000 1.0
C      1  0.4672020000000  0.5756760000000  0.4278230000000 1.0
C      1  0.5113080000000  0.6025720000000  0.4779880000000 1.0
C      1  0.5352980000000  0.4984380000000  0.5259490000000 1.0
C      1  0.4390250000000  0.5944840000000  0.4957810000000 1.0
C      1  0.4796390000000  0.6040450000000  0.5263350000000 1.0
C      1  0.5306410000000  0.4796130000000  0.5872240000000 1.0
C      1  0.4147740000000  0.5002860000000  0.5519900000000 1.0
C      1  0.4135000000000  0.5559780000000  0.5220600000000 1.0
C      1  0.4499910000000  0.5950980000000  0.4698500000000 1.0
C      1  0.5993930000000  0.5655990000000  0.5376780000000 1.0
C      1  0.4971750000000  0.5001590000000  0.4527020000000 1.0
C      1  0.5106570000000  0.5638410000000  0.4447060000000 1.0
C      1  0.5498420000000  0.5611690000000  0.4943370000000 1.0
C      1  0.4781990000000  0.5144830000000  0.4685070000000 1.0
C      1  0.5223750000000  0.4380140000000  0.5568350000000 1.0
C      1  0.5167660000000  0.4564420000000  0.5357920000000 1.0
C      1  0.4733300000000  0.4192320000000  0.5197310000000 1.0
C      1  0.4525410000000  0.4568330000000  0.4803060000000 1.0
C      1  0.4971260000000  0.4719680000000  0.4529190000000 1.0
C      1  0.5118600000000  0.4064670000000  0.4969690000000 1.0
C      1  0.5062400000000  0.3752790000000  0.4161920000000 1.0
C      1  0.5609400000000  0.5106870000000  0.5725310000000 1.0
C      1  0.4002780000000  0.4817710000000  0.5084910000000 1.0
C      1  0.4742580000000  0.4190590000000  0.5716360000000 1.0
C      1  0.4983540000000  0.4062970000000  0.5217030000000 1.0
C      1  0.6024510000000  0.5403750000000  0.5241770000000 1.0
C      1  0.4177370000000  0.5776230000000  0.5039070000000 1.0
C      1  0.5645810000000  0.5864450000000  0.5696830000000 1.0
C      1  0.5482890000000  0.5875990000000  0.5041130000000 1.0
C      1  0.4539500000000  0.4638320000000  0.5075960000000 1.0
C      1  0.4700950000000  0.4472890000000  0.5235130000000 1.0
C      1  0.4770350000000  0.4599530000000  0.4675370000000 1.0
C      1  0.4740200000000  0.5330490000000  0.4094030000000 1.0
C      1  0.4551860000000  0.5488560000000  0.3936360000000 1.0
C      1  0.4661160000000  0.4330320000000  0.4329650000000 1.0
C      1  0.5429040000000  0.4404790000000  0.4817860000000 1.0
C      1  0.5573830000000  0.5495890000000  0.4691020000000 1.0
C      1  0.5364210000000  0.5417670000000  0.5098100000000 1.0
C      1  0.5552680000000  0.4644090000000  0.5771650000000 1.0
C      1  0.4648850000000  0.5728350000000  0.5761080000000 1.0
C      1  0.4029820000000  0.4612880000000  0.4424410000000 1.0
C      1  0.4879520000000  0.5535920000000  0.4265410000000 1.0
C      1  0.5465930000000  0.5237580000000  0.5284620000000 1.0
C      1  0.5790570000000  0.5842820000000  0.5450630000000 1.0
C      1  0.5090590000000  0.5669470000000  0.5391780000000 1.0
C      1  0.5863380000000  0.4952780000000  0.4434060000000 1.0
C      1  0.5041890000000  0.5906460000000  0.5244520000000 1.0
C      1  0.5116550000000  0.5348760000000  0.4992710000000 1.0
END
