TITL C-599897-7526-185 14.7201663976343 125000 -454.459221276346 0 0 77 (C1) n - 1
REM
REM in /home/nfs/bkarasulu/CARBON/AIRSS/Generating-Clusters/TERSOFF/Only-C1/FIRE-HFTN
REM
REM
REM
REM
REM
REM ./C.cell (11c1c37f851c82e70ff6c80c92926a4b)
REM AIRSS Version 0.9.1 bugfix July 2018 build 013d7b7c2542+ Fri, 06 Jul 2018 19:26:36 +0100
REM compiler GCC version 9.2.1 20190827 (Red Hat 9.2.1-1)
REM options -cpp -mtune=generic -march=x86-64 -g -O0 -fpre-include=/usr/include/finclude/math-vector-fortran.h
REM seed 665954189 1057400043 -676154640 2054400042 -1916480405 858024437 955184478 193922048 190194460 -1659053485 -208210202 2066631747 1710988797 607266056 -1118218747 1878494360 -1387358516 615745339 561686842 -1087682178 279379994 -164730091 -2046341637 -2065554173 2039336978 -1600622241 -1978044911 2025585122 576312161 90444377 -1081435850 63977516 222188953
REM
CELL 1.54180   50.00000   50.00000   50.00000   90.00000   90.00000   90.00000
LATT -1
SFAC C  
C      1  0.4806290000000  0.4202770000000  0.5371910000000 1.0
C      1  0.5724960000000  0.3945240000000  0.5310000000000 1.0
C      1  0.4590730000000  0.5261940000000  0.4123450000000 1.0
C      1  0.4722830000000  0.4456790000000  0.6587450000000 1.0
C      1  0.5844910000000  0.3777110000000  0.5469070000000 1.0
C      1  0.4989570000000  0.5435070000000  0.5808620000000 1.0
C      1  0.5079200000000  0.4603620000000  0.4925460000000 1.0
C      1  0.6190400000000  0.5027270000000  0.4471760000000 1.0
C      1  0.4762980000000  0.4334940000000  0.5614300000000 1.0
C      1  0.3832010000000  0.5231110000000  0.4637580000000 1.0
C      1  0.4670920000000  0.4537520000000  0.5783970000000 1.0
C      1  0.4295980000000  0.4457540000000  0.5009840000000 1.0
C      1  0.6119390000000  0.5537450000000  0.4940340000000 1.0
C      1  0.4932610000000  0.5223030000000  0.5619900000000 1.0
C      1  0.5993070000000  0.4859870000000  0.4414150000000 1.0
C      1  0.4556970000000  0.5692950000000  0.4917190000000 1.0
C      1  0.4355470000000  0.5302640000000  0.4278720000000 1.0
C      1  0.4919400000000  0.5786130000000  0.5250160000000 1.0
C      1  0.4481890000000  0.5035110000000  0.5622010000000 1.0
C      1  0.3997430000000  0.5225590000000  0.5763910000000 1.0
C      1  0.4610510000000  0.5417310000000  0.5319480000000 1.0
C      1  0.5194280000000  0.5035770000000  0.5232800000000 1.0
C      1  0.4605090000000  0.4942860000000  0.4828760000000 1.0
C      1  0.4706160000000  0.4481340000000  0.6324060000000 1.0
C      1  0.4585700000000  0.4110370000000  0.5225540000000 1.0
C      1  0.5088960000000  0.5481930000000  0.4560340000000 1.0
C      1  0.4920000000000  0.4592480000000  0.4685520000000 1.0
C      1  0.5314350000000  0.5845680000000  0.4759900000000 1.0
C      1  0.4438040000000  0.5647660000000  0.4681810000000 1.0
C      1  0.4288950000000  0.4823100000000  0.4329220000000 1.0
C      1  0.4944790000000  0.5850320000000  0.5535090000000 1.0
C      1  0.4660340000000  0.4710960000000  0.4667780000000 1.0
C      1  0.5314430000000  0.4552120000000  0.4405240000000 1.0
C      1  0.5659760000000  0.5743500000000  0.5078480000000 1.0
C      1  0.5388040000000  0.5766980000000  0.5017340000000 1.0
C      1  0.4688030000000  0.5641890000000  0.5160720000000 1.0
C      1  0.5190180000000  0.5677400000000  0.5193960000000 1.0
C      1  0.5601310000000  0.4115850000000  0.5149390000000 1.0
C      1  0.6366140000000  0.5210770000000  0.4588490000000 1.0
C      1  0.4819450000000  0.5212650000000  0.4278070000000 1.0
C      1  0.5047750000000  0.4231340000000  0.5234880000000 1.0
C      1  0.4560710000000  0.4771940000000  0.5677350000000 1.0
C      1  0.4040320000000  0.4750180000000  0.5280200000000 1.0
C      1  0.4767730000000  0.5162740000000  0.4758630000000 1.0
C      1  0.4739220000000  0.4432650000000  0.6846510000000 1.0
C      1  0.4193730000000  0.5177520000000  0.4973310000000 1.0
C      1  0.6271680000000  0.5387480000000  0.4783470000000 1.0
C      1  0.4689370000000  0.4506300000000  0.6060890000000 1.0
C      1  0.4399480000000  0.4220020000000  0.5069400000000 1.0
C      1  0.3916560000000  0.5136650000000  0.4400410000000 1.0
C      1  0.5464540000000  0.4294740000000  0.4984540000000 1.0
C      1  0.5043130000000  0.4493160000000  0.4447080000000 1.0
C      1  0.7138920000000  0.5229990000000  0.4364540000000 1.0
C      1  0.5242760000000  0.5510750000000  0.5427990000000 1.0
C      1  0.5113910000000  0.5653760000000  0.5667690000000 1.0
C      1  0.4176110000000  0.5081330000000  0.4307040000000 1.0
C      1  0.5568940000000  0.4549650000000  0.4522220000000 1.0
C      1  0.4592740000000  0.5272410000000  0.3851410000000 1.0
C      1  0.5782250000000  0.4699360000000  0.4424410000000 1.0
C      1  0.5139970000000  0.4846780000000  0.5053450000000 1.0
C      1  0.4227440000000  0.5124480000000  0.5694670000000 1.0
C      1  0.5189360000000  0.5872530000000  0.4293940000000 1.0
C      1  0.4355710000000  0.5517590000000  0.4462690000000 1.0
C      1  0.4904650000000  0.5275480000000  0.4538920000000 1.0
C      1  0.5197720000000  0.5737640000000  0.4530660000000 1.0
C      1  0.6634200000000  0.5217480000000  0.4510830000000 1.0
C      1  0.5153460000000  0.5232160000000  0.5425110000000 1.0
C      1  0.6888600000000  0.5223790000000  0.4437100000000 1.0
C      1  0.4474150000000  0.4676310000000  0.4457670000000 1.0
C      1  0.5909790000000  0.5660890000000  0.5046220000000 1.0
C      1  0.4360640000000  0.4950320000000  0.4977250000000 1.0
C      1  0.3962780000000  0.5264910000000  0.4869600000000 1.0
C      1  0.4907200000000  0.4333430000000  0.4271700000000 1.0
C      1  0.4237150000000  0.4718250000000  0.5091000000000 1.0
C      1  0.5591510000000  0.4405580000000  0.4761350000000 1.0
C      1  0.5195550000000  0.4368780000000  0.5041560000000 1.0
C      1  0.4668760000000  0.5217010000000  0.5512510000000 1.0
END
