TITL C-599891-72-10 -0.000206622170895063 125000 -109.493113802109 0 0 20 (C1) n - 1
REM
REM in /home/nfs/bkarasulu/CARBON/AIRSS/Generating-Clusters/TERSOFF/Only-C1/FIRE-HFTN
REM
REM
REM
REM
REM
REM ./C.cell (11c1c37f851c82e70ff6c80c92926a4b)
REM AIRSS Version 0.9.1 bugfix July 2018 build 013d7b7c2542+ Fri, 06 Jul 2018 19:26:36 +0100
REM compiler GCC version 9.2.1 20190827 (Red Hat 9.2.1-1)
REM options -cpp -mtune=generic -march=x86-64 -g -O0 -fpre-include=/usr/include/finclude/math-vector-fortran.h
REM seed 1977219115 -1300207969 -453803615 819362869 2041610970 -1745788513 1705788067 -12465957 -1039785245 1800276990 250730939 1609581452 -878241696 2053816663 -1898654996 -1862151930 -1953371958 -25639680 -2088972600 -1051150746 1273699821 -1395301018 -53696716 -314659984 -1489482755 -2109864330 -1459662904 1020987844 -1983190752 -417639603 167503138 -1372902028 -952740846
REM
CELL 1.54180   50.00000   50.00000   50.00000   90.00000   90.00000   90.00000
LATT -1
SFAC C  
C      1  0.5327410000000  0.4930920000000  0.4726750000000 1.0
C      1  0.5613740000000  0.4856120000000  0.5407710000000 1.0
C      1  0.5037520000000  0.4756550000000  0.5079770000000 1.0
C      1  0.5349340000000  0.4857390000000  0.5444360000000 1.0
C      1  0.4910480000000  0.5073510000000  0.5422120000000 1.0
C      1  0.5069180000000  0.4898320000000  0.4833150000000 1.0
C      1  0.5793610000000  0.4879930000000  0.5210890000000 1.0
C      1  0.4496120000000  0.4591930000000  0.4524780000000 1.0
C      1  0.5783280000000  0.4913910000000  0.4945320000000 1.0
C      1  0.5097440000000  0.4888520000000  0.5326470000000 1.0
C      1  0.4920990000000  0.5165890000000  0.4441560000000 1.0
C      1  0.4651150000000  0.4787600000000  0.4599050000000 1.0
C      1  0.4200610000000  0.5691390000000  0.5103510000000 1.0
C      1  0.4389330000000  0.5511650000000  0.5103110000000 1.0
C      1  0.4590720000000  0.5319530000000  0.5101770000000 1.0
C      1  0.4675910000000  0.5197070000000  0.4864560000000 1.0
C      1  0.4828090000000  0.5010580000000  0.4687640000000 1.0
C      1  0.5591940000000  0.4935120000000  0.4759650000000 1.0
C      1  0.4718820000000  0.5238400000000  0.5337560000000 1.0
C      1  0.4954320000000  0.4495660000000  0.5080250000000 1.0
END
