TITL C-599891-72-1078 2.22194056738531 125000 -1111.7458598201 0 0 181 (C1) n - 1
REM
REM in /home/nfs/bkarasulu/CARBON/AIRSS/Generating-Clusters/TERSOFF/Only-C1/FIRE-HFTN
REM
REM
REM
REM
REM
REM ./C.cell (11c1c37f851c82e70ff6c80c92926a4b)
REM AIRSS Version 0.9.1 bugfix July 2018 build 013d7b7c2542+ Fri, 06 Jul 2018 19:26:36 +0100
REM compiler GCC version 9.2.1 20190827 (Red Hat 9.2.1-1)
REM options -cpp -mtune=generic -march=x86-64 -g -O0 -fpre-include=/usr/include/finclude/math-vector-fortran.h
REM seed -1868855565 -606742692 -1276627115 99025434 1995470762 1695957194 1105565178 1134429353 383555198 1717694578 1665138108 1169766777 921375583 -645859719 1080147782 -1009415540 709644375 509097609 1234713197 2033548757 1953684340 388019142 -910571335 122318653 -1071093905 1271469249 -1983415574 45272033 -1803166153 403717819 516259000 -1314545528 6160614
REM
CELL 1.54180   50.00000   50.00000   50.00000   90.00000   90.00000   90.00000
LATT -1
SFAC C  
C      1  0.4341760000000  0.5886880000000  0.4846180000000 1.0
C      1  0.4365470000000  0.5230820000000  0.4424110000000 1.0
C      1  0.5560130000000  0.4030160000000  0.5416880000000 1.0
C      1  0.5551110000000  0.4791760000000  0.4017060000000 1.0
C      1  0.4424610000000  0.3663880000000  0.4469700000000 1.0
C      1  0.5299570000000  0.5593960000000  0.5217340000000 1.0
C      1  0.4694080000000  0.6278000000000  0.5050190000000 1.0
C      1  0.4384610000000  0.5521810000000  0.4524310000000 1.0
C      1  0.5775620000000  0.5929160000000  0.5019400000000 1.0
C      1  0.6120520000000  0.4823200000000  0.4928750000000 1.0
C      1  0.4140770000000  0.5039970000000  0.4542240000000 1.0
C      1  0.5465880000000  0.5100600000000  0.4578690000000 1.0
C      1  0.4418020000000  0.4544590000000  0.5310660000000 1.0
C      1  0.5248680000000  0.4413070000000  0.4674330000000 1.0
C      1  0.5456120000000  0.5959710000000  0.4568450000000 1.0
C      1  0.4270640000000  0.4409180000000  0.5519580000000 1.0
C      1  0.4860060000000  0.5661090000000  0.4379600000000 1.0
C      1  0.4818170000000  0.4841150000000  0.5906790000000 1.0
C      1  0.5220540000000  0.4176260000000  0.4516530000000 1.0
C      1  0.4719390000000  0.5567580000000  0.5208030000000 1.0
C      1  0.4245820000000  0.5545870000000  0.6719270000000 1.0
C      1  0.4614180000000  0.5070200000000  0.4498680000000 1.0
C      1  0.5761320000000  0.5564410000000  0.4204500000000 1.0
C      1  0.5522830000000  0.5110770000000  0.6110640000000 1.0
C      1  0.4316150000000  0.6006070000000  0.5102720000000 1.0
C      1  0.4691220000000  0.5727540000000  0.3915930000000 1.0
C      1  0.5446120000000  0.3608070000000  0.5646710000000 1.0
C      1  0.5794890000000  0.5598210000000  0.4481270000000 1.0
C      1  0.4573110000000  0.4357140000000  0.4404210000000 1.0
C      1  0.5050940000000  0.4122710000000  0.3980870000000 1.0
C      1  0.5450550000000  0.4062960000000  0.5139890000000 1.0
C      1  0.5379700000000  0.5261660000000  0.4787560000000 1.0
C      1  0.5306580000000  0.4256300000000  0.3943680000000 1.0
C      1  0.5607420000000  0.4636310000000  0.5290190000000 1.0
C      1  0.4531740000000  0.6136120000000  0.5237420000000 1.0
C      1  0.3902610000000  0.4640100000000  0.4979030000000 1.0
C      1  0.4626190000000  0.5697500000000  0.4524790000000 1.0
C      1  0.4384500000000  0.5313700000000  0.6253260000000 1.0
C      1  0.4314020000000  0.5432390000000  0.6494800000000 1.0
C      1  0.4568080000000  0.4569670000000  0.4590300000000 1.0
C      1  0.4727900000000  0.4482150000000  0.3820650000000 1.0
C      1  0.5577030000000  0.5534900000000  0.5242810000000 1.0
C      1  0.5222710000000  0.4246330000000  0.5130140000000 1.0
C      1  0.5155630000000  0.5623320000000  0.4974680000000 1.0
C      1  0.4875350000000  0.4820020000000  0.4991180000000 1.0
C      1  0.5746620000000  0.4606720000000  0.4005800000000 1.0
C      1  0.5698080000000  0.5773270000000  0.5715830000000 1.0
C      1  0.3798270000000  0.5018570000000  0.5258680000000 1.0
C      1  0.3528840000000  0.5081160000000  0.5292870000000 1.0
C      1  0.4245090000000  0.5139400000000  0.5382850000000 1.0
C      1  0.3894930000000  0.4922300000000  0.5002880000000 1.0
C      1  0.5388670000000  0.3865490000000  0.5580270000000 1.0
C      1  0.4210570000000  0.5667260000000  0.4709850000000 1.0
C      1  0.5079810000000  0.4995400000000  0.5922120000000 1.0
C      1  0.4848370000000  0.4377880000000  0.5734690000000 1.0
C      1  0.4526380000000  0.5071010000000  0.6242880000000 1.0
C      1  0.4315040000000  0.4744910000000  0.5947010000000 1.0
C      1  0.5436850000000  0.4633500000000  0.4647450000000 1.0
C      1  0.5314090000000  0.5545740000000  0.4724530000000 1.0
C      1  0.6173450000000  0.4352930000000  0.5022330000000 1.0
C      1  0.4322130000000  0.5760030000000  0.5694390000000 1.0
C      1  0.4080740000000  0.4907610000000  0.5934910000000 1.0
C      1  0.4880140000000  0.4710410000000  0.4273660000000 1.0
C      1  0.4126380000000  0.4518480000000  0.4857030000000 1.0
C      1  0.5230780000000  0.5146040000000  0.5004300000000 1.0
C      1  0.5459370000000  0.5109700000000  0.5501580000000 1.0
C      1  0.6041300000000  0.5540830000000  0.4600720000000 1.0
C      1  0.4647480000000  0.6071080000000  0.5487570000000 1.0
C      1  0.4617820000000  0.4747900000000  0.5432400000000 1.0
C      1  0.4135490000000  0.5562070000000  0.5588720000000 1.0
C      1  0.4478080000000  0.5010710000000  0.5487690000000 1.0
C      1  0.4866740000000  0.4543770000000  0.4927480000000 1.0
C      1  0.4769390000000  0.4647520000000  0.5690260000000 1.0
C      1  0.4610560000000  0.5921220000000  0.4719460000000 1.0
C      1  0.4393770000000  0.4149860000000  0.4367360000000 1.0
C      1  0.5035140000000  0.5125250000000  0.4005090000000 1.0
C      1  0.5850530000000  0.5161640000000  0.5764540000000 1.0
C      1  0.5894780000000  0.4931990000000  0.5621130000000 1.0
C      1  0.5659840000000  0.4839750000000  0.6118740000000 1.0
C      1  0.6062180000000  0.5011230000000  0.5124750000000 1.0
C      1  0.5543690000000  0.3952640000000  0.4892110000000 1.0
C      1  0.5312240000000  0.4646280000000  0.5351200000000 1.0
C      1  0.4699570000000  0.4805470000000  0.4480370000000 1.0
C      1  0.4090240000000  0.5053490000000  0.4828900000000 1.0
C      1  0.4563610000000  0.4865390000000  0.6054170000000 1.0
C      1  0.4896100000000  0.3750990000000  0.4584830000000 1.0
C      1  0.5082230000000  0.6137910000000  0.4814130000000 1.0
C      1  0.4316480000000  0.3895800000000  0.4390180000000 1.0
C      1  0.4126040000000  0.4557430000000  0.4564980000000 1.0
C      1  0.4518150000000  0.4713840000000  0.3880390000000 1.0
C      1  0.4241820000000  0.5426960000000  0.5358270000000 1.0
C      1  0.4315110000000  0.5134490000000  0.4966740000000 1.0
C      1  0.4672810000000  0.3607770000000  0.4554400000000 1.0
C      1  0.6025000000000  0.4650880000000  0.4477480000000 1.0
C      1  0.5226570000000  0.4470190000000  0.3746220000000 1.0
C      1  0.4114640000000  0.4184930000000  0.5466640000000 1.0
C      1  0.5231310000000  0.5110520000000  0.6142750000000 1.0
C      1  0.4888930000000  0.5761390000000  0.4107710000000 1.0
C      1  0.5465260000000  0.4087060000000  0.4407700000000 1.0
C      1  0.5523450000000  0.4208370000000  0.4149880000000 1.0
C      1  0.5141210000000  0.5442930000000  0.5430100000000 1.0
C      1  0.5857030000000  0.4225820000000  0.4658280000000 1.0
C      1  0.5668880000000  0.4673700000000  0.4809940000000 1.0
C      1  0.4295490000000  0.4514550000000  0.5782510000000 1.0
C      1  0.4800370000000  0.4425240000000  0.4247240000000 1.0
C      1  0.5244930000000  0.5610560000000  0.5683280000000 1.0
C      1  0.6007240000000  0.5482290000000  0.5085350000000 1.0
C      1  0.5342220000000  0.4829960000000  0.4200660000000 1.0
C      1  0.5406700000000  0.4850340000000  0.4470810000000 1.0
C      1  0.5312840000000  0.5585430000000  0.3959740000000 1.0
C      1  0.5115840000000  0.4862780000000  0.5354930000000 1.0
C      1  0.5178090000000  0.5809710000000  0.4082630000000 1.0
C      1  0.5589730000000  0.5565170000000  0.3999980000000 1.0
C      1  0.4967920000000  0.4587380000000  0.3667630000000 1.0
C      1  0.5267880000000  0.5876060000000  0.4356620000000 1.0
C      1  0.5928670000000  0.4771710000000  0.4717490000000 1.0
C      1  0.4170180000000  0.4780590000000  0.4382480000000 1.0
C      1  0.5156400000000  0.4003450000000  0.5660520000000 1.0
C      1  0.4367120000000  0.5338100000000  0.3921960000000 1.0
C      1  0.5023550000000  0.3982410000000  0.4556430000000 1.0
C      1  0.5505460000000  0.6089650000000  0.5352150000000 1.0
C      1  0.5794100000000  0.4685690000000  0.5511190000000 1.0
C      1  0.3989570000000  0.5110930000000  0.5760410000000 1.0
C      1  0.5645190000000  0.4035450000000  0.4633440000000 1.0
C      1  0.5101040000000  0.4388800000000  0.4913660000000 1.0
C      1  0.4510480000000  0.5594370000000  0.5846360000000 1.0
C      1  0.5770020000000  0.4468800000000  0.5709040000000 1.0
C      1  0.4838850000000  0.5963730000000  0.5646600000000 1.0
C      1  0.4316650000000  0.5429790000000  0.6005440000000 1.0
C      1  0.5189930000000  0.4387880000000  0.5374040000000 1.0
C      1  0.4800310000000  0.6112450000000  0.4838560000000 1.0
C      1  0.4441590000000  0.5547850000000  0.5206430000000 1.0
C      1  0.3985110000000  0.5050510000000  0.5472140000000 1.0
C      1  0.5665720000000  0.5267180000000  0.5348590000000 1.0
C      1  0.4694430000000  0.5439330000000  0.5685010000000 1.0
C      1  0.5119860000000  0.5651440000000  0.4505610000000 1.0
C      1  0.5707230000000  0.4514570000000  0.5044870000000 1.0
C      1  0.5572830000000  0.5695410000000  0.4633030000000 1.0
C      1  0.4847810000000  0.5503800000000  0.5452320000000 1.0
C      1  0.4824820000000  0.5295710000000  0.4836230000000 1.0
C      1  0.4738810000000  0.6546580000000  0.5065880000000 1.0
C      1  0.4086470000000  0.5376950000000  0.5821140000000 1.0
C      1  0.4614250000000  0.4906540000000  0.3672710000000 1.0
C      1  0.5114560000000  0.5888760000000  0.5642000000000 1.0
C      1  0.5309530000000  0.4940340000000  0.5732800000000 1.0
C      1  0.4602910000000  0.4490770000000  0.4855400000000 1.0
C      1  0.5518770000000  0.5558490000000  0.5796110000000 1.0
C      1  0.5380140000000  0.4673100000000  0.5807570000000 1.0
C      1  0.5537250000000  0.6085460000000  0.5056770000000 1.0
C      1  0.6145390000000  0.5493150000000  0.4842790000000 1.0
C      1  0.4730340000000  0.4230650000000  0.5941850000000 1.0
C      1  0.4619380000000  0.5170660000000  0.5670690000000 1.0
C      1  0.4495390000000  0.5559650000000  0.3847170000000 1.0
C      1  0.5364910000000  0.6099410000000  0.4812800000000 1.0
C      1  0.3968570000000  0.3978840000000  0.5402610000000 1.0
C      1  0.5060870000000  0.4260830000000  0.5591370000000 1.0
C      1  0.5904390000000  0.4313220000000  0.4940020000000 1.0
C      1  0.5159100000000  0.5348920000000  0.3920370000000 1.0
C      1  0.5907030000000  0.4394130000000  0.4421660000000 1.0
C      1  0.3278030000000  0.5142040000000  0.5328880000000 1.0
C      1  0.5721550000000  0.4213710000000  0.5578800000000 1.0
C      1  0.4640600000000  0.4091090000000  0.6142860000000 1.0
C      1  0.6219170000000  0.4763650000000  0.4322720000000 1.0
C      1  0.5799260000000  0.5670920000000  0.5121930000000 1.0
C      1  0.5758850000000  0.4375690000000  0.4168770000000 1.0
C      1  0.6282860000000  0.4600740000000  0.5000550000000 1.0
C      1  0.4861280000000  0.4835610000000  0.3562520000000 1.0
C      1  0.5216240000000  0.5146690000000  0.5321390000000 1.0
C      1  0.4342880000000  0.5145180000000  0.4120700000000 1.0
C      1  0.5704500000000  0.5976940000000  0.5532170000000 1.0
C      1  0.4971480000000  0.5062690000000  0.4894880000000 1.0
C      1  0.5257720000000  0.6076260000000  0.5480250000000 1.0
C      1  0.5637800000000  0.5300910000000  0.5910430000000 1.0
C      1  0.4878060000000  0.5536830000000  0.4977220000000 1.0
C      1  0.4821900000000  0.4286970000000  0.4006950000000 1.0
C      1  0.5929260000000  0.5235970000000  0.5215960000000 1.0
C      1  0.4328810000000  0.4838730000000  0.4106550000000 1.0
C      1  0.5069790000000  0.4879560000000  0.4141840000000 1.0
C      1  0.4853030000000  0.4822880000000  0.5269850000000 1.0
C      1  0.5630110000000  0.4608720000000  0.5933340000000 1.0
C      1  0.4372150000000  0.4498640000000  0.5021120000000 1.0
END
