TITL C-599895-9959-590 0.128840828159832 125000 -309.420013367312 0 0 54 (C1) n - 1
REM
REM in /home/nfs/bkarasulu/CARBON/AIRSS/Generating-Clusters/TERSOFF/Only-C1/FIRE-HFTN
REM
REM
REM
REM
REM
REM ./C.cell (11c1c37f851c82e70ff6c80c92926a4b)
REM AIRSS Version 0.9.1 bugfix July 2018 build 013d7b7c2542+ Fri, 06 Jul 2018 19:26:36 +0100
REM compiler GCC version 9.2.1 20190827 (Red Hat 9.2.1-1)
REM options -cpp -mtune=generic -march=x86-64 -g -O0 -fpre-include=/usr/include/finclude/math-vector-fortran.h
REM seed -1785744022 -1148768865 -1485989715 -2017473658 -991468897 1723812601 911752719 2055728320 449989090 -1833822917 430435344 124297465 113301569 -2044100790 418615113 959515538 -896509435 1982662145 -786730245 -1258631417 1886627951 1368062329 -727288800 -533837942 1107532957 -573684379 -1480705031 -1004144793 89916222 2034923900 592449387 1061635697 926700010
REM
CELL 1.54180   50.00000   50.00000   50.00000   90.00000   90.00000   90.00000
LATT -1
SFAC C  
C      1  0.4280230000000  0.4706860000000  0.4800680000000 1.0
C      1  0.4264970000000  0.5028500000000  0.5164750000000 1.0
C      1  0.4532470000000  0.4845920000000  0.4250680000000 1.0
C      1  0.4437190000000  0.4838480000000  0.5015520000000 1.0
C      1  0.4604830000000  0.4946980000000  0.5764990000000 1.0
C      1  0.5066230000000  0.5079390000000  0.4668310000000 1.0
C      1  0.5009360000000  0.4552160000000  0.5373620000000 1.0
C      1  0.4728010000000  0.4589200000000  0.5414600000000 1.0
C      1  0.5726960000000  0.4940510000000  0.4892280000000 1.0
C      1  0.4087290000000  0.5184530000000  0.5273990000000 1.0
C      1  0.4646960000000  0.4705430000000  0.5659040000000 1.0
C      1  0.5276920000000  0.5536900000000  0.5652320000000 1.0
C      1  0.5212760000000  0.4836760000000  0.4650600000000 1.0
C      1  0.4672970000000  0.5594930000000  0.5382550000000 1.0
C      1  0.5134470000000  0.4563070000000  0.5115100000000 1.0
C      1  0.5180440000000  0.4455820000000  0.4376520000000 1.0
C      1  0.5483960000000  0.5103500000000  0.5593660000000 1.0
C      1  0.4791440000000  0.4986380000000  0.4646370000000 1.0
C      1  0.5758080000000  0.5084350000000  0.5647750000000 1.0
C      1  0.5155520000000  0.5003700000000  0.5161580000000 1.0
C      1  0.5061090000000  0.4560200000000  0.4838980000000 1.0
C      1  0.4627230000000  0.5434980000000  0.5589870000000 1.0
C      1  0.6020670000000  0.5064730000000  0.5676720000000 1.0
C      1  0.4955690000000  0.4611280000000  0.4338820000000 1.0
C      1  0.5421220000000  0.4854390000000  0.4462110000000 1.0
C      1  0.4897000000000  0.4352970000000  0.4752520000000 1.0
C      1  0.4418280000000  0.4268450000000  0.4620840000000 1.0
C      1  0.4663830000000  0.6170610000000  0.4603230000000 1.0
C      1  0.5175130000000  0.5326200000000  0.4768950000000 1.0
C      1  0.5650950000000  0.5197050000000  0.4855620000000 1.0
C      1  0.5403760000000  0.5407860000000  0.5206170000000 1.0
C      1  0.4255840000000  0.4476320000000  0.4667390000000 1.0
C      1  0.4677750000000  0.4226290000000  0.4669980000000 1.0
C      1  0.5397720000000  0.4403320000000  0.4539540000000 1.0
C      1  0.5332190000000  0.4777270000000  0.5113680000000 1.0
C      1  0.4755150000000  0.4809540000000  0.4416090000000 1.0
C      1  0.4548690000000  0.4624980000000  0.5200990000000 1.0
C      1  0.4687520000000  0.4980290000000  0.4915150000000 1.0
C      1  0.5176130000000  0.4659650000000  0.5582000000000 1.0
C      1  0.4582890000000  0.6378790000000  0.4468780000000 1.0
C      1  0.5385640000000  0.5350350000000  0.5483230000000 1.0
C      1  0.5582660000000  0.4922570000000  0.4268580000000 1.0
C      1  0.6279400000000  0.5045210000000  0.5702010000000 1.0
C      1  0.5561880000000  0.4717430000000  0.4946920000000 1.0
C      1  0.4328040000000  0.4883300000000  0.4093440000000 1.0
C      1  0.4739980000000  0.5691790000000  0.5144510000000 1.0
C      1  0.5416780000000  0.5336750000000  0.4930920000000 1.0
C      1  0.4889290000000  0.5048330000000  0.5112990000000 1.0
C      1  0.4746080000000  0.5959040000000  0.4739860000000 1.0
C      1  0.5542140000000  0.4496510000000  0.4756040000000 1.0
C      1  0.5320730000000  0.4877830000000  0.5645590000000 1.0
C      1  0.5012510000000  0.5555050000000  0.4768460000000 1.0
C      1  0.4832640000000  0.5736120000000  0.4883710000000 1.0
C      1  0.4602410000000  0.5211150000000  0.5731400000000 1.0
END
