TITL C-599891-72-463 1.58542167511258 125000 -459.813161337986 0 0 75 (C1) n - 1
REM
REM in /home/nfs/bkarasulu/CARBON/AIRSS/Generating-Clusters/TERSOFF/Only-C1/FIRE-HFTN
REM
REM
REM
REM
REM
REM ./C.cell (11c1c37f851c82e70ff6c80c92926a4b)
REM AIRSS Version 0.9.1 bugfix July 2018 build 013d7b7c2542+ Fri, 06 Jul 2018 19:26:36 +0100
REM compiler GCC version 9.2.1 20190827 (Red Hat 9.2.1-1)
REM options -cpp -mtune=generic -march=x86-64 -g -O0 -fpre-include=/usr/include/finclude/math-vector-fortran.h
REM seed -945884830 473926182 590971515 -2119872055 -1563554336 -650123807 498225279 -785782620 925673294 -460170226 -1054007640 2128765532 248219300 -1024694608 -1548668321 -1628106835 -1769227716 843172794 1105707980 -122539162 -1979685065 985765514 -986477287 2105667338 -895425257 409455556 -1908262233 481660972 2027988552 -1040225806 249034910 -1270710235 1839806061
REM
CELL 1.54180   50.00000   50.00000   50.00000   90.00000   90.00000   90.00000
LATT -1
SFAC C  
C      1  0.4885250000000  0.4082640000000  0.4472650000000 1.0
C      1  0.4780420000000  0.5691320000000  0.5229370000000 1.0
C      1  0.5632460000000  0.4839740000000  0.5486890000000 1.0
C      1  0.5186920000000  0.5449150000000  0.5536690000000 1.0
C      1  0.5064380000000  0.5594310000000  0.5301560000000 1.0
C      1  0.5112510000000  0.5402690000000  0.5082490000000 1.0
C      1  0.4439010000000  0.4421930000000  0.5136020000000 1.0
C      1  0.5891850000000  0.4654340000000  0.5146180000000 1.0
C      1  0.4971890000000  0.4284930000000  0.4651230000000 1.0
C      1  0.4668600000000  0.4671070000000  0.5491190000000 1.0
C      1  0.4639060000000  0.5170760000000  0.4475600000000 1.0
C      1  0.5340240000000  0.4101800000000  0.5238540000000 1.0
C      1  0.5492180000000  0.5047980000000  0.4643090000000 1.0
C      1  0.4416750000000  0.4425310000000  0.4626520000000 1.0
C      1  0.4636420000000  0.4086790000000  0.4337220000000 1.0
C      1  0.4810080000000  0.4859740000000  0.4795650000000 1.0
C      1  0.4893860000000  0.4777250000000  0.5646450000000 1.0
C      1  0.5134100000000  0.4659840000000  0.5736780000000 1.0
C      1  0.4669130000000  0.4440200000000  0.5323040000000 1.0
C      1  0.5964270000000  0.4566490000000  0.4886300000000 1.0
C      1  0.4611950000000  0.5303270000000  0.4937520000000 1.0
C      1  0.4768240000000  0.6029640000000  0.4856990000000 1.0
C      1  0.4902640000000  0.7002890000000  0.4470990000000 1.0
C      1  0.4495900000000  0.4333780000000  0.4365130000000 1.0
C      1  0.5375720000000  0.4593150000000  0.5162130000000 1.0
C      1  0.5441670000000  0.5291760000000  0.5507360000000 1.0
C      1  0.5959610000000  0.5582610000000  0.5186590000000 1.0
C      1  0.6041390000000  0.4762320000000  0.4710340000000 1.0
C      1  0.4539530000000  0.3875350000000  0.4195700000000 1.0
C      1  0.4547440000000  0.5546250000000  0.5350190000000 1.0
C      1  0.4959320000000  0.5040300000000  0.5534830000000 1.0
C      1  0.5357820000000  0.5271270000000  0.5041670000000 1.0
C      1  0.4427420000000  0.5334900000000  0.5181850000000 1.0
C      1  0.5043240000000  0.4533890000000  0.4532580000000 1.0
C      1  0.4356260000000  0.5058510000000  0.5246600000000 1.0
C      1  0.4755920000000  0.5411810000000  0.5774300000000 1.0
C      1  0.5479300000000  0.5026270000000  0.5635880000000 1.0
C      1  0.4870310000000  0.5256210000000  0.5083440000000 1.0
C      1  0.5972860000000  0.5122280000000  0.5032830000000 1.0
C      1  0.5832070000000  0.5342160000000  0.5154020000000 1.0
C      1  0.5636690000000  0.4656920000000  0.5270650000000 1.0
C      1  0.5364430000000  0.5028330000000  0.4891570000000 1.0
C      1  0.4580730000000  0.4908680000000  0.5337880000000 1.0
C      1  0.4801900000000  0.6274410000000  0.4761620000000 1.0
C      1  0.5462130000000  0.3879290000000  0.5179760000000 1.0
C      1  0.5206580000000  0.4430320000000  0.5586560000000 1.0
C      1  0.4984800000000  0.5289750000000  0.5664670000000 1.0
C      1  0.5322330000000  0.4864280000000  0.5816810000000 1.0
C      1  0.4734900000000  0.5768170000000  0.4945760000000 1.0
C      1  0.4219210000000  0.4603310000000  0.5152340000000 1.0
C      1  0.4521420000000  0.4533940000000  0.4165170000000 1.0
C      1  0.6034590000000  0.4900840000000  0.5203950000000 1.0
C      1  0.4832310000000  0.4296010000000  0.4900370000000 1.0
C      1  0.4869430000000  0.6762740000000  0.4566850000000 1.0
C      1  0.4653620000000  0.5550770000000  0.4772100000000 1.0
C      1  0.4222220000000  0.4878700000000  0.5065180000000 1.0
C      1  0.4958830000000  0.4824860000000  0.5038560000000 1.0
C      1  0.4683720000000  0.5627020000000  0.4280900000000 1.0
C      1  0.5205690000000  0.4362880000000  0.5287110000000 1.0
C      1  0.4540350000000  0.4341870000000  0.4874050000000 1.0
C      1  0.4627900000000  0.4781710000000  0.4147310000000 1.0
C      1  0.4553390000000  0.5520870000000  0.5631950000000 1.0
C      1  0.4856320000000  0.5015210000000  0.5251160000000 1.0
C      1  0.4914360000000  0.4349410000000  0.5178620000000 1.0
C      1  0.5747410000000  0.5117960000000  0.4592300000000 1.0
C      1  0.4313030000000  0.4905510000000  0.4793130000000 1.0
C      1  0.4660450000000  0.5461030000000  0.4495560000000 1.0
C      1  0.4571720000000  0.5056880000000  0.4761200000000 1.0
C      1  0.5559590000000  0.5313270000000  0.5240340000000 1.0
C      1  0.4761400000000  0.4938200000000  0.4340670000000 1.0
C      1  0.4277960000000  0.4673810000000  0.4634110000000 1.0
C      1  0.4910460000000  0.4781280000000  0.4537050000000 1.0
C      1  0.5241660000000  0.4798810000000  0.5013930000000 1.0
C      1  0.5964830000000  0.5037480000000  0.4752120000000 1.0
C      1  0.4835660000000  0.6518570000000  0.4664320000000 1.0
END
