TITL C-599890-3321-1372 3.98603720682922e-05 125000 -757.921655377144 0 0 124 (C1) n - 1
REM
REM in /home/nfs/bkarasulu/CARBON/AIRSS/Generating-Clusters/TERSOFF/Only-C1/FIRE-HFTN
REM
REM
REM
REM
REM
REM ./C.cell (11c1c37f851c82e70ff6c80c92926a4b)
REM AIRSS Version 0.9.1 bugfix July 2018 build 013d7b7c2542+ Fri, 06 Jul 2018 19:26:36 +0100
REM compiler GCC version 9.2.1 20190827 (Red Hat 9.2.1-1)
REM options -cpp -mtune=generic -march=x86-64 -g -O0 -fpre-include=/usr/include/finclude/math-vector-fortran.h
REM seed -1891909914 -1340271221 -697613436 -1684631843 1637200473 -94475253 -695144619 -214646628 -1546343429 -1046294504 1010377360 -179086653 -1333990084 1355887199 -209281813 -701286523 -439855998 1558659499 1645761826 -1291308925 -481108565 1810790732 1185055701 2117075183 -739045800 -306990829 -977990394 880283858 -569546086 171770246 -1015285237 441919348 998166624
REM
CELL 1.54180   50.00000   50.00000   50.00000   90.00000   90.00000   90.00000
LATT -1
SFAC C  
C      1  0.5467370000000  0.5275790000000  0.4174150000000 1.0
C      1  0.5191020000000  0.5916090000000  0.4757160000000 1.0
C      1  0.4722030000000  0.4644410000000  0.5806300000000 1.0
C      1  0.5482770000000  0.5364560000000  0.5020850000000 1.0
C      1  0.5278670000000  0.5485200000000  0.4151870000000 1.0
C      1  0.5440500000000  0.5093110000000  0.4905230000000 1.0
C      1  0.4740470000000  0.5722300000000  0.4483540000000 1.0
C      1  0.3941300000000  0.5344110000000  0.5339720000000 1.0
C      1  0.5909620000000  0.5672940000000  0.5189380000000 1.0
C      1  0.4486970000000  0.4809650000000  0.5709490000000 1.0
C      1  0.5464550000000  0.4393390000000  0.5529370000000 1.0
C      1  0.5062220000000  0.4444810000000  0.4468470000000 1.0
C      1  0.4580270000000  0.4513760000000  0.4413230000000 1.0
C      1  0.5995240000000  0.4864750000000  0.4873260000000 1.0
C      1  0.5259980000000  0.4548660000000  0.4055140000000 1.0
C      1  0.4179930000000  0.4807070000000  0.5044960000000 1.0
C      1  0.4913660000000  0.5652940000000  0.5579370000000 1.0
C      1  0.5282920000000  0.5495730000000  0.5916530000000 1.0
C      1  0.5717660000000  0.4551520000000  0.4646390000000 1.0
C      1  0.5194340000000  0.4915340000000  0.5820260000000 1.0
C      1  0.5449990000000  0.5902440000000  0.5389340000000 1.0
C      1  0.5025960000000  0.5121560000000  0.5709500000000 1.0
C      1  0.5592520000000  0.4163120000000  0.4400500000000 1.0
C      1  0.4521080000000  0.4895610000000  0.4703020000000 1.0
C      1  0.4086650000000  0.5439930000000  0.5565560000000 1.0
C      1  0.5540590000000  0.5637750000000  0.5433530000000 1.0
C      1  0.5470970000000  0.5017870000000  0.5777610000000 1.0
C      1  0.4390400000000  0.5330040000000  0.4944180000000 1.0
C      1  0.5826130000000  0.4784250000000  0.5387380000000 1.0
C      1  0.4725300000000  0.4388680000000  0.5682020000000 1.0
C      1  0.5654810000000  0.5545770000000  0.5179420000000 1.0
C      1  0.3924200000000  0.4846130000000  0.4940490000000 1.0
C      1  0.5574000000000  0.3913940000000  0.5523040000000 1.0
C      1  0.4838900000000  0.5053410000000  0.5127480000000 1.0
C      1  0.4621720000000  0.3721260000000  0.4938820000000 1.0
C      1  0.5578850000000  0.3981680000000  0.5050080000000 1.0
C      1  0.4897420000000  0.5529910000000  0.4632950000000 1.0
C      1  0.5967400000000  0.5110680000000  0.4725610000000 1.0
C      1  0.4545570000000  0.5177160000000  0.4718690000000 1.0
C      1  0.4706260000000  0.5923980000000  0.4696590000000 1.0
C      1  0.4488060000000  0.5571520000000  0.5778670000000 1.0
C      1  0.5578260000000  0.5179080000000  0.3941810000000 1.0
C      1  0.4562670000000  0.5975920000000  0.5183950000000 1.0
C      1  0.4764320000000  0.5111080000000  0.4174760000000 1.0
C      1  0.5013890000000  0.4484270000000  0.4182300000000 1.0
C      1  0.5647910000000  0.4445290000000  0.4381950000000 1.0
C      1  0.5325110000000  0.4449300000000  0.5291420000000 1.0
C      1  0.5509480000000  0.4568650000000  0.4165650000000 1.0
C      1  0.4444120000000  0.4789130000000  0.4946840000000 1.0
C      1  0.5695080000000  0.4966040000000  0.5575030000000 1.0
C      1  0.4646760000000  0.5743970000000  0.5616690000000 1.0
C      1  0.5549140000000  0.5156380000000  0.4421330000000 1.0
C      1  0.5641110000000  0.5437280000000  0.5608700000000 1.0
C      1  0.4605930000000  0.5812660000000  0.4956100000000 1.0
C      1  0.4342450000000  0.5384980000000  0.4172560000000 1.0
C      1  0.5242730000000  0.5493830000000  0.4956760000000 1.0
C      1  0.5119280000000  0.5638260000000  0.4762100000000 1.0
C      1  0.5561400000000  0.4161970000000  0.5627610000000 1.0
C      1  0.4351320000000  0.5177980000000  0.5221160000000 1.0
C      1  0.5980200000000  0.4629800000000  0.4720590000000 1.0
C      1  0.3495990000000  0.5082450000000  0.4910100000000 1.0
C      1  0.3908460000000  0.5307000000000  0.5057680000000 1.0
C      1  0.4622430000000  0.5369080000000  0.4140480000000 1.0
C      1  0.4828050000000  0.3581660000000  0.5034850000000 1.0
C      1  0.5847650000000  0.5586480000000  0.4770860000000 1.0
C      1  0.4986600000000  0.4690380000000  0.4596560000000 1.0
C      1  0.4683380000000  0.4808880000000  0.5112710000000 1.0
C      1  0.5312080000000  0.3618550000000  0.5226150000000 1.0
C      1  0.4604200000000  0.5530010000000  0.5022340000000 1.0
C      1  0.4317450000000  0.4720050000000  0.5487200000000 1.0
C      1  0.4954920000000  0.6075180000000  0.4724560000000 1.0
C      1  0.4921480000000  0.5114130000000  0.4419480000000 1.0
C      1  0.5140170000000  0.4253970000000  0.5210800000000 1.0
C      1  0.4397570000000  0.4207070000000  0.4850650000000 1.0
C      1  0.3762260000000  0.5077290000000  0.4966380000000 1.0
C      1  0.5453900000000  0.5959360000000  0.4869020000000 1.0
C      1  0.5112020000000  0.5016430000000  0.5240090000000 1.0
C      1  0.5950180000000  0.4907480000000  0.5154930000000 1.0
C      1  0.4990150000000  0.4096530000000  0.5068140000000 1.0
C      1  0.4498170000000  0.5097720000000  0.5755630000000 1.0
C      1  0.4773160000000  0.5613840000000  0.4209540000000 1.0
C      1  0.4328780000000  0.5337220000000  0.5709710000000 1.0
C      1  0.4794620000000  0.5358830000000  0.5160290000000 1.0
C      1  0.5146260000000  0.4193980000000  0.4558230000000 1.0
C      1  0.4794230000000  0.5274740000000  0.4615860000000 1.0
C      1  0.4992580000000  0.4719970000000  0.5897090000000 1.0
C      1  0.4773120000000  0.4570700000000  0.5228410000000 1.0
C      1  0.4477290000000  0.3935000000000  0.4870850000000 1.0
C      1  0.5929840000000  0.5207300000000  0.5194950000000 1.0
C      1  0.5481640000000  0.5320000000000  0.5816540000000 1.0
C      1  0.4698140000000  0.4717350000000  0.4582890000000 1.0
C      1  0.4769800000000  0.5169390000000  0.5812830000000 1.0
C      1  0.5093890000000  0.5650980000000  0.5800220000000 1.0
C      1  0.4705490000000  0.4850410000000  0.4068020000000 1.0
C      1  0.4235090000000  0.4927610000000  0.5305200000000 1.0
C      1  0.4958410000000  0.5454070000000  0.5379240000000 1.0
C      1  0.4062150000000  0.5465320000000  0.4599890000000 1.0
C      1  0.5551870000000  0.4468650000000  0.4871590000000 1.0
C      1  0.4147050000000  0.5437760000000  0.4347720000000 1.0
C      1  0.5511780000000  0.4177730000000  0.4863560000000 1.0
C      1  0.4107760000000  0.5403270000000  0.4870520000000 1.0
C      1  0.5453170000000  0.6030160000000  0.5147690000000 1.0
C      1  0.6200960000000  0.4485390000000  0.4651630000000 1.0
C      1  0.5407750000000  0.4100480000000  0.4607980000000 1.0
C      1  0.5944710000000  0.5338760000000  0.4906990000000 1.0
C      1  0.5679370000000  0.5805460000000  0.4762440000000 1.0
C      1  0.4437640000000  0.4328400000000  0.4585530000000 1.0
C      1  0.4733060000000  0.4573490000000  0.4157430000000 1.0
C      1  0.5327860000000  0.4900420000000  0.5087380000000 1.0
C      1  0.5044020000000  0.5612160000000  0.4118030000000 1.0
C      1  0.4217760000000  0.5931290000000  0.5525130000000 1.0
C      1  0.5507810000000  0.3815740000000  0.5266840000000 1.0
C      1  0.5368620000000  0.5055160000000  0.4621290000000 1.0
C      1  0.5413910000000  0.4621970000000  0.5080050000000 1.0
C      1  0.5823740000000  0.5128310000000  0.4484480000000 1.0
C      1  0.4056510000000  0.5725180000000  0.5594430000000 1.0
C      1  0.5071010000000  0.3543730000000  0.5138910000000 1.0
C      1  0.4492560000000  0.5922660000000  0.5452010000000 1.0
C      1  0.4759860000000  0.4379600000000  0.5415970000000 1.0
C      1  0.4311290000000  0.4325820000000  0.5105220000000 1.0
C      1  0.5101640000000  0.5212260000000  0.5455770000000 1.0
C      1  0.5798400000000  0.5233640000000  0.5470070000000 1.0
C      1  0.4291110000000  0.4457890000000  0.5349360000000 1.0
C      1  0.5117740000000  0.4939530000000  0.4537170000000 1.0
END
