TITL C-599890-3321-98 0.0534850184699931 125000 -580.334841710708 0 0 98 (C1) n - 1
REM
REM in /home/nfs/bkarasulu/CARBON/AIRSS/Generating-Clusters/TERSOFF/Only-C1/FIRE-HFTN
REM
REM
REM
REM
REM
REM ./C.cell (11c1c37f851c82e70ff6c80c92926a4b)
REM AIRSS Version 0.9.1 bugfix July 2018 build 013d7b7c2542+ Fri, 06 Jul 2018 19:26:36 +0100
REM compiler GCC version 9.2.1 20190827 (Red Hat 9.2.1-1)
REM options -cpp -mtune=generic -march=x86-64 -g -O0 -fpre-include=/usr/include/finclude/math-vector-fortran.h
REM seed 1915175219 32238427 -1474265965 1749093296 165413803 534350122 1914230334 1828808961 -25278280 -408568215 -476675501 -385883888 1859254128 -719030465 1587974382 -824016248 267822452 -665566850 1810176739 1694586974 -2060981077 -1036109317 -1780071301 409536199 1470903197 -1284980363 -656742072 -1256135741 1838859401 -1492549591 1916926300 729167360 -1664872342
REM
CELL 1.54180   50.00000   50.00000   50.00000   90.00000   90.00000   90.00000
LATT -1
SFAC C  
C      1  0.4923970000000  0.5947200000000  0.5319870000000 1.0
C      1  0.4976470000000  0.5324310000000  0.4070250000000 1.0
C      1  0.4745130000000  0.5821780000000  0.5470200000000 1.0
C      1  0.4812890000000  0.4048180000000  0.4643150000000 1.0
C      1  0.5795520000000  0.4800260000000  0.4710900000000 1.0
C      1  0.4598740000000  0.5206940000000  0.4903040000000 1.0
C      1  0.4613540000000  0.4073880000000  0.4453420000000 1.0
C      1  0.5342400000000  0.4801730000000  0.6251900000000 1.0
C      1  0.6030230000000  0.4812030000000  0.5149950000000 1.0
C      1  0.3961540000000  0.4666100000000  0.4223580000000 1.0
C      1  0.6034880000000  0.4695040000000  0.5393430000000 1.0
C      1  0.4777020000000  0.5117950000000  0.5112900000000 1.0
C      1  0.5183950000000  0.5625330000000  0.4795950000000 1.0
C      1  0.5735260000000  0.5182510000000  0.5052630000000 1.0
C      1  0.5062290000000  0.4779830000000  0.4143890000000 1.0
C      1  0.4838080000000  0.4510200000000  0.4844860000000 1.0
C      1  0.4904390000000  0.4236460000000  0.4854010000000 1.0
C      1  0.5553940000000  0.4604140000000  0.5256440000000 1.0
C      1  0.5709340000000  0.4913520000000  0.4463410000000 1.0
C      1  0.4706440000000  0.5149870000000  0.4645570000000 1.0
C      1  0.4137080000000  0.4651050000000  0.4948960000000 1.0
C      1  0.5556010000000  0.4882700000000  0.4224230000000 1.0
C      1  0.5019300000000  0.5277680000000  0.5122530000000 1.0
C      1  0.4388880000000  0.4654210000000  0.4827060000000 1.0
C      1  0.4174550000000  0.5390270000000  0.4744230000000 1.0
C      1  0.3898910000000  0.4609110000000  0.5046100000000 1.0
C      1  0.4178690000000  0.4639860000000  0.4373000000000 1.0
C      1  0.5215770000000  0.5240790000000  0.4194710000000 1.0
C      1  0.5338060000000  0.5637210000000  0.4554130000000 1.0
C      1  0.5352360000000  0.6328600000000  0.5277190000000 1.0
C      1  0.5499670000000  0.5302250000000  0.4952760000000 1.0
C      1  0.5549160000000  0.5176330000000  0.5513460000000 1.0
C      1  0.5181240000000  0.4402490000000  0.5685590000000 1.0
C      1  0.5502180000000  0.6220610000000  0.5762340000000 1.0
C      1  0.3748500000000  0.4696850000000  0.4076550000000 1.0
C      1  0.4672850000000  0.4639020000000  0.4407630000000 1.0
C      1  0.5875430000000  0.4948460000000  0.4949970000000 1.0
C      1  0.5234250000000  0.5407580000000  0.4975190000000 1.0
C      1  0.5681980000000  0.4769910000000  0.4007010000000 1.0
C      1  0.4699460000000  0.4765580000000  0.5474470000000 1.0
C      1  0.4430820000000  0.4040410000000  0.4264370000000 1.0
C      1  0.5220210000000  0.6380980000000  0.4817950000000 1.0
C      1  0.5371470000000  0.4807050000000  0.5200760000000 1.0
C      1  0.4718190000000  0.4842030000000  0.5199050000000 1.0
C      1  0.5177930000000  0.4137940000000  0.5290030000000 1.0
C      1  0.5215500000000  0.4727100000000  0.6036850000000 1.0
C      1  0.4277300000000  0.4809290000000  0.5755430000000 1.0
C      1  0.5002460000000  0.5834210000000  0.4856310000000 1.0
C      1  0.4662740000000  0.4609120000000  0.3918560000000 1.0
C      1  0.5916350000000  0.4572250000000  0.5602640000000 1.0
C      1  0.4774350000000  0.5870960000000  0.4699160000000 1.0
C      1  0.5526990000000  0.5502710000000  0.5931210000000 1.0
C      1  0.5290390000000  0.4801460000000  0.4928580000000 1.0
C      1  0.4627710000000  0.5272540000000  0.4407710000000 1.0
C      1  0.5111520000000  0.3821510000000  0.4914450000000 1.0
C      1  0.4918820000000  0.4956300000000  0.4649190000000 1.0
C      1  0.5209650000000  0.6241040000000  0.5052660000000 1.0
C      1  0.5159550000000  0.4994570000000  0.4778970000000 1.0
C      1  0.5531820000000  0.5760560000000  0.5994650000000 1.0
C      1  0.3854030000000  0.5456420000000  0.4333390000000 1.0
C      1  0.5354790000000  0.5003220000000  0.5402170000000 1.0
C      1  0.5761800000000  0.5231920000000  0.5333570000000 1.0
C      1  0.5049260000000  0.6007520000000  0.5077200000000 1.0
C      1  0.5527880000000  0.6018980000000  0.5933310000000 1.0
C      1  0.4254530000000  0.4009070000000  0.4074900000000 1.0
C      1  0.4957540000000  0.3802630000000  0.4687260000000 1.0
C      1  0.4338860000000  0.5002890000000  0.5934160000000 1.0
C      1  0.5445740000000  0.6326590000000  0.5525540000000 1.0
C      1  0.5280440000000  0.4961280000000  0.4191140000000 1.0
C      1  0.5459780000000  0.4317400000000  0.5635870000000 1.0
C      1  0.4793860000000  0.4673200000000  0.4149500000000 1.0
C      1  0.5391130000000  0.4586000000000  0.4771190000000 1.0
C      1  0.5705280000000  0.4439950000000  0.5708300000000 1.0
C      1  0.4890040000000  0.4818880000000  0.5687020000000 1.0
C      1  0.4543050000000  0.5652660000000  0.5500660000000 1.0
C      1  0.5747040000000  0.4327790000000  0.4933630000000 1.0
C      1  0.5672620000000  0.4539830000000  0.4758900000000 1.0
C      1  0.4365900000000  0.5478100000000  0.5409010000000 1.0
C      1  0.4009200000000  0.5181220000000  0.5287190000000 1.0
C      1  0.4008780000000  0.5431320000000  0.4541660000000 1.0
C      1  0.5620090000000  0.4333870000000  0.5185870000000 1.0
C      1  0.4236080000000  0.5318350000000  0.5219980000000 1.0
C      1  0.4564050000000  0.5930790000000  0.4557390000000 1.0
C      1  0.5020630000000  0.4250220000000  0.5501900000000 1.0
C      1  0.4862610000000  0.4679840000000  0.4611740000000 1.0
C      1  0.5456730000000  0.4184210000000  0.5365780000000 1.0
C      1  0.4631380000000  0.4648480000000  0.4993560000000 1.0
C      1  0.5079190000000  0.4080970000000  0.5037150000000 1.0
C      1  0.5333470000000  0.5423560000000  0.4371740000000 1.0
C      1  0.4727690000000  0.5342190000000  0.4169570000000 1.0
C      1  0.5093580000000  0.4646350000000  0.5796670000000 1.0
C      1  0.5494570000000  0.5856260000000  0.4503320000000 1.0
C      1  0.4339290000000  0.5307020000000  0.4954300000000 1.0
C      1  0.4409260000000  0.4638940000000  0.4530540000000 1.0
C      1  0.4437480000000  0.4700480000000  0.5567120000000 1.0
C      1  0.4583820000000  0.5112190000000  0.5969730000000 1.0
C      1  0.4816030000000  0.5040880000000  0.5851540000000 1.0
C      1  0.5528350000000  0.5298660000000  0.5761550000000 1.0
END
