TITL C-599890-3321-95 -54513.0929034571 125000 -831.594693305296 0 0 138 (C1) n - 1
REM
REM in /home/nfs/bkarasulu/CARBON/AIRSS/Generating-Clusters/TERSOFF/Only-C1/FIRE-HFTN
REM
REM
REM
REM
REM
REM ./C.cell (11c1c37f851c82e70ff6c80c92926a4b)
REM AIRSS Version 0.9.1 bugfix July 2018 build 013d7b7c2542+ Fri, 06 Jul 2018 19:26:36 +0100
REM compiler GCC version 9.2.1 20190827 (Red Hat 9.2.1-1)
REM options -cpp -mtune=generic -march=x86-64 -g -O0 -fpre-include=/usr/include/finclude/math-vector-fortran.h
REM seed 1933009152 -962756865 -1393463043 815404509 1117691737 -2083986933 484370288 -1962484837 391544374 -219819187 -1792300250 1370687273 1129422001 2020455938 -1698532040 1794116020 -1355742859 2102191504 -2118334507 -1757597379 1040131007 2086853479 1849862761 -1141826329 1002470413 179283738 -1746948927 -1175848779 482710431 698772960 -343875073 -464186668 2041020870
REM
CELL 1.54180   50.00000   50.00000   50.00000   90.00000   90.00000   90.00000
LATT -1
SFAC C  
C      1  0.4714520000000  0.4983200000000  0.5077110000000 1.0
C      1  0.5867670000000  0.5661360000000  0.5267580000000 1.0
C      1  0.4647270000000  0.5661880000000  0.5186110000000 1.0
C      1  0.5010490000000  0.3685090000000  0.5451550000000 1.0
C      1  0.4648270000000  0.4461010000000  0.4815910000000 1.0
C      1  0.4784260000000  0.4630080000000  0.4630180000000 1.0
C      1  0.4654190000000  0.4565370000000  0.4009350000000 1.0
C      1  0.6058360000000  0.4882240000000  0.5838210000000 1.0
C      1  0.4290970000000  0.5253110000000  0.4879940000000 1.0
C      1  0.4585560000000  0.4745940000000  0.5209750000000 1.0
C      1  0.5493240000000  0.5495830000000  0.4178580000000 1.0
C      1  0.5545290000000  0.4982120000000  0.4605410000000 1.0
C      1  0.4198130000000  0.4510610000000  0.4508120000000 1.0
C      1  0.4974380000000  0.4498680000000  0.4477900000000 1.0
C      1  0.5409000000000  0.5238750000000  0.6019580000000 1.0
C      1  0.5289000000000  0.4584870000000  0.5283660000000 1.0
C      1  0.5594910000000  0.6277510000000  0.5352810000000 1.0
C      1  0.4158010000000  0.4792040000000  0.5461150000000 1.0
C      1  0.4753770000000  0.5921220000000  0.5101350000000 1.0
C      1  0.5460800000000  0.5106280000000  0.5305860000000 1.0
C      1  0.5803990000000  0.5404670000000  0.4539510000000 1.0
C      1  0.4820700000000  0.5028640000000  0.5673610000000 1.0
C      1  0.5487670000000  0.6023930000000  0.5385270000000 1.0
C      1  0.5422070000000  0.5945290000000  0.4866130000000 1.0
C      1  0.5289000000000  0.4973540000000  0.5501640000000 1.0
C      1  0.4973840000000  0.5571090000000  0.5640020000000 1.0
C      1  0.4981170000000  0.6084980000000  0.4713000000000 1.0
C      1  0.4789680000000  0.4230060000000  0.4893530000000 1.0
C      1  0.5334050000000  0.5047770000000  0.4043820000000 1.0
C      1  0.4721600000000  0.6002340000000  0.4818120000000 1.0
C      1  0.5717630000000  0.5558130000000  0.4761210000000 1.0
C      1  0.5749230000000  0.5362750000000  0.5570810000000 1.0
C      1  0.5205480000000  0.5968300000000  0.5408750000000 1.0
C      1  0.4865770000000  0.4007660000000  0.4726420000000 1.0
C      1  0.5206030000000  0.5029080000000  0.4944820000000 1.0
C      1  0.5340280000000  0.4062380000000  0.4683990000000 1.0
C      1  0.5490160000000  0.5553300000000  0.5569000000000 1.0
C      1  0.4393810000000  0.4823780000000  0.4786310000000 1.0
C      1  0.5161770000000  0.5772110000000  0.5601070000000 1.0
C      1  0.4228570000000  0.5086080000000  0.5520370000000 1.0
C      1  0.4303790000000  0.4786170000000  0.4518660000000 1.0
C      1  0.4844880000000  0.4585870000000  0.5660160000000 1.0
C      1  0.5083900000000  0.4849700000000  0.6024470000000 1.0
C      1  0.5309210000000  0.5285790000000  0.4223070000000 1.0
C      1  0.4284200000000  0.5034980000000  0.4372210000000 1.0
C      1  0.4017730000000  0.4471630000000  0.5028530000000 1.0
C      1  0.4393490000000  0.4497140000000  0.4063680000000 1.0
C      1  0.4536890000000  0.5171620000000  0.4350450000000 1.0
C      1  0.4809190000000  0.5467690000000  0.5855080000000 1.0
C      1  0.4859860000000  0.5003540000000  0.4005500000000 1.0
C      1  0.3841070000000  0.5004230000000  0.4546070000000 1.0
C      1  0.5513900000000  0.4275200000000  0.5667480000000 1.0
C      1  0.5018610000000  0.4364520000000  0.5716180000000 1.0
C      1  0.5341550000000  0.4334810000000  0.4200140000000 1.0
C      1  0.4876900000000  0.4050090000000  0.4439950000000 1.0
C      1  0.5215380000000  0.4124990000000  0.4389460000000 1.0
C      1  0.4680090000000  0.4197280000000  0.4302450000000 1.0
C      1  0.5937160000000  0.5112090000000  0.5218520000000 1.0
C      1  0.4032840000000  0.5453980000000  0.4476080000000 1.0
C      1  0.4781050000000  0.4619380000000  0.5380440000000 1.0
C      1  0.5139950000000  0.4106010000000  0.5228450000000 1.0
C      1  0.5715560000000  0.4461650000000  0.4548710000000 1.0
C      1  0.4473490000000  0.4617540000000  0.4974850000000 1.0
C      1  0.5018350000000  0.5467310000000  0.4924070000000 1.0
C      1  0.4034690000000  0.5174030000000  0.4420690000000 1.0
C      1  0.4264090000000  0.4568390000000  0.5609610000000 1.0
C      1  0.4742520000000  0.5741500000000  0.4196850000000 1.0
C      1  0.4533870000000  0.5926200000000  0.4623810000000 1.0
C      1  0.5904490000000  0.5377940000000  0.5327260000000 1.0
C      1  0.5345130000000  0.4800680000000  0.4501000000000 1.0
C      1  0.5034290000000  0.5108120000000  0.5516700000000 1.0
C      1  0.4991390000000  0.4878180000000  0.5043280000000 1.0
C      1  0.5017100000000  0.3962940000000  0.5443730000000 1.0
C      1  0.4124640000000  0.5621360000000  0.4671840000000 1.0
C      1  0.4861880000000  0.4807310000000  0.5839460000000 1.0
C      1  0.4938610000000  0.5358430000000  0.4661880000000 1.0
C      1  0.5027610000000  0.5382430000000  0.5409000000000 1.0
C      1  0.5424430000000  0.4136810000000  0.5178700000000 1.0
C      1  0.4741810000000  0.5492680000000  0.4064020000000 1.0
C      1  0.4698170000000  0.5217080000000  0.4115450000000 1.0
C      1  0.5645920000000  0.5098530000000  0.6071990000000 1.0
C      1  0.6138780000000  0.4956360000000  0.5341470000000 1.0
C      1  0.4858350000000  0.5465360000000  0.5168580000000 1.0
C      1  0.4530820000000  0.5088320000000  0.4848750000000 1.0
C      1  0.5684720000000  0.4972000000000  0.5161340000000 1.0
C      1  0.4366650000000  0.4352170000000  0.4312530000000 1.0
C      1  0.5014930000000  0.4588550000000  0.5176560000000 1.0
C      1  0.5338750000000  0.5401540000000  0.5307970000000 1.0
C      1  0.4966550000000  0.3429000000000  0.5429370000000 1.0
C      1  0.5298110000000  0.5514140000000  0.5021590000000 1.0
C      1  0.4970850000000  0.5906060000000  0.4228680000000 1.0
C      1  0.5491470000000  0.5672490000000  0.4883780000000 1.0
C      1  0.4372210000000  0.5570710000000  0.5168340000000 1.0
C      1  0.5679780000000  0.4706880000000  0.5007970000000 1.0
C      1  0.3990620000000  0.4534870000000  0.4735780000000 1.0
C      1  0.4392170000000  0.4331990000000  0.5647060000000 1.0
C      1  0.5035790000000  0.6006980000000  0.5179800000000 1.0
C      1  0.4282650000000  0.5538930000000  0.4892120000000 1.0
C      1  0.5093730000000  0.4954750000000  0.4454850000000 1.0
C      1  0.5571860000000  0.4170300000000  0.5421170000000 1.0
C      1  0.5695150000000  0.6510160000000  0.5291540000000 1.0
C      1  0.5307260000000  0.4474080000000  0.5759130000000 1.0
C      1  0.5787190000000  0.5117360000000  0.4551560000000 1.0
C      1  0.5173450000000  0.6065100000000  0.4923450000000 1.0
C      1  0.5042850000000  0.6057820000000  0.4440080000000 1.0
C      1  0.4018180000000  0.4711100000000  0.5211070000000 1.0
C      1  0.5238780000000  0.4548470000000  0.4562810000000 1.0
C      1  0.5138640000000  0.4540570000000  0.4056760000000 1.0
C      1  0.4596810000000  0.4152450000000  0.5652090000000 1.0
C      1  0.6168400000000  0.4871620000000  0.5594790000000 1.0
C      1  0.5179170000000  0.5242630000000  0.4500570000000 1.0
C      1  0.5604880000000  0.4412810000000  0.4301170000000 1.0
C      1  0.4096340000000  0.5160400000000  0.5066960000000 1.0
C      1  0.4976820000000  0.4297220000000  0.5094680000000 1.0
C      1  0.4883930000000  0.4124500000000  0.5638060000000 1.0
C      1  0.5646410000000  0.4459370000000  0.4832760000000 1.0
C      1  0.5334330000000  0.4696210000000  0.5537350000000 1.0
C      1  0.5279680000000  0.4638810000000  0.6012570000000 1.0
C      1  0.5115880000000  0.4855130000000  0.4009050000000 1.0
C      1  0.4196940000000  0.5280100000000  0.5308400000000 1.0
C      1  0.5415470000000  0.5475580000000  0.5857610000000 1.0
C      1  0.4536800000000  0.5391350000000  0.5818450000000 1.0
C      1  0.5738300000000  0.5520520000000  0.4289470000000 1.0
C      1  0.4695190000000  0.5163800000000  0.4612980000000 1.0
C      1  0.4535990000000  0.5812820000000  0.4378590000000 1.0
C      1  0.4868260000000  0.4446730000000  0.4193790000000 1.0
C      1  0.4840890000000  0.4901900000000  0.4567970000000 1.0
C      1  0.5123710000000  0.3894450000000  0.4792390000000 1.0
C      1  0.3946380000000  0.4926850000000  0.5027170000000 1.0
C      1  0.5493440000000  0.4212040000000  0.4900680000000 1.0
C      1  0.5640770000000  0.5786480000000  0.5412030000000 1.0
C      1  0.3876130000000  0.4820570000000  0.4759930000000 1.0
C      1  0.5361370000000  0.5164520000000  0.4743290000000 1.0
C      1  0.5149340000000  0.5129950000000  0.6076340000000 1.0
C      1  0.4943730000000  0.5327630000000  0.6065290000000 1.0
C      1  0.5869000000000  0.4968620000000  0.6005170000000 1.0
C      1  0.4357210000000  0.5202610000000  0.5745120000000 1.0
C      1  0.5567850000000  0.5007420000000  0.3903780000000 1.0
END
