TITL C-599891-72-1222 0.355867723744357 125000 -428.482155315077 0 0 71 (C1) n - 1
REM
REM in /home/nfs/bkarasulu/CARBON/AIRSS/Generating-Clusters/TERSOFF/Only-C1/FIRE-HFTN
REM
REM
REM
REM
REM
REM ./C.cell (11c1c37f851c82e70ff6c80c92926a4b)
REM AIRSS Version 0.9.1 bugfix July 2018 build 013d7b7c2542+ Fri, 06 Jul 2018 19:26:36 +0100
REM compiler GCC version 9.2.1 20190827 (Red Hat 9.2.1-1)
REM options -cpp -mtune=generic -march=x86-64 -g -O0 -fpre-include=/usr/include/finclude/math-vector-fortran.h
REM seed 1457605 -1801693710 858060647 1494630493 1984006744 1857126563 -1436333070 -885540685 -1750380636 -1458035967 -1244107839 -1445088496 -419913638 -338791540 -292010677 -309006672 -1227560988 719461896 -1926951360 216836814 -883996136 -1987051022 -682641507 -2066617315 -2016083601 783940004 -281814912 730596519 -811021584 -1501070576 744026169 451292867 593608015
REM
CELL 1.54180   50.00000   50.00000   50.00000   90.00000   90.00000   90.00000
LATT -1
SFAC C  
C      1  0.5705930000000  0.4084890000000  0.4819470000000 1.0
C      1  0.5214090000000  0.4880340000000  0.4762780000000 1.0
C      1  0.4807440000000  0.5170720000000  0.5270620000000 1.0
C      1  0.5245020000000  0.4898360000000  0.4480660000000 1.0
C      1  0.4748270000000  0.5545900000000  0.4983990000000 1.0
C      1  0.5531960000000  0.5128380000000  0.5388070000000 1.0
C      1  0.5674680000000  0.5196790000000  0.4456560000000 1.0
C      1  0.4932160000000  0.5343100000000  0.5805450000000 1.0
C      1  0.5092200000000  0.5742920000000  0.5521970000000 1.0
C      1  0.4236460000000  0.5073190000000  0.4999200000000 1.0
C      1  0.5273810000000  0.5540700000000  0.4222010000000 1.0
C      1  0.5467560000000  0.5656810000000  0.4403690000000 1.0
C      1  0.5575380000000  0.3576090000000  0.4800280000000 1.0
C      1  0.5640320000000  0.3828400000000  0.4809510000000 1.0
C      1  0.5008920000000  0.4911410000000  0.4310590000000 1.0
C      1  0.5403010000000  0.6040030000000  0.4724450000000 1.0
C      1  0.4552790000000  0.5409810000000  0.4178550000000 1.0
C      1  0.4957990000000  0.5048930000000  0.5807370000000 1.0
C      1  0.4994070000000  0.5604040000000  0.4315330000000 1.0
C      1  0.4742310000000  0.4937040000000  0.5410350000000 1.0
C      1  0.4297090000000  0.5444980000000  0.4142520000000 1.0
C      1  0.4512650000000  0.5583050000000  0.5657220000000 1.0
C      1  0.5871700000000  0.4521730000000  0.4624600000000 1.0
C      1  0.4357650000000  0.4366990000000  0.4777740000000 1.0
C      1  0.5214030000000  0.4921880000000  0.5726990000000 1.0
C      1  0.5430720000000  0.5079280000000  0.5632450000000 1.0
C      1  0.4972840000000  0.5558440000000  0.4806200000000 1.0
C      1  0.4670520000000  0.5273250000000  0.5044550000000 1.0
C      1  0.5297030000000  0.5113410000000  0.4911800000000 1.0
C      1  0.4712750000000  0.5731010000000  0.5205980000000 1.0
C      1  0.5432030000000  0.5088550000000  0.4352710000000 1.0
C      1  0.4501660000000  0.5092530000000  0.4907290000000 1.0
C      1  0.5867280000000  0.5026140000000  0.4564500000000 1.0
C      1  0.4388150000000  0.4544810000000  0.5598760000000 1.0
C      1  0.4599170000000  0.4433180000000  0.4910460000000 1.0
C      1  0.4101220000000  0.4374300000000  0.4859190000000 1.0
C      1  0.5039330000000  0.4693680000000  0.4893100000000 1.0
C      1  0.5314040000000  0.5825980000000  0.4583380000000 1.0
C      1  0.4840050000000  0.4703310000000  0.5301590000000 1.0
C      1  0.5276170000000  0.5257160000000  0.4171020000000 1.0
C      1  0.4673890000000  0.5461330000000  0.5838740000000 1.0
C      1  0.4525390000000  0.4360410000000  0.5430080000000 1.0
C      1  0.5680150000000  0.5481800000000  0.4468430000000 1.0
C      1  0.5872230000000  0.4773410000000  0.4998460000000 1.0
C      1  0.4061440000000  0.4940090000000  0.5150250000000 1.0
C      1  0.4016620000000  0.4683080000000  0.5255460000000 1.0
C      1  0.4599980000000  0.4889740000000  0.4728280000000 1.0
C      1  0.4503230000000  0.4887310000000  0.4470990000000 1.0
C      1  0.4825320000000  0.5389920000000  0.4221050000000 1.0
C      1  0.5767800000000  0.4353560000000  0.4836290000000 1.0
C      1  0.3964780000000  0.4481420000000  0.5064550000000 1.0
C      1  0.4535720000000  0.4720920000000  0.5770480000000 1.0
C      1  0.5478710000000  0.5114290000000  0.5126030000000 1.0
C      1  0.4512200000000  0.5678760000000  0.5403630000000 1.0
C      1  0.4130770000000  0.4617270000000  0.5505320000000 1.0
C      1  0.4991710000000  0.5159600000000  0.4166550000000 1.0
C      1  0.5074560000000  0.5467550000000  0.5585860000000 1.0
C      1  0.5290800000000  0.4588550000000  0.5357850000000 1.0
C      1  0.5203850000000  0.4440150000000  0.5817660000000 1.0
C      1  0.5038390000000  0.5719500000000  0.4580740000000 1.0
C      1  0.5079350000000  0.4636800000000  0.5172730000000 1.0
C      1  0.5166260000000  0.5354980000000  0.4852850000000 1.0
C      1  0.4723920000000  0.4918820000000  0.5695100000000 1.0
C      1  0.4611860000000  0.4329620000000  0.5176070000000 1.0
C      1  0.5542750000000  0.4509260000000  0.5265790000000 1.0
C      1  0.5234610000000  0.4645630000000  0.5638660000000 1.0
C      1  0.5913580000000  0.4795900000000  0.4711870000000 1.0
C      1  0.5740610000000  0.4525310000000  0.5071610000000 1.0
C      1  0.4755380000000  0.4662890000000  0.4819900000000 1.0
C      1  0.4945450000000  0.5853740000000  0.5319900000000 1.0
C      1  0.5038210000000  0.5306900000000  0.5355860000000 1.0
END
