TITL C-599893-4344-1124 0.00961347462255083 125000 -711.481651761098 0 0 119 (C1) n - 1
REM
REM in /home/nfs/bkarasulu/CARBON/AIRSS/Generating-Clusters/TERSOFF/Only-C1/FIRE-HFTN
REM
REM
REM
REM
REM
REM ./C.cell (11c1c37f851c82e70ff6c80c92926a4b)
REM AIRSS Version 0.9.1 bugfix July 2018 build 013d7b7c2542+ Fri, 06 Jul 2018 19:26:36 +0100
REM compiler GCC version 9.2.1 20190827 (Red Hat 9.2.1-1)
REM options -cpp -mtune=generic -march=x86-64 -g -O0 -fpre-include=/usr/include/finclude/math-vector-fortran.h
REM seed -1407893345 -1048204026 -42931240 431062515 -1796864318 21191618 -1480085235 -619398064 322455758 1960616873 2140772344 -856399613 -1322447299 972755964 -1441894764 315951260 -519042071 -1507837094 -1117252988 -1161039905 354608357 -648424928 1737292315 -220598971 -998955107 1263793188 -1311946374 -1023859858 -507324380 1021018453 1518135503 1013405003 1543160689
REM
CELL 1.54180   50.00000   50.00000   50.00000   90.00000   90.00000   90.00000
LATT -1
SFAC C  
C      1  0.5383530000000  0.5738480000000  0.4549490000000 1.0
C      1  0.4191000000000  0.5605770000000  0.4908140000000 1.0
C      1  0.5466150000000  0.4314790000000  0.4899770000000 1.0
C      1  0.5023400000000  0.6370170000000  0.5247810000000 1.0
C      1  0.6377510000000  0.4650060000000  0.4369690000000 1.0
C      1  0.5147150000000  0.5921000000000  0.5068630000000 1.0
C      1  0.4121130000000  0.4396030000000  0.4566470000000 1.0
C      1  0.4626710000000  0.4840950000000  0.4903890000000 1.0
C      1  0.5066880000000  0.4278480000000  0.5712760000000 1.0
C      1  0.5183770000000  0.4736920000000  0.4148310000000 1.0
C      1  0.3999480000000  0.5037490000000  0.4828180000000 1.0
C      1  0.4957690000000  0.5980270000000  0.5539120000000 1.0
C      1  0.4431820000000  0.4925030000000  0.4103140000000 1.0
C      1  0.4396750000000  0.4952110000000  0.5605960000000 1.0
C      1  0.4989420000000  0.5908310000000  0.4791990000000 1.0
C      1  0.5351940000000  0.5471250000000  0.4459060000000 1.0
C      1  0.5436320000000  0.4655400000000  0.4246750000000 1.0
C      1  0.5041170000000  0.6094140000000  0.5289900000000 1.0
C      1  0.5544770000000  0.4791230000000  0.5090600000000 1.0
C      1  0.4423600000000  0.4036260000000  0.4999070000000 1.0
C      1  0.5023190000000  0.4221890000000  0.4706110000000 1.0
C      1  0.5519700000000  0.4486030000000  0.5726470000000 1.0
C      1  0.4542790000000  0.4464670000000  0.5186940000000 1.0
C      1  0.4905330000000  0.4766980000000  0.4872650000000 1.0
C      1  0.6097110000000  0.4186640000000  0.5379540000000 1.0
C      1  0.5375490000000  0.5268950000000  0.5809250000000 1.0
C      1  0.4200010000000  0.5548390000000  0.5561250000000 1.0
C      1  0.6277500000000  0.4181270000000  0.5567650000000 1.0
C      1  0.6011320000000  0.5101980000000  0.4803790000000 1.0
C      1  0.3856790000000  0.5119670000000  0.5049890000000 1.0
C      1  0.4384900000000  0.5197910000000  0.4152000000000 1.0
C      1  0.4549850000000  0.5842870000000  0.5790830000000 1.0
C      1  0.5181080000000  0.4272680000000  0.4465460000000 1.0
C      1  0.4300230000000  0.5740530000000  0.5748160000000 1.0
C      1  0.4803490000000  0.5431810000000  0.6030100000000 1.0
C      1  0.5292520000000  0.3789710000000  0.5275110000000 1.0
C      1  0.4539510000000  0.5768680000000  0.4614450000000 1.0
C      1  0.4791440000000  0.5206850000000  0.5538240000000 1.0
C      1  0.4439010000000  0.5452830000000  0.4207750000000 1.0
C      1  0.4628440000000  0.4369170000000  0.5440210000000 1.0
C      1  0.5169710000000  0.5447650000000  0.5717390000000 1.0
C      1  0.4493600000000  0.4750470000000  0.5139580000000 1.0
C      1  0.5197790000000  0.3938630000000  0.5075650000000 1.0
C      1  0.6154970000000  0.4678550000000  0.4190320000000 1.0
C      1  0.4856610000000  0.4868170000000  0.3755660000000 1.0
C      1  0.4867330000000  0.4958540000000  0.3224040000000 1.0
C      1  0.6064070000000  0.4902560000000  0.4608950000000 1.0
C      1  0.4570620000000  0.4268860000000  0.4970810000000 1.0
C      1  0.5651820000000  0.4708060000000  0.5655570000000 1.0
C      1  0.4820630000000  0.4286650000000  0.5607800000000 1.0
C      1  0.5488760000000  0.4536320000000  0.4710570000000 1.0
C      1  0.4970490000000  0.5599730000000  0.5868980000000 1.0
C      1  0.5153710000000  0.5910980000000  0.4555960000000 1.0
C      1  0.4982160000000  0.4825350000000  0.4589960000000 1.0
C      1  0.5075000000000  0.5410050000000  0.5005050000000 1.0
C      1  0.6324820000000  0.4772320000000  0.4610730000000 1.0
C      1  0.4345020000000  0.4501170000000  0.4451520000000 1.0
C      1  0.6140980000000  0.4597890000000  0.3931830000000 1.0
C      1  0.5039730000000  0.4724390000000  0.5132620000000 1.0
C      1  0.5348860000000  0.4261840000000  0.5727520000000 1.0
C      1  0.4302140000000  0.5801450000000  0.4762030000000 1.0
C      1  0.4027520000000  0.5177090000000  0.5801800000000 1.0
C      1  0.4734910000000  0.4286680000000  0.4732560000000 1.0
C      1  0.4539330000000  0.5057530000000  0.4738030000000 1.0
C      1  0.5094820000000  0.4824390000000  0.3899380000000 1.0
C      1  0.5214880000000  0.4165940000000  0.4914390000000 1.0
C      1  0.5271350000000  0.5054390000000  0.5965710000000 1.0
C      1  0.4264700000000  0.5136420000000  0.4774720000000 1.0
C      1  0.4775470000000  0.5720810000000  0.4765560000000 1.0
C      1  0.5397940000000  0.5075330000000  0.4746680000000 1.0
C      1  0.3773070000000  0.4885960000000  0.5454040000000 1.0
C      1  0.5903080000000  0.4199630000000  0.5199480000000 1.0
C      1  0.5024570000000  0.5331280000000  0.5502480000000 1.0
C      1  0.5455040000000  0.4003510000000  0.5691400000000 1.0
C      1  0.4606980000000  0.4395240000000  0.4495000000000 1.0
C      1  0.5108890000000  0.4857530000000  0.5879060000000 1.0
C      1  0.4583380000000  0.5675290000000  0.5295040000000 1.0
C      1  0.5139770000000  0.5634530000000  0.5159070000000 1.0
C      1  0.4144490000000  0.4922230000000  0.5737570000000 1.0
C      1  0.4513040000000  0.5662890000000  0.4354960000000 1.0
C      1  0.5945520000000  0.4816860000000  0.4346250000000 1.0
C      1  0.3989970000000  0.5350540000000  0.5576290000000 1.0
C      1  0.4834540000000  0.5827140000000  0.5746100000000 1.0
C      1  0.5941880000000  0.5042380000000  0.5072430000000 1.0
C      1  0.5278190000000  0.5215300000000  0.4973140000000 1.0
C      1  0.6117940000000  0.5605190000000  0.4646020000000 1.0
C      1  0.5512560000000  0.4814970000000  0.4804730000000 1.0
C      1  0.5007980000000  0.6625620000000  0.5198650000000 1.0
C      1  0.5399410000000  0.4460700000000  0.4452690000000 1.0
C      1  0.4979100000000  0.4684440000000  0.4343010000000 1.0
C      1  0.4929840000000  0.4766120000000  0.5392740000000 1.0
C      1  0.4989850000000  0.5108810000000  0.4539240000000 1.0
C      1  0.4987290000000  0.4774690000000  0.5655190000000 1.0
C      1  0.5690690000000  0.4954350000000  0.5517600000000 1.0
C      1  0.4632730000000  0.5206500000000  0.5993700000000 1.0
C      1  0.4277790000000  0.5346460000000  0.4966710000000 1.0
C      1  0.4370280000000  0.5251630000000  0.5218650000000 1.0
C      1  0.4846230000000  0.5450020000000  0.4831220000000 1.0
C      1  0.4402850000000  0.5486080000000  0.5373200000000 1.0
C      1  0.5414280000000  0.3808720000000  0.5512200000000 1.0
C      1  0.4764750000000  0.5234350000000  0.4666260000000 1.0
C      1  0.3837760000000  0.5138940000000  0.5334250000000 1.0
C      1  0.4612460000000  0.4864210000000  0.3895740000000 1.0
C      1  0.5551670000000  0.5824530000000  0.4765690000000 1.0
C      1  0.4401350000000  0.4970480000000  0.5313350000000 1.0
C      1  0.5262900000000  0.5209660000000  0.4523190000000 1.0
C      1  0.5691130000000  0.4233400000000  0.5044310000000 1.0
C      1  0.4790600000000  0.4484290000000  0.4301770000000 1.0
C      1  0.4604620000000  0.5108000000000  0.5725910000000 1.0
C      1  0.3944270000000  0.4756410000000  0.5622840000000 1.0
C      1  0.5312160000000  0.4672930000000  0.5184920000000 1.0
C      1  0.4511750000000  0.5086140000000  0.6206910000000 1.0
C      1  0.5596360000000  0.5191380000000  0.5645480000000 1.0
C      1  0.4862480000000  0.4914630000000  0.3480890000000 1.0
C      1  0.5680500000000  0.4795700000000  0.4253410000000 1.0
C      1  0.5441660000000  0.5951650000000  0.4983310000000 1.0
C      1  0.4330430000000  0.4722450000000  0.4272530000000 1.0
C      1  0.6042820000000  0.5370120000000  0.4729850000000 1.0
C      1  0.5739490000000  0.4934200000000  0.5235590000000 1.0
END
