TITL C-599891-72-449 -0.0056358496833933 125000 -771.870473888348 0 0 127 (C1) n - 1
REM
REM in /home/nfs/bkarasulu/CARBON/AIRSS/Generating-Clusters/TERSOFF/Only-C1/FIRE-HFTN
REM
REM
REM
REM
REM
REM ./C.cell (11c1c37f851c82e70ff6c80c92926a4b)
REM AIRSS Version 0.9.1 bugfix July 2018 build 013d7b7c2542+ Fri, 06 Jul 2018 19:26:36 +0100
REM compiler GCC version 9.2.1 20190827 (Red Hat 9.2.1-1)
REM options -cpp -mtune=generic -march=x86-64 -g -O0 -fpre-include=/usr/include/finclude/math-vector-fortran.h
REM seed 1931975738 360001214 -64414519 277973256 -1730279254 2133604406 -1139603863 597021371 -262365499 -1558010201 575593261 -1480080470 -242922950 1291141152 1758516518 608916690 365501137 -1045291033 603224508 2123518421 1315120418 -605573734 -319555017 -1173096979 1079168946 650198431 630987480 1445527109 2023409823 1912737783 -1933718719 -1327723207 526001384
REM
CELL 1.54180   50.00000   50.00000   50.00000   90.00000   90.00000   90.00000
LATT -1
SFAC C  
C      1  0.4403550000000  0.5335220000000  0.4424960000000 1.0
C      1  0.4347440000000  0.4756570000000  0.5654530000000 1.0
C      1  0.5316460000000  0.4670270000000  0.4192980000000 1.0
C      1  0.5722880000000  0.5905950000000  0.5481410000000 1.0
C      1  0.4227130000000  0.4907480000000  0.5180870000000 1.0
C      1  0.6227530000000  0.5196940000000  0.5009390000000 1.0
C      1  0.5859610000000  0.6057350000000  0.4810770000000 1.0
C      1  0.5385580000000  0.5504980000000  0.4117700000000 1.0
C      1  0.5383480000000  0.4974610000000  0.5166270000000 1.0
C      1  0.4365240000000  0.4723130000000  0.3869500000000 1.0
C      1  0.4222950000000  0.4960900000000  0.4678280000000 1.0
C      1  0.3835230000000  0.5306020000000  0.4934590000000 1.0
C      1  0.4835360000000  0.4690780000000  0.4270780000000 1.0
C      1  0.3327290000000  0.4590510000000  0.4841280000000 1.0
C      1  0.5095720000000  0.4820080000000  0.4327120000000 1.0
C      1  0.5302240000000  0.5813710000000  0.5706570000000 1.0
C      1  0.4790010000000  0.4517900000000  0.4048410000000 1.0
C      1  0.4754160000000  0.5037370000000  0.6064690000000 1.0
C      1  0.4630530000000  0.4412160000000  0.4951010000000 1.0
C      1  0.5895020000000  0.4714250000000  0.4702240000000 1.0
C      1  0.4922370000000  0.5720410000000  0.5948290000000 1.0
C      1  0.4972010000000  0.4872130000000  0.6137600000000 1.0
C      1  0.5095080000000  0.5111600000000  0.4211550000000 1.0
C      1  0.5704180000000  0.6018360000000  0.4557570000000 1.0
C      1  0.5025590000000  0.4694190000000  0.5341880000000 1.0
C      1  0.5852780000000  0.4613220000000  0.4961370000000 1.0
C      1  0.4355780000000  0.4918450000000  0.4923920000000 1.0
C      1  0.4712950000000  0.4028240000000  0.4624000000000 1.0
C      1  0.4438110000000  0.4589160000000  0.5871500000000 1.0
C      1  0.5382470000000  0.5649840000000  0.5940110000000 1.0
C      1  0.5607720000000  0.4277650000000  0.5236140000000 1.0
C      1  0.5138670000000  0.5629990000000  0.6095340000000 1.0
C      1  0.4749540000000  0.4297030000000  0.5420720000000 1.0
C      1  0.4174470000000  0.4738990000000  0.4058520000000 1.0
C      1  0.5075140000000  0.4141570000000  0.4196420000000 1.0
C      1  0.4335870000000  0.4205760000000  0.4144510000000 1.0
C      1  0.5265060000000  0.5384240000000  0.4713780000000 1.0
C      1  0.5369480000000  0.6230620000000  0.5471370000000 1.0
C      1  0.5960320000000  0.4762780000000  0.5182030000000 1.0
C      1  0.6138240000000  0.4975280000000  0.5128000000000 1.0
C      1  0.4627090000000  0.3914180000000  0.4379700000000 1.0
C      1  0.5209070000000  0.4417360000000  0.4867380000000 1.0
C      1  0.5963290000000  0.5499940000000  0.5642860000000 1.0
C      1  0.4634210000000  0.5279430000000  0.5673450000000 1.0
C      1  0.4991520000000  0.4044710000000  0.4667820000000 1.0
C      1  0.4062180000000  0.4828320000000  0.5697560000000 1.0
C      1  0.4205360000000  0.5235170000000  0.4595750000000 1.0
C      1  0.5568160000000  0.6271170000000  0.4513920000000 1.0
C      1  0.5668880000000  0.4395800000000  0.4984930000000 1.0
C      1  0.4723180000000  0.5913190000000  0.4531730000000 1.0
C      1  0.4749350000000  0.5249260000000  0.5416280000000 1.0
C      1  0.4883180000000  0.5727520000000  0.5439760000000 1.0
C      1  0.5584730000000  0.5060110000000  0.4146440000000 1.0
C      1  0.4613260000000  0.4619220000000  0.3852600000000 1.0
C      1  0.4763270000000  0.5913440000000  0.5270800000000 1.0
C      1  0.4662260000000  0.5013400000000  0.5276880000000 1.0
C      1  0.4274810000000  0.5172770000000  0.5976780000000 1.0
C      1  0.5392680000000  0.5231820000000  0.5236210000000 1.0
C      1  0.5442740000000  0.4253630000000  0.5447300000000 1.0
C      1  0.5185530000000  0.4090010000000  0.4452700000000 1.0
C      1  0.4130470000000  0.4627230000000  0.4313420000000 1.0
C      1  0.4548250000000  0.4346610000000  0.5218420000000 1.0
C      1  0.4592110000000  0.4084220000000  0.4154330000000 1.0
C      1  0.5527830000000  0.4791270000000  0.4075370000000 1.0
C      1  0.4995190000000  0.4439180000000  0.5451980000000 1.0
C      1  0.5231520000000  0.4369360000000  0.5597740000000 1.0
C      1  0.5520230000000  0.5708200000000  0.4224710000000 1.0
C      1  0.4715700000000  0.6031160000000  0.4769570000000 1.0
C      1  0.4624880000000  0.4765050000000  0.4427570000000 1.0
C      1  0.4546530000000  0.4233400000000  0.4743150000000 1.0
C      1  0.5629810000000  0.6449540000000  0.4718030000000 1.0
C      1  0.6214210000000  0.5367610000000  0.4789800000000 1.0
C      1  0.4301110000000  0.4284860000000  0.4614000000000 1.0
C      1  0.4428220000000  0.4879810000000  0.5402990000000 1.0
C      1  0.4773530000000  0.4663830000000  0.4910350000000 1.0
C      1  0.4710520000000  0.5699010000000  0.4375260000000 1.0
C      1  0.5096500000000  0.4687820000000  0.5962240000000 1.0
C      1  0.4034170000000  0.4462080000000  0.5379660000000 1.0
C      1  0.3997040000000  0.5373080000000  0.4728770000000 1.0
C      1  0.5802940000000  0.6327060000000  0.4897430000000 1.0
C      1  0.3949080000000  0.4914650000000  0.5245850000000 1.0
C      1  0.5858620000000  0.4865720000000  0.4487520000000 1.0
C      1  0.5557140000000  0.4655900000000  0.5811850000000 1.0
C      1  0.6013810000000  0.5840440000000  0.4894600000000 1.0
C      1  0.5463570000000  0.5986370000000  0.5551070000000 1.0
C      1  0.4267740000000  0.4353700000000  0.5287690000000 1.0
C      1  0.4555090000000  0.5180130000000  0.5923610000000 1.0
C      1  0.5473860000000  0.4355770000000  0.4778390000000 1.0
C      1  0.5295190000000  0.4553170000000  0.5811820000000 1.0
C      1  0.5006760000000  0.5799370000000  0.5682690000000 1.0
C      1  0.4640370000000  0.4905990000000  0.4995470000000 1.0
C      1  0.3930970000000  0.4722890000000  0.5461120000000 1.0
C      1  0.5061580000000  0.4180450000000  0.4904430000000 1.0
C      1  0.5598750000000  0.5475460000000  0.5947720000000 1.0
C      1  0.5817630000000  0.5062340000000  0.5798890000000 1.0
C      1  0.4513820000000  0.4322070000000  0.5835420000000 1.0
C      1  0.5195930000000  0.5405890000000  0.5276600000000 1.0
C      1  0.4650680000000  0.4179710000000  0.5656060000000 1.0
C      1  0.5885110000000  0.5567700000000  0.4509840000000 1.0
C      1  0.5351400000000  0.5228820000000  0.4141700000000 1.0
C      1  0.3792620000000  0.4731680000000  0.4642500000000 1.0
C      1  0.5069280000000  0.4892510000000  0.6393630000000 1.0
C      1  0.5805060000000  0.5340470000000  0.5812080000000 1.0
C      1  0.5077460000000  0.4685170000000  0.4861780000000 1.0
C      1  0.5443510000000  0.4189630000000  0.4543970000000 1.0
C      1  0.4653440000000  0.5427730000000  0.4332490000000 1.0
C      1  0.5964130000000  0.5316380000000  0.4383160000000 1.0
C      1  0.5232060000000  0.5126190000000  0.4694020000000 1.0
C      1  0.6215370000000  0.5255260000000  0.4521840000000 1.0
C      1  0.4399590000000  0.4665500000000  0.6133200000000 1.0
C      1  0.5143690000000  0.4864280000000  0.4628070000000 1.0
C      1  0.4051040000000  0.4775140000000  0.4543760000000 1.0
C      1  0.5871510000000  0.4733190000000  0.5446850000000 1.0
C      1  0.5758070000000  0.4810290000000  0.5692140000000 1.0
C      1  0.5171810000000  0.4798760000000  0.5127150000000 1.0
C      1  0.4854940000000  0.5260750000000  0.4227810000000 1.0
C      1  0.4053840000000  0.5043950000000  0.5881080000000 1.0
C      1  0.4221670000000  0.4360310000000  0.4353980000000 1.0
C      1  0.4931910000000  0.5458880000000  0.5350180000000 1.0
C      1  0.6040090000000  0.5597350000000  0.4759610000000 1.0
C      1  0.5803490000000  0.5091970000000  0.4324970000000 1.0
C      1  0.4718600000000  0.6026950000000  0.5035070000000 1.0
C      1  0.4828810000000  0.4237830000000  0.4089750000000 1.0
C      1  0.3800630000000  0.5118980000000  0.5125790000000 1.0
C      1  0.5919600000000  0.5728530000000  0.5510990000000 1.0
C      1  0.3555390000000  0.4658440000000  0.4734940000000 1.0
C      1  0.5706550000000  0.5770820000000  0.4423260000000 1.0
END
