TITL C-599893-4344-288 655.396772210604 125000 -952.041335429849 0 0 157 (C1) n - 1
REM
REM in /home/nfs/bkarasulu/CARBON/AIRSS/Generating-Clusters/TERSOFF/Only-C1/FIRE-HFTN
REM
REM
REM
REM
REM
REM ./C.cell (11c1c37f851c82e70ff6c80c92926a4b)
REM AIRSS Version 0.9.1 bugfix July 2018 build 013d7b7c2542+ Fri, 06 Jul 2018 19:26:36 +0100
REM compiler GCC version 9.2.1 20190827 (Red Hat 9.2.1-1)
REM options -cpp -mtune=generic -march=x86-64 -g -O0 -fpre-include=/usr/include/finclude/math-vector-fortran.h
REM seed 731419627 1041440967 601049458 2145615229 -1892818905 -2110830958 -1955740457 442779265 747766627 -911236262 -1873770443 1918462763 -2072291709 870993451 -1137303122 -832307230 -1225750582 -2072785969 510746947 -303341120 -175800620 -993530408 -1083018818 1530907385 1821249611 -1965122253 -931813873 1428277135 -1956472844 358854197 1573163607 -1474776802 -1545188903
REM
CELL 1.54180   50.00000   50.00000   50.00000   90.00000   90.00000   90.00000
LATT -1
SFAC C  
C      1  0.5677890000000  0.5342170000000  0.4198560000000 1.0
C      1  0.5162120000000  0.4412620000000  0.6180480000000 1.0
C      1  0.4132570000000  0.4617620000000  0.5078660000000 1.0
C      1  0.5566930000000  0.3959590000000  0.5014310000000 1.0
C      1  0.4112710000000  0.5050470000000  0.5819370000000 1.0
C      1  0.5788460000000  0.4747590000000  0.4452460000000 1.0
C      1  0.5196150000000  0.5488040000000  0.4017240000000 1.0
C      1  0.4922190000000  0.5307030000000  0.5747060000000 1.0
C      1  0.4667370000000  0.3861420000000  0.5752780000000 1.0
C      1  0.4715040000000  0.4677170000000  0.4911730000000 1.0
C      1  0.4885870000000  0.4954980000000  0.4577710000000 1.0
C      1  0.5542230000000  0.5396400000000  0.4680830000000 1.0
C      1  0.4049180000000  0.6038890000000  0.4063620000000 1.0
C      1  0.5273470000000  0.5810970000000  0.5556610000000 1.0
C      1  0.6079300000000  0.4674400000000  0.5658200000000 1.0
C      1  0.4658210000000  0.5806440000000  0.4448110000000 1.0
C      1  0.4930500000000  0.5792780000000  0.4348530000000 1.0
C      1  0.5557340000000  0.4284180000000  0.4490940000000 1.0
C      1  0.5618120000000  0.5500340000000  0.5716770000000 1.0
C      1  0.4643520000000  0.5356780000000  0.5633590000000 1.0
C      1  0.4326020000000  0.4854280000000  0.5799280000000 1.0
C      1  0.3573970000000  0.6054810000000  0.4008730000000 1.0
C      1  0.4859000000000  0.6047610000000  0.5604710000000 1.0
C      1  0.5240160000000  0.5117680000000  0.5438280000000 1.0
C      1  0.5282260000000  0.4257180000000  0.4546480000000 1.0
C      1  0.4927080000000  0.5137530000000  0.3839580000000 1.0
C      1  0.4639760000000  0.4468660000000  0.4761590000000 1.0
C      1  0.4495850000000  0.5589390000000  0.5483970000000 1.0
C      1  0.4078160000000  0.5045990000000  0.4861810000000 1.0
C      1  0.5159100000000  0.5201190000000  0.4964980000000 1.0
C      1  0.4636750000000  0.4441130000000  0.4486820000000 1.0
C      1  0.5424430000000  0.4548940000000  0.3771120000000 1.0
C      1  0.4003240000000  0.5247260000000  0.4662150000000 1.0
C      1  0.5606090000000  0.4092100000000  0.5459720000000 1.0
C      1  0.4696380000000  0.4380080000000  0.6306650000000 1.0
C      1  0.4656130000000  0.4091680000000  0.6255640000000 1.0
C      1  0.5556510000000  0.4378020000000  0.3625380000000 1.0
C      1  0.4192730000000  0.5499750000000  0.5544930000000 1.0
C      1  0.5183500000000  0.4340000000000  0.5924440000000 1.0
C      1  0.5704580000000  0.5299470000000  0.5128210000000 1.0
C      1  0.5108090000000  0.5974370000000  0.5730300000000 1.0
C      1  0.4361120000000  0.4300160000000  0.5433250000000 1.0
C      1  0.5601120000000  0.4541760000000  0.5572470000000 1.0
C      1  0.5189270000000  0.5944220000000  0.4788520000000 1.0
C      1  0.5097860000000  0.5021250000000  0.5208650000000 1.0
C      1  0.4591090000000  0.4324480000000  0.5612520000000 1.0
C      1  0.5624650000000  0.5025000000000  0.5180430000000 1.0
C      1  0.4506380000000  0.5199390000000  0.4751500000000 1.0
C      1  0.5619060000000  0.3739570000000  0.4863340000000 1.0
C      1  0.5354310000000  0.5550700000000  0.5633710000000 1.0
C      1  0.4591250000000  0.4980460000000  0.4590430000000 1.0
C      1  0.5168570000000  0.5331220000000  0.5608500000000 1.0
C      1  0.5303580000000  0.4691990000000  0.4857220000000 1.0
C      1  0.6035850000000  0.5183440000000  0.5737330000000 1.0
C      1  0.4470950000000  0.5752280000000  0.4239750000000 1.0
C      1  0.4828460000000  0.4022100000000  0.4487630000000 1.0
C      1  0.5381560000000  0.5014750000000  0.3931390000000 1.0
C      1  0.5627740000000  0.5506840000000  0.4943100000000 1.0
C      1  0.4634880000000  0.4044210000000  0.4956840000000 1.0
C      1  0.5605250000000  0.5071620000000  0.4105720000000 1.0
C      1  0.4425900000000  0.4539650000000  0.4336230000000 1.0
C      1  0.4560780000000  0.5491640000000  0.4153530000000 1.0
C      1  0.3913180000000  0.5510740000000  0.5094490000000 1.0
C      1  0.4316240000000  0.4541100000000  0.5290040000000 1.0
C      1  0.5299770000000  0.4331110000000  0.5190380000000 1.0
C      1  0.5087860000000  0.5464830000000  0.5091590000000 1.0
C      1  0.5404400000000  0.4324110000000  0.5479370000000 1.0
C      1  0.4562380000000  0.4529420000000  0.6087810000000 1.0
C      1  0.5197880000000  0.4570560000000  0.5088830000000 1.0
C      1  0.5439440000000  0.5524110000000  0.4189590000000 1.0
C      1  0.6167030000000  0.5315080000000  0.4791380000000 1.0
C      1  0.5138400000000  0.4335340000000  0.5645110000000 1.0
C      1  0.4544610000000  0.4695420000000  0.5370640000000 1.0
C      1  0.4485910000000  0.4881830000000  0.5565800000000 1.0
C      1  0.5704900000000  0.5959970000000  0.4747030000000 1.0
C      1  0.5745910000000  0.4469530000000  0.4448170000000 1.0
C      1  0.4872300000000  0.5912000000000  0.5344700000000 1.0
C      1  0.5494460000000  0.4990460000000  0.5435100000000 1.0
C      1  0.5362080000000  0.4975010000000  0.6107830000000 1.0
C      1  0.4322630000000  0.4049310000000  0.5316050000000 1.0
C      1  0.6199300000000  0.5509200000000  0.4975010000000 1.0
C      1  0.5785190000000  0.5327650000000  0.4487560000000 1.0
C      1  0.4132940000000  0.5162800000000  0.4404890000000 1.0
C      1  0.4475880000000  0.5308840000000  0.5900520000000 1.0
C      1  0.4354490000000  0.5289490000000  0.4240150000000 1.0
C      1  0.4202960000000  0.4620100000000  0.4501680000000 1.0
C      1  0.5529580000000  0.4804250000000  0.5640260000000 1.0
C      1  0.4801240000000  0.5518660000000  0.5084780000000 1.0
C      1  0.4714230000000  0.5397720000000  0.4812220000000 1.0
C      1  0.6125360000000  0.4933770000000  0.5705960000000 1.0
C      1  0.4880420000000  0.4012130000000  0.4774410000000 1.0
C      1  0.6094900000000  0.5703020000000  0.5130900000000 1.0
C      1  0.5097960000000  0.4461000000000  0.4396940000000 1.0
C      1  0.6027570000000  0.4482240000000  0.4998000000000 1.0
C      1  0.5291310000000  0.4728330000000  0.3942700000000 1.0
C      1  0.4621720000000  0.5089030000000  0.6053740000000 1.0
C      1  0.4003670000000  0.5387700000000  0.5339520000000 1.0
C      1  0.4868710000000  0.4397550000000  0.5538650000000 1.0
C      1  0.5797620000000  0.6053530000000  0.4517330000000 1.0
C      1  0.5880760000000  0.4500480000000  0.5605070000000 1.0
C      1  0.5024860000000  0.4745910000000  0.5226080000000 1.0
C      1  0.4947380000000  0.5197370000000  0.4764290000000 1.0
C      1  0.4097900000000  0.4869650000000  0.4409220000000 1.0
C      1  0.4926150000000  0.5581300000000  0.4137000000000 1.0
C      1  0.4364670000000  0.5143200000000  0.5232170000000 1.0
C      1  0.5078690000000  0.4613170000000  0.4114670000000 1.0
C      1  0.4445520000000  0.4285080000000  0.4869770000000 1.0
C      1  0.3840710000000  0.6423930000000  0.3870200000000 1.0
C      1  0.5586580000000  0.4909980000000  0.4344820000000 1.0
C      1  0.4689920000000  0.3829690000000  0.5475860000000 1.0
C      1  0.4898920000000  0.5157090000000  0.5998610000000 1.0
C      1  0.4603050000000  0.4037770000000  0.5976860000000 1.0
C      1  0.4964160000000  0.4451660000000  0.6358920000000 1.0
C      1  0.4262250000000  0.5905010000000  0.4145910000000 1.0
C      1  0.4843080000000  0.4287420000000  0.4384560000000 1.0
C      1  0.4834420000000  0.5004560000000  0.4070220000000 1.0
C      1  0.5329790000000  0.5461960000000  0.4456460000000 1.0
C      1  0.5120340000000  0.5079430000000  0.6146530000000 1.0
C      1  0.4339820000000  0.5137560000000  0.4952130000000 1.0
C      1  0.4567720000000  0.3926700000000  0.5223000000000 1.0
C      1  0.5194710000000  0.5204930000000  0.4388070000000 1.0
C      1  0.4542000000000  0.5133410000000  0.5454790000000 1.0
C      1  0.3912290000000  0.5470570000000  0.4821360000000 1.0
C      1  0.5171030000000  0.5875110000000  0.5284200000000 1.0
C      1  0.4501730000000  0.4811950000000  0.6030520000000 1.0
C      1  0.5937930000000  0.4257030000000  0.5116860000000 1.0
C      1  0.5509830000000  0.4893520000000  0.4938840000000 1.0
C      1  0.4819910000000  0.4622290000000  0.5366530000000 1.0
C      1  0.4004960000000  0.4888580000000  0.5094450000000 1.0
C      1  0.4949320000000  0.5088490000000  0.4316280000000 1.0
C      1  0.4688220000000  0.5695790000000  0.5282430000000 1.0
C      1  0.5410310000000  0.5132330000000  0.4782620000000 1.0
C      1  0.4537630000000  0.4623620000000  0.4086970000000 1.0
C      1  0.6055030000000  0.4706050000000  0.4849030000000 1.0
C      1  0.5746310000000  0.4066860000000  0.5208130000000 1.0
C      1  0.4196180000000  0.4467050000000  0.4825440000000 1.0
C      1  0.3818780000000  0.6174030000000  0.3979930000000 1.0
C      1  0.4627890000000  0.5651070000000  0.4678340000000 1.0
C      1  0.5971000000000  0.4875730000000  0.4635320000000 1.0
C      1  0.5324330000000  0.4109300000000  0.5009390000000 1.0
C      1  0.5100030000000  0.4707090000000  0.4619990000000 1.0
C      1  0.5193000000000  0.5234040000000  0.3868150000000 1.0
C      1  0.4537400000000  0.4310600000000  0.5884780000000 1.0
C      1  0.4199090000000  0.5328030000000  0.5798560000000 1.0
C      1  0.5374710000000  0.5008470000000  0.4506520000000 1.0
C      1  0.5508080000000  0.4875530000000  0.5909430000000 1.0
C      1  0.5616870000000  0.5805530000000  0.4995000000000 1.0
C      1  0.4804770000000  0.4720840000000  0.4055130000000 1.0
C      1  0.5853300000000  0.5377900000000  0.5745120000000 1.0
C      1  0.5994910000000  0.5168190000000  0.4619350000000 1.0
C      1  0.4661440000000  0.6205700000000  0.5700770000000 1.0
C      1  0.5860890000000  0.5835780000000  0.5174950000000 1.0
C      1  0.5881060000000  0.6126830000000  0.4281510000000 1.0
C      1  0.5323170000000  0.5892170000000  0.5039470000000 1.0
C      1  0.5116060000000  0.5902640000000  0.4531840000000 1.0
C      1  0.4074440000000  0.5100690000000  0.5304470000000 1.0
C      1  0.5161710000000  0.4112660000000  0.4779530000000 1.0
END
