TITL C-599893-4344-1349 0.0110482074785848 125000 -980.077245712193 0 0 161 (C1) n - 1
REM
REM in /home/nfs/bkarasulu/CARBON/AIRSS/Generating-Clusters/TERSOFF/Only-C1/FIRE-HFTN
REM
REM
REM
REM
REM
REM ./C.cell (11c1c37f851c82e70ff6c80c92926a4b)
REM AIRSS Version 0.9.1 bugfix July 2018 build 013d7b7c2542+ Fri, 06 Jul 2018 19:26:36 +0100
REM compiler GCC version 9.2.1 20190827 (Red Hat 9.2.1-1)
REM options -cpp -mtune=generic -march=x86-64 -g -O0 -fpre-include=/usr/include/finclude/math-vector-fortran.h
REM seed 2112863364 1708588741 1984709656 -816483880 -326595297 89262317 2145626998 -736431774 -1614625106 -344559555 -148195205 358476687 1873670148 -1634501874 -435340595 -1525722726 -1742903151 -469233228 -253024793 -270776391 943214050 -1917628579 -1906971198 1642497043 -1537507502 -737360196 1316227034 -1235519882 847901563 -1482227929 -1225576173 562026940 2033669510
REM
CELL 1.54180   50.00000   50.00000   50.00000   90.00000   90.00000   90.00000
LATT -1
SFAC C  
C      1  0.5871500000000  0.4417990000000  0.3859750000000 1.0
C      1  0.5636130000000  0.5238070000000  0.4573250000000 1.0
C      1  0.4858190000000  0.5976880000000  0.5551970000000 1.0
C      1  0.4109650000000  0.4786020000000  0.4776230000000 1.0
C      1  0.5577740000000  0.3999510000000  0.5527510000000 1.0
C      1  0.5054710000000  0.5015900000000  0.6257490000000 1.0
C      1  0.5109830000000  0.6173140000000  0.4777460000000 1.0
C      1  0.5274050000000  0.5772420000000  0.4570840000000 1.0
C      1  0.4495640000000  0.3866940000000  0.4794730000000 1.0
C      1  0.5105870000000  0.4480520000000  0.5791120000000 1.0
C      1  0.4706990000000  0.4786120000000  0.5391140000000 1.0
C      1  0.5471230000000  0.5270030000000  0.3989110000000 1.0
C      1  0.5037670000000  0.5181850000000  0.4974730000000 1.0
C      1  0.5035770000000  0.5808680000000  0.5672290000000 1.0
C      1  0.4674330000000  0.4666540000000  0.4150760000000 1.0
C      1  0.4759920000000  0.5475150000000  0.6149400000000 1.0
C      1  0.5879130000000  0.5426500000000  0.5268340000000 1.0
C      1  0.4062440000000  0.5045920000000  0.4688930000000 1.0
C      1  0.4792100000000  0.5461190000000  0.5267520000000 1.0
C      1  0.5887120000000  0.4872390000000  0.4425700000000 1.0
C      1  0.4584830000000  0.5968310000000  0.4384240000000 1.0
C      1  0.6029530000000  0.4515710000000  0.5109220000000 1.0
C      1  0.5865860000000  0.4225490000000  0.4517530000000 1.0
C      1  0.4727100000000  0.4490770000000  0.5371360000000 1.0
C      1  0.5295100000000  0.4762040000000  0.3768000000000 1.0
C      1  0.5430090000000  0.4808690000000  0.4659230000000 1.0
C      1  0.5438610000000  0.4542090000000  0.4536090000000 1.0
C      1  0.4615380000000  0.5738230000000  0.4212380000000 1.0
C      1  0.5921120000000  0.4298670000000  0.4996520000000 1.0
C      1  0.4793040000000  0.4883000000000  0.5654460000000 1.0
C      1  0.4619510000000  0.4315110000000  0.4953350000000 1.0
C      1  0.6010540000000  0.5849480000000  0.6154810000000 1.0
C      1  0.4603580000000  0.6024260000000  0.4664180000000 1.0
C      1  0.4452070000000  0.5899390000000  0.4892150000000 1.0
C      1  0.5946530000000  0.5380460000000  0.5529730000000 1.0
C      1  0.4321080000000  0.4777820000000  0.6080370000000 1.0
C      1  0.5442880000000  0.4688680000000  0.5269280000000 1.0
C      1  0.4974660000000  0.4712800000000  0.5786400000000 1.0
C      1  0.3882800000000  0.4323450000000  0.5673400000000 1.0
C      1  0.5260680000000  0.5166870000000  0.6164430000000 1.0
C      1  0.4904990000000  0.5438780000000  0.4485400000000 1.0
C      1  0.4892930000000  0.5693280000000  0.4872770000000 1.0
C      1  0.5136780000000  0.3701440000000  0.5236290000000 1.0
C      1  0.4124550000000  0.4721730000000  0.5875950000000 1.0
C      1  0.3816640000000  0.3843070000000  0.5653470000000 1.0
C      1  0.4211080000000  0.5441060000000  0.4457570000000 1.0
C      1  0.5065080000000  0.4099250000000  0.4524970000000 1.0
C      1  0.5586840000000  0.5965590000000  0.5280230000000 1.0
C      1  0.5163730000000  0.3978880000000  0.5274190000000 1.0
C      1  0.4841190000000  0.6174510000000  0.4735690000000 1.0
C      1  0.4814650000000  0.4315860000000  0.5157470000000 1.0
C      1  0.4889960000000  0.4574330000000  0.3722700000000 1.0
C      1  0.4523240000000  0.5529210000000  0.5333110000000 1.0
C      1  0.4452140000000  0.5744890000000  0.5497400000000 1.0
C      1  0.5232790000000  0.5105100000000  0.5463220000000 1.0
C      1  0.3906600000000  0.4074010000000  0.5538450000000 1.0
C      1  0.5210350000000  0.5112480000000  0.4392560000000 1.0
C      1  0.5506290000000  0.5148630000000  0.5077840000000 1.0
C      1  0.4196520000000  0.4108690000000  0.5083860000000 1.0
C      1  0.5630000000000  0.5737930000000  0.5788100000000 1.0
C      1  0.4857870000000  0.4859200000000  0.3665360000000 1.0
C      1  0.4525460000000  0.6030510000000  0.5145580000000 1.0
C      1  0.4872130000000  0.5673210000000  0.4059320000000 1.0
C      1  0.5094190000000  0.4174650000000  0.4263580000000 1.0
C      1  0.5146330000000  0.4517480000000  0.3850260000000 1.0
C      1  0.4229900000000  0.5807110000000  0.5964890000000 1.0
C      1  0.5334620000000  0.5739990000000  0.4280530000000 1.0
C      1  0.4355090000000  0.5431650000000  0.5126140000000 1.0
C      1  0.4608370000000  0.5971090000000  0.5413670000000 1.0
C      1  0.5490520000000  0.5522970000000  0.4147350000000 1.0
C      1  0.3787870000000  0.4934860000000  0.5536690000000 1.0
C      1  0.5402430000000  0.5901070000000  0.5068320000000 1.0
C      1  0.4116070000000  0.4452990000000  0.5775370000000 1.0
C      1  0.6061160000000  0.4660750000000  0.4498150000000 1.0
C      1  0.4811130000000  0.3488500000000  0.4916800000000 1.0
C      1  0.4588620000000  0.5645610000000  0.6262490000000 1.0
C      1  0.3820970000000  0.5232240000000  0.5077780000000 1.0
C      1  0.6725880000000  0.5062560000000  0.4905650000000 1.0
C      1  0.4629310000000  0.5001510000000  0.5211020000000 1.0
C      1  0.5879570000000  0.4551250000000  0.4096980000000 1.0
C      1  0.5494630000000  0.4386130000000  0.4790080000000 1.0
C      1  0.3603610000000  0.4725860000000  0.5570280000000 1.0
C      1  0.4586120000000  0.4355050000000  0.5576320000000 1.0
C      1  0.5391850000000  0.4975930000000  0.5273500000000 1.0
C      1  0.4362780000000  0.5772090000000  0.6194450000000 1.0
C      1  0.5455540000000  0.5263950000000  0.5974380000000 1.0
C      1  0.5857140000000  0.5406480000000  0.4571210000000 1.0
C      1  0.5960620000000  0.5655520000000  0.5142120000000 1.0
C      1  0.4990060000000  0.5396250000000  0.4017550000000 1.0
C      1  0.4841150000000  0.4737010000000  0.4777830000000 1.0
C      1  0.5136170000000  0.4843470000000  0.4309180000000 1.0
C      1  0.5357500000000  0.5245570000000  0.4611460000000 1.0
C      1  0.5560110000000  0.4844490000000  0.3767080000000 1.0
C      1  0.4953940000000  0.5651500000000  0.5139240000000 1.0
C      1  0.5033610000000  0.4145560000000  0.5083140000000 1.0
C      1  0.4603640000000  0.4565790000000  0.4832690000000 1.0
C      1  0.4687130000000  0.5125340000000  0.5764300000000 1.0
C      1  0.4809240000000  0.4899510000000  0.6271880000000 1.0
C      1  0.4007190000000  0.4938950000000  0.5722250000000 1.0
C      1  0.5187280000000  0.4402220000000  0.4114900000000 1.0
C      1  0.5678750000000  0.4955290000000  0.4590350000000 1.0
C      1  0.4463660000000  0.5530480000000  0.4347830000000 1.0
C      1  0.5198600000000  0.4256200000000  0.5681420000000 1.0
C      1  0.5627470000000  0.5882930000000  0.5538020000000 1.0
C      1  0.4556280000000  0.4824910000000  0.6206920000000 1.0
C      1  0.4543450000000  0.5100640000000  0.4539300000000 1.0
C      1  0.5209900000000  0.5734050000000  0.5196980000000 1.0
C      1  0.5025110000000  0.5635750000000  0.4636840000000 1.0
C      1  0.4268290000000  0.5770020000000  0.5703570000000 1.0
C      1  0.5432720000000  0.5535960000000  0.5851500000000 1.0
C      1  0.6004870000000  0.5043530000000  0.5020130000000 1.0
C      1  0.5320340000000  0.5973360000000  0.4790670000000 1.0
C      1  0.4255040000000  0.5141990000000  0.4500290000000 1.0
C      1  0.4850950000000  0.4807590000000  0.4312480000000 1.0
C      1  0.5639870000000  0.4818770000000  0.5719120000000 1.0
C      1  0.4632220000000  0.4981990000000  0.3563210000000 1.0
C      1  0.3952750000000  0.5275940000000  0.4832470000000 1.0
C      1  0.5190390000000  0.4746130000000  0.4849670000000 1.0
C      1  0.6473310000000  0.5122020000000  0.4881500000000 1.0
C      1  0.5299610000000  0.5228700000000  0.4888650000000 1.0
C      1  0.4741170000000  0.4898300000000  0.4557650000000 1.0
C      1  0.4426880000000  0.5199120000000  0.5697930000000 1.0
C      1  0.5824870000000  0.3925480000000  0.5564310000000 1.0
C      1  0.5785820000000  0.5206640000000  0.5112120000000 1.0
C      1  0.6201440000000  0.5175830000000  0.4857150000000 1.0
C      1  0.4365750000000  0.4335590000000  0.5723130000000 1.0
C      1  0.5585150000000  0.4645820000000  0.5514890000000 1.0
C      1  0.4165070000000  0.5169000000000  0.5715170000000 1.0
C      1  0.4103910000000  0.5515430000000  0.4723960000000 1.0
C      1  0.4026690000000  0.4073550000000  0.5284850000000 1.0
C      1  0.5134870000000  0.5331610000000  0.5563490000000 1.0
C      1  0.4416640000000  0.5106800000000  0.3486700000000 1.0
C      1  0.3777870000000  0.5107200000000  0.5311820000000 1.0
C      1  0.4382530000000  0.5137960000000  0.5129580000000 1.0
C      1  0.5348860000000  0.4551990000000  0.5025880000000 1.0
C      1  0.5287010000000  0.4594860000000  0.4299710000000 1.0
C      1  0.5817750000000  0.4847200000000  0.4144280000000 1.0
C      1  0.5108100000000  0.4990540000000  0.3738240000000 1.0
C      1  0.5110590000000  0.5835120000000  0.4116810000000 1.0
C      1  0.4643820000000  0.5363520000000  0.4496160000000 1.0
C      1  0.4431420000000  0.4103460000000  0.4930600000000 1.0
C      1  0.6102670000000  0.5365520000000  0.4673090000000 1.0
C      1  0.4800640000000  0.5296660000000  0.5954980000000 1.0
C      1  0.4461210000000  0.4535480000000  0.4076220000000 1.0
C      1  0.5069300000000  0.4099560000000  0.4797130000000 1.0
C      1  0.5037880000000  0.5304670000000  0.4286180000000 1.0
C      1  0.5975350000000  0.4426050000000  0.4349980000000 1.0
C      1  0.6044390000000  0.4781510000000  0.5108800000000 1.0
C      1  0.4337950000000  0.4648420000000  0.4788970000000 1.0
C      1  0.5188530000000  0.5239790000000  0.3864180000000 1.0
C      1  0.3646340000000  0.4472000000000  0.5644780000000 1.0
C      1  0.5748380000000  0.4254130000000  0.4779140000000 1.0
C      1  0.5186810000000  0.5568760000000  0.5704870000000 1.0
C      1  0.4620500000000  0.3631550000000  0.4796700000000 1.0
C      1  0.5311510000000  0.4079410000000  0.5495180000000 1.0
C      1  0.5825400000000  0.5800510000000  0.5978070000000 1.0
C      1  0.5607880000000  0.5052970000000  0.5851630000000 1.0
C      1  0.5648780000000  0.5020910000000  0.3976980000000 1.0
C      1  0.4835610000000  0.5196980000000  0.5164050000000 1.0
C      1  0.4294640000000  0.5631180000000  0.4912360000000 1.0
C      1  0.5008320000000  0.3514990000000  0.5094980000000 1.0
END
