TITL C-599895-9959-1310 0.879371129187719 125000 -1042.26122754269 0 0 171 (C1) n - 1
REM
REM in /home/nfs/bkarasulu/CARBON/AIRSS/Generating-Clusters/TERSOFF/Only-C1/FIRE-HFTN
REM
REM
REM
REM
REM
REM ./C.cell (11c1c37f851c82e70ff6c80c92926a4b)
REM AIRSS Version 0.9.1 bugfix July 2018 build 013d7b7c2542+ Fri, 06 Jul 2018 19:26:36 +0100
REM compiler GCC version 9.2.1 20190827 (Red Hat 9.2.1-1)
REM options -cpp -mtune=generic -march=x86-64 -g -O0 -fpre-include=/usr/include/finclude/math-vector-fortran.h
REM seed 1552282733 820925284 -1059366402 -1728239094 749578129 405975782 -485873670 -1560092332 1922286683 -1220931617 1378982343 -852641490 -423341161 1971983994 -49693487 -2024193695 1180457132 -1724075180 -2024355328 296181537 -1658188190 1643914184 -1174582344 789188775 2049310370 1992125982 569926829 947845280 -333827411 832246081 983357512 -10378472 2094856225
REM
CELL 1.54180   50.00000   50.00000   50.00000   90.00000   90.00000   90.00000
LATT -1
SFAC C  
C      1  0.4977550000000  0.5747930000000  0.4218730000000 1.0
C      1  0.4844560000000  0.4363460000000  0.4320190000000 1.0
C      1  0.4746740000000  0.5128620000000  0.5155850000000 1.0
C      1  0.5754550000000  0.5549920000000  0.5770560000000 1.0
C      1  0.4854920000000  0.5281660000000  0.3901700000000 1.0
C      1  0.5458020000000  0.4413590000000  0.4750310000000 1.0
C      1  0.5686390000000  0.4910620000000  0.5085250000000 1.0
C      1  0.4826110000000  0.4275090000000  0.5637030000000 1.0
C      1  0.4021740000000  0.4391940000000  0.5556970000000 1.0
C      1  0.4892020000000  0.5992790000000  0.5588150000000 1.0
C      1  0.4425960000000  0.4814780000000  0.5717540000000 1.0
C      1  0.3915660000000  0.4475810000000  0.5064360000000 1.0
C      1  0.3993850000000  0.4315890000000  0.5282140000000 1.0
C      1  0.6219910000000  0.5054610000000  0.5057270000000 1.0
C      1  0.4342360000000  0.4314870000000  0.4594780000000 1.0
C      1  0.5298680000000  0.4713870000000  0.6062630000000 1.0
C      1  0.6144800000000  0.5241800000000  0.5563980000000 1.0
C      1  0.5391070000000  0.4510360000000  0.4218580000000 1.0
C      1  0.5060040000000  0.5150740000000  0.4711140000000 1.0
C      1  0.5535350000000  0.4016590000000  0.5030200000000 1.0
C      1  0.4618990000000  0.5162730000000  0.4398990000000 1.0
C      1  0.4812960000000  0.3813320000000  0.4909370000000 1.0
C      1  0.5032300000000  0.5258850000000  0.4435610000000 1.0
C      1  0.4884420000000  0.4783480000000  0.4527570000000 1.0
C      1  0.5570500000000  0.5359280000000  0.5889400000000 1.0
C      1  0.5150400000000  0.4377940000000  0.4339930000000 1.0
C      1  0.4385660000000  0.5407750000000  0.5030190000000 1.0
C      1  0.5507880000000  0.4543960000000  0.5932630000000 1.0
C      1  0.4710500000000  0.5755040000000  0.4332980000000 1.0
C      1  0.5843060000000  0.5531180000000  0.4546060000000 1.0
C      1  0.4492740000000  0.6168420000000  0.4169020000000 1.0
C      1  0.4275180000000  0.5166430000000  0.5978770000000 1.0
C      1  0.4278480000000  0.6057330000000  0.4297330000000 1.0
C      1  0.5637770000000  0.4267550000000  0.4911500000000 1.0
C      1  0.5370290000000  0.4982020000000  0.4328070000000 1.0
C      1  0.5788880000000  0.5250410000000  0.4414870000000 1.0
C      1  0.4937260000000  0.4496300000000  0.5500390000000 1.0
C      1  0.4224110000000  0.3923920000000  0.5429910000000 1.0
C      1  0.5882400000000  0.4176270000000  0.5287920000000 1.0
C      1  0.5674720000000  0.3973170000000  0.5290250000000 1.0
C      1  0.5718010000000  0.5858940000000  0.5121950000000 1.0
C      1  0.5158840000000  0.4211000000000  0.5198270000000 1.0
C      1  0.5597990000000  0.5216590000000  0.3848210000000 1.0
C      1  0.4542100000000  0.4397180000000  0.4366130000000 1.0
C      1  0.3867550000000  0.5410180000000  0.5017240000000 1.0
C      1  0.5059780000000  0.4575000000000  0.6140390000000 1.0
C      1  0.5769160000000  0.4654400000000  0.5213050000000 1.0
C      1  0.4656230000000  0.4185620000000  0.5196880000000 1.0
C      1  0.5293250000000  0.5714830000000  0.5686500000000 1.0
C      1  0.4145240000000  0.3996470000000  0.4934790000000 1.0
C      1  0.3911290000000  0.5442180000000  0.5299070000000 1.0
C      1  0.4657220000000  0.4567270000000  0.4914360000000 1.0
C      1  0.3971050000000  0.3836480000000  0.4796970000000 1.0
C      1  0.5981760000000  0.5024380000000  0.5665500000000 1.0
C      1  0.5740530000000  0.5074000000000  0.5523710000000 1.0
C      1  0.5648560000000  0.4601170000000  0.4285870000000 1.0
C      1  0.4144250000000  0.4735960000000  0.4359630000000 1.0
C      1  0.5119180000000  0.5509540000000  0.4299390000000 1.0
C      1  0.4521520000000  0.5628640000000  0.4153610000000 1.0
C      1  0.4187060000000  0.5223850000000  0.5694620000000 1.0
C      1  0.5720310000000  0.5650340000000  0.3630030000000 1.0
C      1  0.5808950000000  0.5063640000000  0.3971880000000 1.0
C      1  0.4236740000000  0.4676960000000  0.5891460000000 1.0
C      1  0.5795640000000  0.5786940000000  0.3421280000000 1.0
C      1  0.4534290000000  0.6037560000000  0.4988380000000 1.0
C      1  0.4749210000000  0.6156580000000  0.4074550000000 1.0
C      1  0.4098670000000  0.4535520000000  0.4595420000000 1.0
C      1  0.4826840000000  0.4936730000000  0.5339710000000 1.0
C      1  0.5096920000000  0.5601530000000  0.4837400000000 1.0
C      1  0.5303610000000  0.5008580000000  0.6087530000000 1.0
C      1  0.5640070000000  0.5505620000000  0.3852830000000 1.0
C      1  0.5695150000000  0.5134170000000  0.5257990000000 1.0
C      1  0.4647790000000  0.4924030000000  0.5855670000000 1.0
C      1  0.4614260000000  0.5391100000000  0.4004750000000 1.0
C      1  0.4187000000000  0.4415130000000  0.5793110000000 1.0
C      1  0.5119320000000  0.4638410000000  0.4967030000000 1.0
C      1  0.4975150000000  0.5996760000000  0.4072960000000 1.0
C      1  0.5034490000000  0.5852880000000  0.4993570000000 1.0
C      1  0.4636950000000  0.4904780000000  0.4500480000000 1.0
C      1  0.5133090000000  0.3615380000000  0.5270940000000 1.0
C      1  0.6142050000000  0.4908200000000  0.4839280000000 1.0
C      1  0.5329050000000  0.5167300000000  0.4804750000000 1.0
C      1  0.4543440000000  0.6130810000000  0.5252020000000 1.0
C      1  0.5365970000000  0.4667670000000  0.4844120000000 1.0
C      1  0.4673470000000  0.4097020000000  0.5465420000000 1.0
C      1  0.4381710000000  0.4104530000000  0.4804690000000 1.0
C      1  0.4576620000000  0.5160210000000  0.6013800000000 1.0
C      1  0.4421120000000  0.4693710000000  0.4865170000000 1.0
C      1  0.4286490000000  0.4993330000000  0.5543800000000 1.0
C      1  0.4288440000000  0.5964530000000  0.4864440000000 1.0
C      1  0.5128190000000  0.5865960000000  0.5503530000000 1.0
C      1  0.4166330000000  0.5814170000000  0.4414020000000 1.0
C      1  0.5252070000000  0.5416000000000  0.5795990000000 1.0
C      1  0.5588100000000  0.5622420000000  0.4109530000000 1.0
C      1  0.3820780000000  0.4890890000000  0.4842640000000 1.0
C      1  0.5515990000000  0.3880550000000  0.5512640000000 1.0
C      1  0.4914390000000  0.4911260000000  0.5778420000000 1.0
C      1  0.4196250000000  0.5275640000000  0.4228550000000 1.0
C      1  0.6112000000000  0.5612290000000  0.4654170000000 1.0
C      1  0.4425330000000  0.4025830000000  0.5598110000000 1.0
C      1  0.5628170000000  0.5546630000000  0.4776370000000 1.0
C      1  0.4656140000000  0.4468950000000  0.5169000000000 1.0
C      1  0.5005370000000  0.5034730000000  0.5543100000000 1.0
C      1  0.5375100000000  0.4587220000000  0.5431280000000 1.0
C      1  0.5151500000000  0.4478670000000  0.5291700000000 1.0
C      1  0.5780790000000  0.5713290000000  0.4301800000000 1.0
C      1  0.4834460000000  0.4434290000000  0.6091810000000 1.0
C      1  0.5078840000000  0.5000730000000  0.4277450000000 1.0
C      1  0.4824720000000  0.5536600000000  0.4706380000000 1.0
C      1  0.5173430000000  0.5264390000000  0.5539360000000 1.0
C      1  0.5356910000000  0.5459230000000  0.4788710000000 1.0
C      1  0.4901500000000  0.4643690000000  0.4787970000000 1.0
C      1  0.5568280000000  0.5379800000000  0.5216590000000 1.0
C      1  0.4472790000000  0.5195360000000  0.4157310000000 1.0
C      1  0.5483140000000  0.4924560000000  0.4882200000000 1.0
C      1  0.4020660000000  0.5394740000000  0.5542440000000 1.0
C      1  0.4617620000000  0.5501370000000  0.5444180000000 1.0
C      1  0.6241570000000  0.5187400000000  0.5296280000000 1.0
C      1  0.4231530000000  0.5101680000000  0.4663770000000 1.0
C      1  0.4683060000000  0.4310730000000  0.5889570000000 1.0
C      1  0.4869440000000  0.5116600000000  0.4908950000000 1.0
C      1  0.5065970000000  0.3782990000000  0.5049260000000 1.0
C      1  0.5269250000000  0.4277040000000  0.4583370000000 1.0
C      1  0.5202210000000  0.5915380000000  0.5224030000000 1.0
C      1  0.5563140000000  0.5138430000000  0.6062590000000 1.0
C      1  0.6340330000000  0.5481880000000  0.4579760000000 1.0
C      1  0.5868650000000  0.4776510000000  0.4382030000000 1.0
C      1  0.5952660000000  0.4787620000000  0.5812480000000 1.0
C      1  0.5581640000000  0.5771620000000  0.5703860000000 1.0
C      1  0.4580270000000  0.5348220000000  0.5222450000000 1.0
C      1  0.4404170000000  0.4223200000000  0.5819830000000 1.0
C      1  0.5250990000000  0.3999660000000  0.5045730000000 1.0
C      1  0.4114520000000  0.5805720000000  0.4701020000000 1.0
C      1  0.3939030000000  0.5621390000000  0.4834440000000 1.0
C      1  0.5825060000000  0.4396140000000  0.5099400000000 1.0
C      1  0.4615090000000  0.5359690000000  0.4612780000000 1.0
C      1  0.4239980000000  0.5578550000000  0.4260260000000 1.0
C      1  0.5324500000000  0.3674620000000  0.5456800000000 1.0
C      1  0.4778810000000  0.5956620000000  0.4860240000000 1.0
C      1  0.3797280000000  0.5149210000000  0.4920630000000 1.0
C      1  0.4673200000000  0.6105410000000  0.5483900000000 1.0
C      1  0.5682900000000  0.5584580000000  0.5057520000000 1.0
C      1  0.5068120000000  0.5101330000000  0.3979420000000 1.0
C      1  0.5505120000000  0.5230940000000  0.4357530000000 1.0
C      1  0.4745800000000  0.3623290000000  0.4721990000000 1.0
C      1  0.5960280000000  0.5958080000000  0.5016720000000 1.0
C      1  0.5475100000000  0.5989510000000  0.5181880000000 1.0
C      1  0.6017210000000  0.4780120000000  0.4631370000000 1.0
C      1  0.3931250000000  0.4625500000000  0.4823660000000 1.0
C      1  0.5302770000000  0.5371230000000  0.5312100000000 1.0
C      1  0.5106440000000  0.5242360000000  0.6029180000000 1.0
C      1  0.4375090000000  0.4602660000000  0.4220190000000 1.0
C      1  0.5888030000000  0.5033460000000  0.4246880000000 1.0
C      1  0.5717490000000  0.4637800000000  0.5754830000000 1.0
C      1  0.4627830000000  0.4033450000000  0.4955030000000 1.0
C      1  0.4201660000000  0.4925380000000  0.5295390000000 1.0
C      1  0.4749060000000  0.4660200000000  0.5360740000000 1.0
C      1  0.6015210000000  0.5484230000000  0.5666820000000 1.0
C      1  0.6113370000000  0.5836260000000  0.4829550000000 1.0
C      1  0.4101680000000  0.4058390000000  0.5212270000000 1.0
C      1  0.4369600000000  0.5332640000000  0.4762070000000 1.0
C      1  0.4107120000000  0.5047400000000  0.4398240000000 1.0
C      1  0.5646130000000  0.4623910000000  0.5475090000000 1.0
C      1  0.4417200000000  0.4886620000000  0.4680140000000 1.0
C      1  0.5468720000000  0.4260320000000  0.5902510000000 1.0
C      1  0.4731790000000  0.5803100000000  0.4615300000000 1.0
C      1  0.5493410000000  0.4040860000000  0.5747040000000 1.0
C      1  0.4154300000000  0.4901880000000  0.6062350000000 1.0
C      1  0.5392730000000  0.5473740000000  0.4249590000000 1.0
C      1  0.5325750000000  0.5119160000000  0.3843050000000 1.0
C      1  0.4825450000000  0.5282130000000  0.6094110000000 1.0
END
