TITL C-599890-3321-500 2.10144609669653e-05 125000 -642.986542695601 0 0 106 (C1) n - 1
REM
REM in /home/nfs/bkarasulu/CARBON/AIRSS/Generating-Clusters/TERSOFF/Only-C1/FIRE-HFTN
REM
REM
REM
REM
REM
REM ./C.cell (11c1c37f851c82e70ff6c80c92926a4b)
REM AIRSS Version 0.9.1 bugfix July 2018 build 013d7b7c2542+ Fri, 06 Jul 2018 19:26:36 +0100
REM compiler GCC version 9.2.1 20190827 (Red Hat 9.2.1-1)
REM options -cpp -mtune=generic -march=x86-64 -g -O0 -fpre-include=/usr/include/finclude/math-vector-fortran.h
REM seed 1585390235 479240270 -669969316 -36131153 -642950043 -149133047 695065939 -1238215769 906331903 -1932447826 81200252 1790928429 1633162486 575112498 1030725747 213912696 1944286069 -54518720 2105436130 -201536828 -2021375814 -1538243312 362696024 -2110803691 810643084 520868290 -441165028 -1811037879 -1879553385 1574248779 457435021 1203398972 -1682941429
REM
CELL 1.54180   50.00000   50.00000   50.00000   90.00000   90.00000   90.00000
LATT -1
SFAC C  
C      1  0.4827040000000  0.5195770000000  0.4675120000000 1.0
C      1  0.4127530000000  0.5267900000000  0.4583890000000 1.0
C      1  0.4742050000000  0.3983970000000  0.5322530000000 1.0
C      1  0.4561900000000  0.4254040000000  0.4963010000000 1.0
C      1  0.5492460000000  0.5065460000000  0.5457410000000 1.0
C      1  0.4877880000000  0.5153680000000  0.4148610000000 1.0
C      1  0.5784300000000  0.5451140000000  0.5076740000000 1.0
C      1  0.5102030000000  0.5189170000000  0.5209450000000 1.0
C      1  0.4255480000000  0.4808750000000  0.4695170000000 1.0
C      1  0.5445760000000  0.4651910000000  0.5157030000000 1.0
C      1  0.4843640000000  0.5179660000000  0.6029370000000 1.0
C      1  0.4943360000000  0.4574230000000  0.4940880000000 1.0
C      1  0.5243550000000  0.4295220000000  0.5486040000000 1.0
C      1  0.5038690000000  0.4247860000000  0.4574510000000 1.0
C      1  0.4812300000000  0.4076800000000  0.5566470000000 1.0
C      1  0.4172660000000  0.5000680000000  0.5454190000000 1.0
C      1  0.4877570000000  0.5005600000000  0.4861180000000 1.0
C      1  0.4793510000000  0.4076740000000  0.5052560000000 1.0
C      1  0.5050700000000  0.5363780000000  0.4041760000000 1.0
C      1  0.6000540000000  0.5070550000000  0.5375820000000 1.0
C      1  0.5485180000000  0.4823680000000  0.4687300000000 1.0
C      1  0.5362830000000  0.4040800000000  0.5093790000000 1.0
C      1  0.4968980000000  0.4838190000000  0.5717300000000 1.0
C      1  0.4426310000000  0.5017820000000  0.4286890000000 1.0
C      1  0.4551450000000  0.5867920000000  0.5563160000000 1.0
C      1  0.4771270000000  0.5424670000000  0.5916230000000 1.0
C      1  0.5342440000000  0.5527080000000  0.4781820000000 1.0
C      1  0.6034770000000  0.5056110000000  0.4913160000000 1.0
C      1  0.4990110000000  0.5693640000000  0.5078260000000 1.0
C      1  0.4686680000000  0.5700930000000  0.3995230000000 1.0
C      1  0.5055820000000  0.5605320000000  0.4805330000000 1.0
C      1  0.4713930000000  0.5660310000000  0.5494790000000 1.0
C      1  0.3781050000000  0.4774140000000  0.5226430000000 1.0
C      1  0.4446770000000  0.4387730000000  0.5194220000000 1.0
C      1  0.5153290000000  0.5460160000000  0.5577270000000 1.0
C      1  0.5492650000000  0.4621100000000  0.4228330000000 1.0
C      1  0.4519570000000  0.4325290000000  0.4445760000000 1.0
C      1  0.5322710000000  0.5333710000000  0.4112110000000 1.0
C      1  0.4621740000000  0.5231150000000  0.4258090000000 1.0
C      1  0.4816670000000  0.6111950000000  0.4381900000000 1.0
C      1  0.5385560000000  0.5295250000000  0.4622190000000 1.0
C      1  0.4820440000000  0.5259710000000  0.5268410000000 1.0
C      1  0.5565430000000  0.5566120000000  0.4961250000000 1.0
C      1  0.4677070000000  0.4991480000000  0.5307840000000 1.0
C      1  0.4440330000000  0.5914080000000  0.4667050000000 1.0
C      1  0.4992820000000  0.4615150000000  0.5228450000000 1.0
C      1  0.4845160000000  0.5472840000000  0.4623980000000 1.0
C      1  0.4232110000000  0.5018930000000  0.4498950000000 1.0
C      1  0.5631320000000  0.4124460000000  0.5016310000000 1.0
C      1  0.5408270000000  0.5610620000000  0.5985560000000 1.0
C      1  0.5494660000000  0.4901340000000  0.5878280000000 1.0
C      1  0.4584590000000  0.5718710000000  0.4259620000000 1.0
C      1  0.4196190000000  0.4527540000000  0.4727410000000 1.0
C      1  0.5139230000000  0.5049720000000  0.4965790000000 1.0
C      1  0.5015890000000  0.4237320000000  0.5644590000000 1.0
C      1  0.5246140000000  0.4515580000000  0.5301830000000 1.0
C      1  0.4753800000000  0.4944280000000  0.5888970000000 1.0
C      1  0.4404820000000  0.4587830000000  0.5367740000000 1.0
C      1  0.5822290000000  0.4554940000000  0.4887290000000 1.0
C      1  0.3921200000000  0.4944730000000  0.5377920000000 1.0
C      1  0.5267900000000  0.5237600000000  0.5429190000000 1.0
C      1  0.4965620000000  0.5635430000000  0.3981150000000 1.0
C      1  0.5040400000000  0.6058770000000  0.4236680000000 1.0
C      1  0.5916560000000  0.5125950000000  0.5644100000000 1.0
C      1  0.5299620000000  0.5384650000000  0.6090300000000 1.0
C      1  0.5344920000000  0.5053460000000  0.4765460000000 1.0
C      1  0.5592170000000  0.4842480000000  0.5302230000000 1.0
C      1  0.5238720000000  0.4503420000000  0.4249460000000 1.0
C      1  0.4744170000000  0.5557950000000  0.5212460000000 1.0
C      1  0.5970680000000  0.5240900000000  0.5129370000000 1.0
C      1  0.4649720000000  0.5485810000000  0.4402640000000 1.0
C      1  0.5442690000000  0.5313010000000  0.4350140000000 1.0
C      1  0.4418490000000  0.4871110000000  0.5414530000000 1.0
C      1  0.4889220000000  0.4798600000000  0.5432750000000 1.0
C      1  0.4403490000000  0.4898260000000  0.4912010000000 1.0
C      1  0.5422450000000  0.5769230000000  0.5762270000000 1.0
C      1  0.5132310000000  0.5155790000000  0.6057490000000 1.0
C      1  0.4501050000000  0.5607020000000  0.5047890000000 1.0
C      1  0.4881880000000  0.5516510000000  0.5675290000000 1.0
C      1  0.5044600000000  0.4675340000000  0.4399290000000 1.0
C      1  0.5212430000000  0.4925610000000  0.5886540000000 1.0
C      1  0.5184360000000  0.4237910000000  0.4341230000000 1.0
C      1  0.4655000000000  0.4925570000000  0.5014970000000 1.0
C      1  0.5829440000000  0.4327780000000  0.5074960000000 1.0
C      1  0.5995080000000  0.4352070000000  0.5561550000000 1.0
C      1  0.5980200000000  0.4783930000000  0.4976290000000 1.0
C      1  0.5120920000000  0.5860290000000  0.4068370000000 1.0
C      1  0.4586820000000  0.5951160000000  0.4426450000000 1.0
C      1  0.5364410000000  0.4063340000000  0.5380340000000 1.0
C      1  0.5543820000000  0.4634390000000  0.4885380000000 1.0
C      1  0.4424520000000  0.4340120000000  0.4712810000000 1.0
C      1  0.3950210000000  0.4471590000000  0.4851850000000 1.0
C      1  0.5284800000000  0.5714100000000  0.5517720000000 1.0
C      1  0.5184930000000  0.5808910000000  0.5265600000000 1.0
C      1  0.5085120000000  0.4041710000000  0.4988010000000 1.0
C      1  0.5585900000000  0.4777880000000  0.4427240000000 1.0
C      1  0.5916470000000  0.4466650000000  0.5329820000000 1.0
C      1  0.5900570000000  0.4786180000000  0.5283390000000 1.0
C      1  0.4174790000000  0.5501810000000  0.4706380000000 1.0
C      1  0.4979690000000  0.4523560000000  0.4658690000000 1.0
C      1  0.4354930000000  0.5688290000000  0.4820350000000 1.0
C      1  0.4513910000000  0.4501950000000  0.4241200000000 1.0
C      1  0.4472880000000  0.4759920000000  0.4175480000000 1.0
C      1  0.3793920000000  0.4584280000000  0.5038330000000 1.0
C      1  0.4976530000000  0.4911300000000  0.4260070000000 1.0
C      1  0.5647210000000  0.5063190000000  0.5703700000000 1.0
END
