TITL C-599890-3321-822 14.393934674352 125000 -751.030513458838 0 0 126 (C1) n - 1
REM
REM in /home/nfs/bkarasulu/CARBON/AIRSS/Generating-Clusters/TERSOFF/Only-C1/FIRE-HFTN
REM
REM
REM
REM
REM
REM ./C.cell (11c1c37f851c82e70ff6c80c92926a4b)
REM AIRSS Version 0.9.1 bugfix July 2018 build 013d7b7c2542+ Fri, 06 Jul 2018 19:26:36 +0100
REM compiler GCC version 9.2.1 20190827 (Red Hat 9.2.1-1)
REM options -cpp -mtune=generic -march=x86-64 -g -O0 -fpre-include=/usr/include/finclude/math-vector-fortran.h
REM seed 1750076596 -1832135354 1748091244 1325072548 -280910006 -1624845849 1321061379 -1429169803 -1143813893 -432244567 1776132145 -937651 406277978 -880716944 -557604538 1216105001 1626415944 -1717416476 -231247802 1901483747 -587049501 113946334 -198590776 -900415045 1104116917 616480794 -586911391 -2105914413 136140379 483786336 -859542075 -811706448 1723311868
REM
CELL 1.54180   50.00000   50.00000   50.00000   90.00000   90.00000   90.00000
LATT -1
SFAC C  
C      1  0.3685940000000  0.4678580000000  0.4147360000000 1.0
C      1  0.5455820000000  0.4357350000000  0.4577370000000 1.0
C      1  0.4062940000000  0.4981220000000  0.4140220000000 1.0
C      1  0.4477460000000  0.5648850000000  0.5668640000000 1.0
C      1  0.4810270000000  0.3460430000000  0.5051500000000 1.0
C      1  0.4233770000000  0.4253970000000  0.4734060000000 1.0
C      1  0.4776560000000  0.4858090000000  0.5910770000000 1.0
C      1  0.4834500000000  0.5267890000000  0.5118650000000 1.0
C      1  0.4598510000000  0.5490030000000  0.4245890000000 1.0
C      1  0.5121750000000  0.5327310000000  0.6102040000000 1.0
C      1  0.3938910000000  0.4743290000000  0.4227140000000 1.0
C      1  0.5235770000000  0.6202060000000  0.6273100000000 1.0
C      1  0.5099580000000  0.5794280000000  0.5267950000000 1.0
C      1  0.5695370000000  0.5484060000000  0.5723390000000 1.0
C      1  0.5508810000000  0.5013410000000  0.5193400000000 1.0
C      1  0.4912500000000  0.4570950000000  0.4952830000000 1.0
C      1  0.4374690000000  0.5327870000000  0.4333250000000 1.0
C      1  0.4473010000000  0.4682500000000  0.4679380000000 1.0
C      1  0.5563530000000  0.6780320000000  0.4149910000000 1.0
C      1  0.4318140000000  0.4467250000000  0.5438990000000 1.0
C      1  0.5142430000000  0.4079210000000  0.5690810000000 1.0
C      1  0.5481720000000  0.4552040000000  0.4990820000000 1.0
C      1  0.4455170000000  0.4715690000000  0.5472020000000 1.0
C      1  0.4928170000000  0.6212690000000  0.3662670000000 1.0
C      1  0.5540260000000  0.4705250000000  0.5244710000000 1.0
C      1  0.4812890000000  0.5254590000000  0.4828280000000 1.0
C      1  0.5280050000000  0.5136170000000  0.5330610000000 1.0
C      1  0.4310780000000  0.4962720000000  0.5462260000000 1.0
C      1  0.4963320000000  0.5810480000000  0.4294510000000 1.0
C      1  0.5222950000000  0.6413380000000  0.3989820000000 1.0
C      1  0.5312370000000  0.4593070000000  0.5434040000000 1.0
C      1  0.5594870000000  0.5661070000000  0.5932670000000 1.0
C      1  0.4270940000000  0.4494220000000  0.4594760000000 1.0
C      1  0.5079020000000  0.6583070000000  0.4718010000000 1.0
C      1  0.5203400000000  0.4190120000000  0.5924880000000 1.0
C      1  0.5817720000000  0.4635790000000  0.5366120000000 1.0
C      1  0.5417900000000  0.4907320000000  0.6091090000000 1.0
C      1  0.4426020000000  0.5369190000000  0.5707860000000 1.0
C      1  0.5886060000000  0.4794240000000  0.5590700000000 1.0
C      1  0.4395950000000  0.5747250000000  0.5414100000000 1.0
C      1  0.5089490000000  0.5353070000000  0.4180770000000 1.0
C      1  0.4546480000000  0.4949450000000  0.4161950000000 1.0
C      1  0.5737960000000  0.4127940000000  0.4909600000000 1.0
C      1  0.6090190000000  0.4564470000000  0.4941580000000 1.0
C      1  0.5982700000000  0.4632000000000  0.4467070000000 1.0
C      1  0.5331500000000  0.5062530000000  0.5610430000000 1.0
C      1  0.5805690000000  0.5442110000000  0.5249200000000 1.0
C      1  0.4468040000000  0.5596350000000  0.5198650000000 1.0
C      1  0.5231020000000  0.4240490000000  0.4735320000000 1.0
C      1  0.5009540000000  0.5885180000000  0.4560600000000 1.0
C      1  0.5247550000000  0.5128780000000  0.4261790000000 1.0
C      1  0.4029680000000  0.4942280000000  0.5445810000000 1.0
C      1  0.5418400000000  0.4954060000000  0.4109720000000 1.0
C      1  0.5016500000000  0.3900760000000  0.5261350000000 1.0
C      1  0.5076500000000  0.6840950000000  0.4679920000000 1.0
C      1  0.5850690000000  0.4784760000000  0.5874330000000 1.0
C      1  0.4884930000000  0.4421280000000  0.4223410000000 1.0
C      1  0.4603180000000  0.5025350000000  0.6026310000000 1.0
C      1  0.5394040000000  0.6599560000000  0.4068900000000 1.0
C      1  0.5290810000000  0.5979630000000  0.6148970000000 1.0
C      1  0.5998490000000  0.5518790000000  0.5671160000000 1.0
C      1  0.5297920000000  0.4692230000000  0.5946340000000 1.0
C      1  0.4904410000000  0.4783370000000  0.5669790000000 1.0
C      1  0.5164290000000  0.4718490000000  0.4500980000000 1.0
C      1  0.5153950000000  0.5002280000000  0.4507280000000 1.0
C      1  0.5818440000000  0.5065120000000  0.5521260000000 1.0
C      1  0.5095490000000  0.5930210000000  0.5039800000000 1.0
C      1  0.6027580000000  0.4549690000000  0.5201580000000 1.0
C      1  0.4753500000000  0.4587680000000  0.4707530000000 1.0
C      1  0.4456920000000  0.4225730000000  0.5380180000000 1.0
C      1  0.4446370000000  0.5208200000000  0.5467820000000 1.0
C      1  0.5209310000000  0.4775900000000  0.5667750000000 1.0
C      1  0.4921390000000  0.4563190000000  0.4474260000000 1.0
C      1  0.4581250000000  0.3039520000000  0.4824930000000 1.0
C      1  0.5248260000000  0.5108420000000  0.6191430000000 1.0
C      1  0.5102380000000  0.4352840000000  0.4052800000000 1.0
C      1  0.3978720000000  0.4286750000000  0.5143510000000 1.0
C      1  0.4738130000000  0.4729530000000  0.5444760000000 1.0
C      1  0.5600860000000  0.5566440000000  0.5431200000000 1.0
C      1  0.5111120000000  0.4113730000000  0.5414620000000 1.0
C      1  0.4812370000000  0.6216370000000  0.3424400000000 1.0
C      1  0.4903320000000  0.5101050000000  0.4598730000000 1.0
C      1  0.5049760000000  0.6207760000000  0.3914030000000 1.0
C      1  0.6083890000000  0.4714130000000  0.4241340000000 1.0
C      1  0.4184560000000  0.4158600000000  0.4991980000000 1.0
C      1  0.4727210000000  0.5019240000000  0.4373570000000 1.0
C      1  0.5076300000000  0.6321000000000  0.4756800000000 1.0
C      1  0.4984570000000  0.5610230000000  0.5708110000000 1.0
C      1  0.4468430000000  0.2832730000000  0.4713230000000 1.0
C      1  0.5095120000000  0.4013860000000  0.4674040000000 1.0
C      1  0.5616230000000  0.5180920000000  0.5732650000000 1.0
C      1  0.5187450000000  0.4418370000000  0.4988760000000 1.0
C      1  0.4380820000000  0.5241170000000  0.4610500000000 1.0
C      1  0.5327360000000  0.4481620000000  0.3970730000000 1.0
C      1  0.6051090000000  0.5513580000000  0.5395040000000 1.0
C      1  0.5664190000000  0.4987220000000  0.5970390000000 1.0
C      1  0.4998370000000  0.5997280000000  0.4089990000000 1.0
C      1  0.5664830000000  0.4400610000000  0.4791870000000 1.0
C      1  0.5181380000000  0.4361690000000  0.5298410000000 1.0
C      1  0.5916010000000  0.4542690000000  0.4721420000000 1.0
C      1  0.5340830000000  0.5742570000000  0.6013380000000 1.0
C      1  0.4643140000000  0.4465310000000  0.4088250000000 1.0
C      1  0.5064850000000  0.5314510000000  0.5285010000000 1.0
C      1  0.4698450000000  0.6220030000000  0.3189940000000 1.0
C      1  0.5399940000000  0.4584690000000  0.4416680000000 1.0
C      1  0.4039510000000  0.4471130000000  0.5349970000000 1.0
C      1  0.5062300000000  0.5567420000000  0.5431850000000 1.0
C      1  0.4454630000000  0.5236110000000  0.5952910000000 1.0
C      1  0.4920340000000  0.3675640000000  0.5160040000000 1.0
C      1  0.5060530000000  0.6043290000000  0.4786230000000 1.0
C      1  0.4399850000000  0.4076580000000  0.5159270000000 1.0
C      1  0.4308860000000  0.5110720000000  0.4160450000000 1.0
C      1  0.4695950000000  0.3249770000000  0.4938480000000 1.0
C      1  0.3899660000000  0.4709620000000  0.5401100000000 1.0
C      1  0.4731990000000  0.5729540000000  0.5754140000000 1.0
C      1  0.4567740000000  0.5388320000000  0.4759890000000 1.0
C      1  0.5450740000000  0.4668700000000  0.4144730000000 1.0
C      1  0.4880380000000  0.5544880000000  0.4229350000000 1.0
C      1  0.4577110000000  0.5333980000000  0.5245140000000 1.0
C      1  0.4377280000000  0.4958260000000  0.4685410000000 1.0
C      1  0.4545660000000  0.4706360000000  0.4027160000000 1.0
C      1  0.4085230000000  0.4574720000000  0.4399100000000 1.0
C      1  0.5267190000000  0.4427550000000  0.6027710000000 1.0
C      1  0.5755130000000  0.5159510000000  0.5250420000000 1.0
C      1  0.4830070000000  0.4705690000000  0.5183120000000 1.0
C      1  0.5135840000000  0.5558610000000  0.5943040000000 1.0
END
