TITL C-599890-3321-1210 18124.9467757695 125000 -960.676734099845 0 0 159 (C1) n - 1
REM
REM in /home/nfs/bkarasulu/CARBON/AIRSS/Generating-Clusters/TERSOFF/Only-C1/FIRE-HFTN
REM
REM
REM
REM
REM
REM ./C.cell (11c1c37f851c82e70ff6c80c92926a4b)
REM AIRSS Version 0.9.1 bugfix July 2018 build 013d7b7c2542+ Fri, 06 Jul 2018 19:26:36 +0100
REM compiler GCC version 9.2.1 20190827 (Red Hat 9.2.1-1)
REM options -cpp -mtune=generic -march=x86-64 -g -O0 -fpre-include=/usr/include/finclude/math-vector-fortran.h
REM seed 1508978892 -1787516697 2038165939 -1548574166 -1095513863 -1713587371 -850221516 1822362778 -1196798799 -1058673346 -199056621 -1888339436 -1345946570 1446565972 -379309821 2052425291 -1481014594 -1797687171 -1387724427 530348252 -1551641592 -1159886621 1421107084 -790854328 739195497 1066574003 -2114448927 -2138939588 -1901390347 618151668 -1642280297 1425548998 756845640
REM
CELL 1.54180   50.00000   50.00000   50.00000   90.00000   90.00000   90.00000
LATT -1
SFAC C  
C      1  0.4853300000000  0.4099970000000  0.4575560000000 1.0
C      1  0.5249170000000  0.3654990000000  0.5390440000000 1.0
C      1  0.4148260000000  0.5164430000000  0.5353090000000 1.0
C      1  0.5492880000000  0.6106130000000  0.4650540000000 1.0
C      1  0.5083630000000  0.4237300000000  0.4686570000000 1.0
C      1  0.5058450000000  0.5068410000000  0.5586970000000 1.0
C      1  0.5846760000000  0.3988540000000  0.5116960000000 1.0
C      1  0.4590210000000  0.4785940000000  0.5760930000000 1.0
C      1  0.4996910000000  0.5149830000000  0.3741800000000 1.0
C      1  0.5265480000000  0.6023060000000  0.4492780000000 1.0
C      1  0.4382820000000  0.5387380000000  0.4473850000000 1.0
C      1  0.4487710000000  0.5352190000000  0.5091930000000 1.0
C      1  0.5159400000000  0.4830210000000  0.4674240000000 1.0
C      1  0.5583180000000  0.5216360000000  0.4653340000000 1.0
C      1  0.5288070000000  0.4928160000000  0.4423640000000 1.0
C      1  0.4141390000000  0.4888060000000  0.5257990000000 1.0
C      1  0.4810730000000  0.5733060000000  0.4499630000000 1.0
C      1  0.4560150000000  0.5972590000000  0.4822400000000 1.0
C      1  0.5090750000000  0.5356010000000  0.4650200000000 1.0
C      1  0.4178810000000  0.4456660000000  0.4664950000000 1.0
C      1  0.5254870000000  0.5506440000000  0.4828400000000 1.0
C      1  0.3824190000000  0.5485600000000  0.4813080000000 1.0
C      1  0.4738730000000  0.5338170000000  0.4180610000000 1.0
C      1  0.4258850000000  0.4785170000000  0.5021700000000 1.0
C      1  0.4639550000000  0.4797230000000  0.4731440000000 1.0
C      1  0.5489900000000  0.4659370000000  0.5165340000000 1.0
C      1  0.4340720000000  0.4463960000000  0.5499410000000 1.0
C      1  0.5427650000000  0.4900650000000  0.5306820000000 1.0
C      1  0.4293090000000  0.5494800000000  0.4709330000000 1.0
C      1  0.3877040000000  0.5261700000000  0.5251260000000 1.0
C      1  0.4505520000000  0.5476520000000  0.4051530000000 1.0
C      1  0.4947190000000  0.4188790000000  0.6043100000000 1.0
C      1  0.5803060000000  0.5110870000000  0.5551420000000 1.0
C      1  0.4539650000000  0.4776120000000  0.5000300000000 1.0
C      1  0.5086440000000  0.4352660000000  0.5469790000000 1.0
C      1  0.5688700000000  0.4594960000000  0.4314050000000 1.0
C      1  0.5688620000000  0.5762060000000  0.5133730000000 1.0
C      1  0.5203480000000  0.4067960000000  0.6045890000000 1.0
C      1  0.5837860000000  0.4668920000000  0.5550840000000 1.0
C      1  0.4039190000000  0.5634390000000  0.4363920000000 1.0
C      1  0.5698960000000  0.5037110000000  0.4830400000000 1.0
C      1  0.4411670000000  0.5328730000000  0.5385980000000 1.0
C      1  0.5108100000000  0.5546060000000  0.5570100000000 1.0
C      1  0.4757820000000  0.5986870000000  0.5314180000000 1.0
C      1  0.6275820000000  0.4826640000000  0.5137390000000 1.0
C      1  0.5456190000000  0.5114510000000  0.5912840000000 1.0
C      1  0.5884800000000  0.5560500000000  0.4545970000000 1.0
C      1  0.4902770000000  0.3895550000000  0.4382300000000 1.0
C      1  0.4683070000000  0.5035900000000  0.6265620000000 1.0
C      1  0.4737640000000  0.5672800000000  0.5806860000000 1.0
C      1  0.4897260000000  0.4692850000000  0.4610260000000 1.0
C      1  0.5314800000000  0.5537240000000  0.5763060000000 1.0
C      1  0.4076380000000  0.4411840000000  0.5494350000000 1.0
C      1  0.6066640000000  0.5324780000000  0.4561970000000 1.0
C      1  0.4633100000000  0.5251350000000  0.5568710000000 1.0
C      1  0.5996910000000  0.4904090000000  0.5549500000000 1.0
C      1  0.5635420000000  0.4258510000000  0.5447530000000 1.0
C      1  0.4673870000000  0.5859690000000  0.5066210000000 1.0
C      1  0.3710210000000  0.4980340000000  0.4874370000000 1.0
C      1  0.5468710000000  0.3801940000000  0.5370470000000 1.0
C      1  0.5818600000000  0.4658110000000  0.4568560000000 1.0
C      1  0.5091180000000  0.4996130000000  0.4239300000000 1.0
C      1  0.5234260000000  0.5819300000000  0.4280750000000 1.0
C      1  0.4968780000000  0.4752680000000  0.4105800000000 1.0
C      1  0.5197060000000  0.4688530000000  0.5860840000000 1.0
C      1  0.4492100000000  0.4963540000000  0.4023900000000 1.0
C      1  0.3726590000000  0.5018970000000  0.5158110000000 1.0
C      1  0.3853770000000  0.4547070000000  0.5418200000000 1.0
C      1  0.3885060000000  0.5511450000000  0.5107370000000 1.0
C      1  0.5423520000000  0.4179090000000  0.5906460000000 1.0
C      1  0.5673110000000  0.5546700000000  0.4243280000000 1.0
C      1  0.5085760000000  0.5212910000000  0.5168310000000 1.0
C      1  0.5742830000000  0.5633560000000  0.4803640000000 1.0
C      1  0.4414860000000  0.4351320000000  0.4532080000000 1.0
C      1  0.5031120000000  0.6104880000000  0.4676880000000 1.0
C      1  0.4300300000000  0.5978900000000  0.4693210000000 1.0
C      1  0.4783120000000  0.4920020000000  0.3899920000000 1.0
C      1  0.5986000000000  0.4193510000000  0.5009410000000 1.0
C      1  0.4538070000000  0.4549410000000  0.4362720000000 1.0
C      1  0.4757590000000  0.3464110000000  0.5349440000000 1.0
C      1  0.5771800000000  0.5132730000000  0.5077830000000 1.0
C      1  0.5129300000000  0.5521120000000  0.5102710000000 1.0
C      1  0.4114040000000  0.5877690000000  0.4515310000000 1.0
C      1  0.5689460000000  0.5068150000000  0.4184610000000 1.0
C      1  0.5078330000000  0.4313180000000  0.4962970000000 1.0
C      1  0.3863370000000  0.4797830000000  0.5294270000000 1.0
C      1  0.5029030000000  0.6102160000000  0.5226100000000 1.0
C      1  0.4954080000000  0.5769240000000  0.4258720000000 1.0
C      1  0.4841710000000  0.5624700000000  0.5049330000000 1.0
C      1  0.4721790000000  0.5383580000000  0.4922240000000 1.0
C      1  0.5053530000000  0.4453880000000  0.5208270000000 1.0
C      1  0.5262120000000  0.5940710000000  0.5307690000000 1.0
C      1  0.5388380000000  0.5604070000000  0.4156710000000 1.0
C      1  0.4275290000000  0.5512660000000  0.4235300000000 1.0
C      1  0.5650270000000  0.4005900000000  0.5319500000000 1.0
C      1  0.5192440000000  0.5672510000000  0.5340760000000 1.0
C      1  0.4782430000000  0.5972750000000  0.4643030000000 1.0
C      1  0.5778660000000  0.5321030000000  0.4102020000000 1.0
C      1  0.5051800000000  0.5088370000000  0.4754710000000 1.0
C      1  0.6123700000000  0.4676110000000  0.4951100000000 1.0
C      1  0.3921150000000  0.4909890000000  0.4691710000000 1.0
C      1  0.5587130000000  0.5518850000000  0.5655930000000 1.0
C      1  0.4890000000000  0.5145470000000  0.4973730000000 1.0
C      1  0.4919570000000  0.5321420000000  0.5565590000000 1.0
C      1  0.3908750000000  0.5404690000000  0.4530770000000 1.0
C      1  0.5233750000000  0.5333860000000  0.5961530000000 1.0
C      1  0.4871230000000  0.3950810000000  0.4115910000000 1.0
C      1  0.5575260000000  0.4333170000000  0.5726710000000 1.0
C      1  0.5698530000000  0.5626550000000  0.5400080000000 1.0
C      1  0.5640190000000  0.4768290000000  0.4760700000000 1.0
C      1  0.5121830000000  0.6187280000000  0.4946700000000 1.0
C      1  0.5417390000000  0.4468000000000  0.4290740000000 1.0
C      1  0.5515840000000  0.5089630000000  0.4412190000000 1.0
C      1  0.4578090000000  0.4146270000000  0.4649480000000 1.0
C      1  0.5143310000000  0.4964770000000  0.5327560000000 1.0
C      1  0.5736920000000  0.4513730000000  0.5292940000000 1.0
C      1  0.5671570000000  0.5254920000000  0.5752190000000 1.0
C      1  0.6074730000000  0.4770990000000  0.4672600000000 1.0
C      1  0.4637810000000  0.4624090000000  0.6000530000000 1.0
C      1  0.5165250000000  0.5365780000000  0.3973790000000 1.0
C      1  0.5651050000000  0.4619150000000  0.5773350000000 1.0
C      1  0.4889820000000  0.5415180000000  0.5990890000000 1.0
C      1  0.4510870000000  0.3390870000000  0.5307870000000 1.0
C      1  0.5642370000000  0.5086230000000  0.5318450000000 1.0
C      1  0.4306680000000  0.5535700000000  0.4975190000000 1.0
C      1  0.4455790000000  0.4807930000000  0.4490660000000 1.0
C      1  0.4333560000000  0.5638340000000  0.5425090000000 1.0
C      1  0.5452280000000  0.4816040000000  0.5879190000000 1.0
C      1  0.4299070000000  0.4973260000000  0.4318240000000 1.0
C      1  0.4632650000000  0.4770900000000  0.6244430000000 1.0
C      1  0.4136880000000  0.5656170000000  0.5178280000000 1.0
C      1  0.4468880000000  0.3985910000000  0.4844410000000 1.0
C      1  0.5225980000000  0.4567170000000  0.4085210000000 1.0
C      1  0.5016170000000  0.5264750000000  0.4179160000000 1.0
C      1  0.5422790000000  0.6150980000000  0.4924570000000 1.0
C      1  0.4962700000000  0.4728460000000  0.5236650000000 1.0
C      1  0.6228000000000  0.4909360000000  0.5390020000000 1.0
C      1  0.6128640000000  0.5055500000000  0.4597780000000 1.0
C      1  0.5099170000000  0.4499120000000  0.5696130000000 1.0
C      1  0.4543780000000  0.4663640000000  0.5502300000000 1.0
C      1  0.4809970000000  0.5457930000000  0.4631120000000 1.0
C      1  0.4746910000000  0.4364180000000  0.6010190000000 1.0
C      1  0.4677270000000  0.4741590000000  0.5251370000000 1.0
C      1  0.4980380000000  0.3646830000000  0.4466910000000 1.0
C      1  0.4101230000000  0.4703010000000  0.4792140000000 1.0
C      1  0.5746910000000  0.4799350000000  0.4118810000000 1.0
C      1  0.5957740000000  0.4468050000000  0.5077350000000 1.0
C      1  0.5239260000000  0.3835520000000  0.6186700000000 1.0
C      1  0.5518900000000  0.5464550000000  0.4773790000000 1.0
C      1  0.5411520000000  0.4679440000000  0.4886620000000 1.0
C      1  0.4820990000000  0.4603310000000  0.4332290000000 1.0
C      1  0.4017060000000  0.5102130000000  0.4484290000000 1.0
C      1  0.4714180000000  0.5194630000000  0.6035970000000 1.0
C      1  0.4599960000000  0.5075150000000  0.5793380000000 1.0
C      1  0.4643800000000  0.5310380000000  0.4447180000000 1.0
C      1  0.5501210000000  0.5982370000000  0.5141500000000 1.0
C      1  0.5007180000000  0.3547320000000  0.5381770000000 1.0
C      1  0.5296010000000  0.4313700000000  0.4504210000000 1.0
C      1  0.4596350000000  0.5795990000000  0.5545920000000 1.0
END
