TITL C-599896-8500-15 56636.6171538979 125000 -1175.59968433036 0 0 190 (C1) n - 1
REM
REM in /home/nfs/bkarasulu/CARBON/AIRSS/Generating-Clusters/TERSOFF/Only-C1/FIRE-HFTN
REM
REM
REM
REM
REM
REM ./C.cell (11c1c37f851c82e70ff6c80c92926a4b)
REM AIRSS Version 0.9.1 bugfix July 2018 build 013d7b7c2542+ Fri, 06 Jul 2018 19:26:36 +0100
REM compiler GCC version 9.2.1 20190827 (Red Hat 9.2.1-1)
REM options -cpp -mtune=generic -march=x86-64 -g -O0 -fpre-include=/usr/include/finclude/math-vector-fortran.h
REM seed -1424976916 878057358 352776108 1394676738 76866459 146648924 1040954460 -615854423 -1726364463 1574357270 -111328764 2021796881 -930328379 819557686 -289955866 431786899 -1573504829 1419793501 2080465869 450343989 1932375405 -274490714 -356210563 -1233049028 1800945288 -1051765292 -1037487307 1515196831 41107561 584747043 -938612802 2052514706 -209472786
REM
CELL 1.54180   50.00000   50.00000   50.00000   90.00000   90.00000   90.00000
LATT -1
SFAC C  
C      1  0.5549350000000  0.5027330000000  0.5946290000000 1.0
C      1  0.4443360000000  0.4892300000000  0.5584720000000 1.0
C      1  0.4058650000000  0.5050090000000  0.4045840000000 1.0
C      1  0.5225790000000  0.4851000000000  0.4974600000000 1.0
C      1  0.4721300000000  0.5186900000000  0.5901340000000 1.0
C      1  0.4529690000000  0.4039190000000  0.5148310000000 1.0
C      1  0.5255390000000  0.5345420000000  0.5367520000000 1.0
C      1  0.4304660000000  0.5366370000000  0.5439580000000 1.0
C      1  0.6034520000000  0.5078410000000  0.5964110000000 1.0
C      1  0.5153050000000  0.5464310000000  0.5130040000000 1.0
C      1  0.6115790000000  0.4848060000000  0.4083180000000 1.0
C      1  0.4596350000000  0.6091970000000  0.5168150000000 1.0
C      1  0.4062640000000  0.4611050000000  0.4664500000000 1.0
C      1  0.3641260000000  0.4845360000000  0.5255310000000 1.0
C      1  0.5442970000000  0.4543880000000  0.5920270000000 1.0
C      1  0.3362220000000  0.5285970000000  0.4501100000000 1.0
C      1  0.5722760000000  0.5559030000000  0.5666340000000 1.0
C      1  0.5210980000000  0.5442630000000  0.6115190000000 1.0
C      1  0.5037800000000  0.4945000000000  0.5400470000000 1.0
C      1  0.4714160000000  0.6040380000000  0.4223140000000 1.0
C      1  0.4815720000000  0.5696000000000  0.4623530000000 1.0
C      1  0.4666300000000  0.4133290000000  0.4709520000000 1.0
C      1  0.4210060000000  0.4283680000000  0.4321630000000 1.0
C      1  0.4129220000000  0.4339240000000  0.4588670000000 1.0
C      1  0.5796090000000  0.5026180000000  0.6079480000000 1.0
C      1  0.3940180000000  0.4772040000000  0.4469060000000 1.0
C      1  0.5936510000000  0.4661030000000  0.4165680000000 1.0
C      1  0.5060060000000  0.5193550000000  0.4580050000000 1.0
C      1  0.4801400000000  0.4468340000000  0.3868630000000 1.0
C      1  0.5318300000000  0.5476800000000  0.3953870000000 1.0
C      1  0.5080690000000  0.4508330000000  0.3938930000000 1.0
C      1  0.4939610000000  0.6278230000000  0.4800820000000 1.0
C      1  0.5559410000000  0.4184600000000  0.4598590000000 1.0
C      1  0.5707790000000  0.4275710000000  0.4370500000000 1.0
C      1  0.5641950000000  0.4371100000000  0.5883430000000 1.0
C      1  0.4552680000000  0.6009980000000  0.5456620000000 1.0
C      1  0.6249440000000  0.5204330000000  0.5254900000000 1.0
C      1  0.4883190000000  0.5548080000000  0.5172330000000 1.0
C      1  0.5497320000000  0.4850200000000  0.4895690000000 1.0
C      1  0.4855800000000  0.6199980000000  0.5067960000000 1.0
C      1  0.4272370000000  0.5942670000000  0.4743700000000 1.0
C      1  0.5572560000000  0.4580460000000  0.4858600000000 1.0
C      1  0.6038510000000  0.4645230000000  0.4688270000000 1.0
C      1  0.5790010000000  0.4923380000000  0.5248570000000 1.0
C      1  0.5279110000000  0.5572590000000  0.4905000000000 1.0
C      1  0.4395500000000  0.6402090000000  0.4284250000000 1.0
C      1  0.5561060000000  0.5073710000000  0.5674180000000 1.0
C      1  0.3960380000000  0.4922460000000  0.5611270000000 1.0
C      1  0.4532070000000  0.4803910000000  0.4390810000000 1.0
C      1  0.5077780000000  0.5309540000000  0.3916850000000 1.0
C      1  0.4762150000000  0.6075700000000  0.3955260000000 1.0
C      1  0.4233170000000  0.5247400000000  0.5942350000000 1.0
C      1  0.4589490000000  0.5635330000000  0.5965020000000 1.0
C      1  0.4699200000000  0.5360910000000  0.5077690000000 1.0
C      1  0.5307060000000  0.5800140000000  0.5789990000000 1.0
C      1  0.5460060000000  0.5581950000000  0.5903530000000 1.0
C      1  0.4789500000000  0.4567090000000  0.5231760000000 1.0
C      1  0.4209310000000  0.5502480000000  0.4083370000000 1.0
C      1  0.5071950000000  0.6161670000000  0.5245160000000 1.0
C      1  0.3899270000000  0.4796050000000  0.5356620000000 1.0
C      1  0.5226030000000  0.5755510000000  0.4454310000000 1.0
C      1  0.4171640000000  0.5682120000000  0.4283390000000 1.0
C      1  0.5102260000000  0.4611190000000  0.4885320000000 1.0
C      1  0.5291780000000  0.5897700000000  0.4220440000000 1.0
C      1  0.4395600000000  0.4248350000000  0.4131370000000 1.0
C      1  0.4498130000000  0.5432250000000  0.4895400000000 1.0
C      1  0.5003050000000  0.5028580000000  0.3874150000000 1.0
C      1  0.5212220000000  0.6279730000000  0.4702420000000 1.0
C      1  0.4682160000000  0.4697180000000  0.3744170000000 1.0
C      1  0.4544880000000  0.4473160000000  0.5834430000000 1.0
C      1  0.5778680000000  0.4017810000000  0.5019340000000 1.0
C      1  0.4612500000000  0.6260740000000  0.4372030000000 1.0
C      1  0.4298720000000  0.4474730000000  0.5264340000000 1.0
C      1  0.4052510000000  0.5086800000000  0.5811220000000 1.0
C      1  0.5593750000000  0.5006030000000  0.5423890000000 1.0
C      1  0.5137850000000  0.4791760000000  0.3982700000000 1.0
C      1  0.5432030000000  0.4426570000000  0.4671210000000 1.0
C      1  0.4709030000000  0.4412440000000  0.4732080000000 1.0
C      1  0.5136960000000  0.5920960000000  0.5366220000000 1.0
C      1  0.5926310000000  0.4547780000000  0.4428930000000 1.0
C      1  0.6020510000000  0.4805620000000  0.5382480000000 1.0
C      1  0.4701230000000  0.5535590000000  0.4206910000000 1.0
C      1  0.4998760000000  0.4588680000000  0.5717500000000 1.0
C      1  0.5612280000000  0.5719590000000  0.5433830000000 1.0
C      1  0.4447540000000  0.4050940000000  0.4871710000000 1.0
C      1  0.4479660000000  0.5804620000000  0.5658620000000 1.0
C      1  0.3944000000000  0.4905250000000  0.4238220000000 1.0
C      1  0.4721370000000  0.4974240000000  0.3798770000000 1.0
C      1  0.4460140000000  0.4793870000000  0.4934620000000 1.0
C      1  0.4821510000000  0.3965340000000  0.5178760000000 1.0
C      1  0.4167970000000  0.4730120000000  0.4904030000000 1.0
C      1  0.5418150000000  0.6236250000000  0.4527530000000 1.0
C      1  0.4308370000000  0.5611420000000  0.5544130000000 1.0
C      1  0.5184190000000  0.4540050000000  0.4621400000000 1.0
C      1  0.6093380000000  0.5173580000000  0.5707090000000 1.0
C      1  0.5229730000000  0.4064460000000  0.5410640000000 1.0
C      1  0.4615410000000  0.5485940000000  0.4649130000000 1.0
C      1  0.5267080000000  0.4313800000000  0.4070430000000 1.0
C      1  0.5525530000000  0.4459840000000  0.5312890000000 1.0
C      1  0.4497330000000  0.5362900000000  0.5970890000000 1.0
C      1  0.5497590000000  0.4956900000000  0.4257260000000 1.0
C      1  0.4903060000000  0.3978740000000  0.4682690000000 1.0
C      1  0.5552000000000  0.5423990000000  0.4123290000000 1.0
C      1  0.4838330000000  0.4123840000000  0.5664080000000 1.0
C      1  0.5709640000000  0.5671180000000  0.5166540000000 1.0
C      1  0.3200260000000  0.5129470000000  0.4656950000000 1.0
C      1  0.5984300000000  0.4274270000000  0.5506310000000 1.0
C      1  0.5556580000000  0.4350330000000  0.4118770000000 1.0
C      1  0.5395660000000  0.3897950000000  0.5254150000000 1.0
C      1  0.4229710000000  0.5410860000000  0.4931700000000 1.0
C      1  0.5329270000000  0.4325680000000  0.5432500000000 1.0
C      1  0.5415340000000  0.3983510000000  0.5941290000000 1.0
C      1  0.4934840000000  0.4510900000000  0.6268880000000 1.0
C      1  0.6011490000000  0.5394180000000  0.4904280000000 1.0
C      1  0.5372590000000  0.5859340000000  0.5514920000000 1.0
C      1  0.6027060000000  0.4919770000000  0.4832480000000 1.0
C      1  0.2940250000000  0.5082330000000  0.4585400000000 1.0
C      1  0.4620050000000  0.4291090000000  0.3991110000000 1.0
C      1  0.4814260000000  0.4746230000000  0.6197960000000 1.0
C      1  0.5251120000000  0.4824970000000  0.4237440000000 1.0
C      1  0.5508710000000  0.6068780000000  0.4312820000000 1.0
C      1  0.4491200000000  0.5142850000000  0.3840390000000 1.0
C      1  0.4193130000000  0.5827060000000  0.4511490000000 1.0
C      1  0.4845610000000  0.5461340000000  0.3982520000000 1.0
C      1  0.4810340000000  0.4378410000000  0.5780990000000 1.0
C      1  0.5555050000000  0.3987540000000  0.4815170000000 1.0
C      1  0.5072830000000  0.4278770000000  0.6229500000000 1.0
C      1  0.4742700000000  0.6329670000000  0.4608880000000 1.0
C      1  0.6094740000000  0.4418440000000  0.4863160000000 1.0
C      1  0.4357890000000  0.4198580000000  0.5326810000000 1.0
C      1  0.4870450000000  0.4490880000000  0.4965300000000 1.0
C      1  0.4918990000000  0.5726150000000  0.5385740000000 1.0
C      1  0.5035420000000  0.3982040000000  0.4433730000000 1.0
C      1  0.4524660000000  0.4755820000000  0.5815750000000 1.0
C      1  0.5265730000000  0.5761900000000  0.3973430000000 1.0
C      1  0.4251780000000  0.5242160000000  0.3968590000000 1.0
C      1  0.5682970000000  0.3939850000000  0.5291480000000 1.0
C      1  0.4338980000000  0.4283430000000  0.5808520000000 1.0
C      1  0.5088230000000  0.4748560000000  0.4457830000000 1.0
C      1  0.5092100000000  0.5179390000000  0.5540780000000 1.0
C      1  0.5740390000000  0.5903620000000  0.4259680000000 1.0
C      1  0.4587170000000  0.5344780000000  0.4397660000000 1.0
C      1  0.5682400000000  0.4456630000000  0.5082600000000 1.0
C      1  0.4933640000000  0.5653520000000  0.6068820000000 1.0
C      1  0.5224900000000  0.4086650000000  0.6109960000000 1.0
C      1  0.4612000000000  0.4580380000000  0.4521790000000 1.0
C      1  0.5987890000000  0.5587610000000  0.5130440000000 1.0
C      1  0.4400050000000  0.6024320000000  0.4968270000000 1.0
C      1  0.4195640000000  0.4139480000000  0.4779510000000 1.0
C      1  0.5735320000000  0.5641080000000  0.4176110000000 1.0
C      1  0.4904080000000  0.5605600000000  0.5637810000000 1.0
C      1  0.5738820000000  0.5005850000000  0.4951910000000 1.0
C      1  0.5982180000000  0.5430780000000  0.5613650000000 1.0
C      1  0.5782750000000  0.4066860000000  0.5538840000000 1.0
C      1  0.5181450000000  0.5172920000000  0.6199300000000 1.0
C      1  0.5208150000000  0.4705910000000  0.5895290000000 1.0
C      1  0.4900200000000  0.5314930000000  0.5699680000000 1.0
C      1  0.6187570000000  0.5154210000000  0.4962530000000 1.0
C      1  0.4756860000000  0.5788840000000  0.4343380000000 1.0
C      1  0.5630890000000  0.4101040000000  0.5788000000000 1.0
C      1  0.4073170000000  0.4644820000000  0.5180510000000 1.0
C      1  0.4387430000000  0.5112810000000  0.5444660000000 1.0
C      1  0.3445760000000  0.4921380000000  0.5093340000000 1.0
C      1  0.5095860000000  0.5120770000000  0.6454120000000 1.0
C      1  0.4694250000000  0.4909330000000  0.5992110000000 1.0
C      1  0.5143390000000  0.4102790000000  0.4219420000000 1.0
C      1  0.5560100000000  0.5537040000000  0.4943050000000 1.0
C      1  0.6047550000000  0.4534170000000  0.5460420000000 1.0
C      1  0.4694710000000  0.4939100000000  0.4817800000000 1.0
C      1  0.5101320000000  0.5682970000000  0.4695700000000 1.0
C      1  0.5283070000000  0.4963660000000  0.6029960000000 1.0
C      1  0.5302160000000  0.5284940000000  0.4511330000000 1.0
C      1  0.6188000000000  0.5019430000000  0.5473800000000 1.0
C      1  0.5015900000000  0.3917210000000  0.4941810000000 1.0
C      1  0.5309740000000  0.3897740000000  0.4971950000000 1.0
C      1  0.4287830000000  0.4130010000000  0.5591470000000 1.0
C      1  0.5728230000000  0.5307030000000  0.4872320000000 1.0
C      1  0.5029360000000  0.5772630000000  0.5838720000000 1.0
C      1  0.4521570000000  0.4637720000000  0.5183920000000 1.0
C      1  0.5731590000000  0.4547100000000  0.3997820000000 1.0
C      1  0.5049120000000  0.5001050000000  0.5125530000000 1.0
C      1  0.5897720000000  0.4280220000000  0.5011450000000 1.0
C      1  0.6120700000000  0.5463730000000  0.5350970000000 1.0
C      1  0.4520540000000  0.5073010000000  0.4366080000000 1.0
C      1  0.4914770000000  0.4946520000000  0.4597910000000 1.0
C      1  0.4952550000000  0.4019820000000  0.5430680000000 1.0
C      1  0.5501220000000  0.5228440000000  0.4321120000000 1.0
C      1  0.4810560000000  0.5106760000000  0.5023230000000 1.0
C      1  0.4947190000000  0.4685760000000  0.5451780000000 1.0
C      1  0.3302220000000  0.5016220000000  0.4891820000000 1.0
END
