TITL C-599891-72-504 0.0267951955560401 125000 -1037.11922422659 0 0 170 (C1) n - 1
REM
REM in /home/nfs/bkarasulu/CARBON/AIRSS/Generating-Clusters/TERSOFF/Only-C1/FIRE-HFTN
REM
REM
REM
REM
REM
REM ./C.cell (11c1c37f851c82e70ff6c80c92926a4b)
REM AIRSS Version 0.9.1 bugfix July 2018 build 013d7b7c2542+ Fri, 06 Jul 2018 19:26:36 +0100
REM compiler GCC version 9.2.1 20190827 (Red Hat 9.2.1-1)
REM options -cpp -mtune=generic -march=x86-64 -g -O0 -fpre-include=/usr/include/finclude/math-vector-fortran.h
REM seed 1071708476 -498274629 975916618 1786136368 -1997481031 1794048832 -1524498714 168835668 2135311539 -391523668 -1798102310 -1501158669 913707591 -54151603 1433275245 592762250 517840298 1645326399 826058288 81850822 -1654416012 2005364404 -1388430899 -1359053689 -1635592064 1538376929 1987125266 -746849763 -796664021 -1327611039 338687987 646095941 -341627572
REM
CELL 1.54180   50.00000   50.00000   50.00000   90.00000   90.00000   90.00000
LATT -1
SFAC C  
C      1  0.5518920000000  0.4453990000000  0.4195330000000 1.0
C      1  0.4612740000000  0.4893300000000  0.3756720000000 1.0
C      1  0.4637340000000  0.4244200000000  0.4265540000000 1.0
C      1  0.5710530000000  0.4656410000000  0.4730130000000 1.0
C      1  0.5278490000000  0.4090030000000  0.5067870000000 1.0
C      1  0.4547300000000  0.5264160000000  0.4599290000000 1.0
C      1  0.6299450000000  0.5757410000000  0.5049530000000 1.0
C      1  0.4727820000000  0.4780130000000  0.4219690000000 1.0
C      1  0.4648440000000  0.5501890000000  0.5005900000000 1.0
C      1  0.5209220000000  0.5134030000000  0.3500450000000 1.0
C      1  0.4741130000000  0.5042530000000  0.5585800000000 1.0
C      1  0.4634250000000  0.6064090000000  0.4288130000000 1.0
C      1  0.4382940000000  0.5013080000000  0.3869620000000 1.0
C      1  0.4774620000000  0.5619770000000  0.6174470000000 1.0
C      1  0.5356410000000  0.5109660000000  0.3722140000000 1.0
C      1  0.4393690000000  0.4120580000000  0.4658830000000 1.0
C      1  0.4712730000000  0.6039810000000  0.4565070000000 1.0
C      1  0.5339540000000  0.4311560000000  0.4372670000000 1.0
C      1  0.5296330000000  0.3913690000000  0.5314090000000 1.0
C      1  0.4630200000000  0.5557790000000  0.5329940000000 1.0
C      1  0.5580810000000  0.4939030000000  0.6012570000000 1.0
C      1  0.4558910000000  0.4923670000000  0.5159390000000 1.0
C      1  0.5080510000000  0.4521780000000  0.6388950000000 1.0
C      1  0.4683550000000  0.5874380000000  0.6241910000000 1.0
C      1  0.5034390000000  0.4241470000000  0.5067210000000 1.0
C      1  0.4693100000000  0.5136330000000  0.6381230000000 1.0
C      1  0.4285310000000  0.4041190000000  0.4922820000000 1.0
C      1  0.5780580000000  0.4546230000000  0.4288710000000 1.0
C      1  0.4797760000000  0.3880210000000  0.5155390000000 1.0
C      1  0.6315760000000  0.5017970000000  0.5105560000000 1.0
C      1  0.4007690000000  0.5644140000000  0.4971080000000 1.0
C      1  0.5196850000000  0.4173280000000  0.5907710000000 1.0
C      1  0.4941000000000  0.5546660000000  0.4427420000000 1.0
C      1  0.4692370000000  0.5393950000000  0.6317840000000 1.0
C      1  0.5207930000000  0.4763180000000  0.5318610000000 1.0
C      1  0.3964310000000  0.5175780000000  0.4727950000000 1.0
C      1  0.4161810000000  0.4827400000000  0.5611710000000 1.0
C      1  0.5398260000000  0.4039940000000  0.4403670000000 1.0
C      1  0.4183210000000  0.5085570000000  0.5493800000000 1.0
C      1  0.4266740000000  0.4772860000000  0.5866760000000 1.0
C      1  0.4269660000000  0.4576510000000  0.4378710000000 1.0
C      1  0.4829610000000  0.6192180000000  0.4129180000000 1.0
C      1  0.4832330000000  0.4322800000000  0.5305060000000 1.0
C      1  0.5305190000000  0.6040730000000  0.4231670000000 1.0
C      1  0.5462280000000  0.3944280000000  0.4888090000000 1.0
C      1  0.5010940000000  0.4763830000000  0.6501610000000 1.0
C      1  0.3924450000000  0.4950370000000  0.4537990000000 1.0
C      1  0.4400020000000  0.5141780000000  0.5310340000000 1.0
C      1  0.4841080000000  0.4248070000000  0.4474230000000 1.0
C      1  0.5086930000000  0.5855740000000  0.5211500000000 1.0
C      1  0.4824690000000  0.4568080000000  0.5461060000000 1.0
C      1  0.4779770000000  0.4874090000000  0.6369190000000 1.0
C      1  0.5168070000000  0.5163510000000  0.5828420000000 1.0
C      1  0.4748120000000  0.4718420000000  0.3936720000000 1.0
C      1  0.5832030000000  0.5391680000000  0.4630360000000 1.0
C      1  0.6053080000000  0.5510820000000  0.5633270000000 1.0
C      1  0.6127370000000  0.5758940000000  0.5522870000000 1.0
C      1  0.5747380000000  0.4956850000000  0.5331560000000 1.0
C      1  0.5051680000000  0.4673610000000  0.4604530000000 1.0
C      1  0.5212430000000  0.4885510000000  0.4161930000000 1.0
C      1  0.4732910000000  0.4980710000000  0.3520840000000 1.0
C      1  0.5881870000000  0.4294350000000  0.5176850000000 1.0
C      1  0.5911420000000  0.4641530000000  0.4529950000000 1.0
C      1  0.5394180000000  0.6037220000000  0.4510690000000 1.0
C      1  0.5028670000000  0.5658570000000  0.4698310000000 1.0
C      1  0.5099920000000  0.6218060000000  0.4142670000000 1.0
C      1  0.4936270000000  0.4232040000000  0.6002410000000 1.0
C      1  0.5078500000000  0.5300620000000  0.5085330000000 1.0
C      1  0.4030580000000  0.4675290000000  0.4525900000000 1.0
C      1  0.3960840000000  0.5474630000000  0.4724630000000 1.0
C      1  0.4965640000000  0.5952670000000  0.4652700000000 1.0
C      1  0.4061190000000  0.4540590000000  0.4776110000000 1.0
C      1  0.5152520000000  0.4454470000000  0.3832360000000 1.0
C      1  0.4451300000000  0.4828440000000  0.4349080000000 1.0
C      1  0.4313310000000  0.4998510000000  0.4130360000000 1.0
C      1  0.5439380000000  0.3892330000000  0.4619150000000 1.0
C      1  0.4471710000000  0.6018820000000  0.5006360000000 1.0
C      1  0.5376030000000  0.5329250000000  0.4715450000000 1.0
C      1  0.5253940000000  0.4866810000000  0.4781930000000 1.0
C      1  0.5057150000000  0.4725790000000  0.5554480000000 1.0
C      1  0.4699550000000  0.6138090000000  0.5133190000000 1.0
C      1  0.5443630000000  0.4187580000000  0.5802570000000 1.0
C      1  0.5430180000000  0.5164650000000  0.5943260000000 1.0
C      1  0.6135930000000  0.4765210000000  0.4678660000000 1.0
C      1  0.4784420000000  0.5311270000000  0.4450970000000 1.0
C      1  0.4855560000000  0.4047120000000  0.4921310000000 1.0
C      1  0.4002550000000  0.5605340000000  0.4467680000000 1.0
C      1  0.4247450000000  0.5740090000000  0.4407290000000 1.0
C      1  0.4807690000000  0.4674760000000  0.4798090000000 1.0
C      1  0.6318040000000  0.5153930000000  0.5337350000000 1.0
C      1  0.4087550000000  0.5556090000000  0.5434330000000 1.0
C      1  0.4256420000000  0.3980660000000  0.5690860000000 1.0
C      1  0.4960200000000  0.5078460000000  0.3420450000000 1.0
C      1  0.4984500000000  0.4849170000000  0.4353170000000 1.0
C      1  0.4618400000000  0.5277310000000  0.5456600000000 1.0
C      1  0.5596360000000  0.5392590000000  0.5897920000000 1.0
C      1  0.5345960000000  0.5014320000000  0.3970840000000 1.0
C      1  0.4390030000000  0.5915610000000  0.4227430000000 1.0
C      1  0.6129080000000  0.4865540000000  0.4959820000000 1.0
C      1  0.5116710000000  0.4862060000000  0.5068720000000 1.0
C      1  0.5084340000000  0.5429450000000  0.5769090000000 1.0
C      1  0.6199870000000  0.5290080000000  0.5535260000000 1.0
C      1  0.5632990000000  0.5194430000000  0.4695490000000 1.0
C      1  0.4364490000000  0.4890180000000  0.4911790000000 1.0
C      1  0.4277070000000  0.5844050000000  0.5114240000000 1.0
C      1  0.5745330000000  0.4132540000000  0.5397290000000 1.0
C      1  0.5090350000000  0.4398130000000  0.4486130000000 1.0
C      1  0.4458390000000  0.4689830000000  0.6032360000000 1.0
C      1  0.4371010000000  0.4293700000000  0.4396550000000 1.0
C      1  0.5556350000000  0.4898510000000  0.4734810000000 1.0
C      1  0.5189260000000  0.6130070000000  0.4692670000000 1.0
C      1  0.4127750000000  0.4611290000000  0.5435760000000 1.0
C      1  0.5627320000000  0.4287670000000  0.5611720000000 1.0
C      1  0.5879290000000  0.5730180000000  0.4280330000000 1.0
C      1  0.4507360000000  0.5961690000000  0.4735410000000 1.0
C      1  0.4827920000000  0.4868840000000  0.5011720000000 1.0
C      1  0.5731400000000  0.4793470000000  0.5575950000000 1.0
C      1  0.4395330000000  0.5717110000000  0.4652360000000 1.0
C      1  0.4873140000000  0.4468470000000  0.3881060000000 1.0
C      1  0.5303970000000  0.5409650000000  0.5263640000000 1.0
C      1  0.5892020000000  0.4797950000000  0.5121430000000 1.0
C      1  0.4630230000000  0.4082800000000  0.5294720000000 1.0
C      1  0.5276580000000  0.5781900000000  0.4117680000000 1.0
C      1  0.5772800000000  0.4848590000000  0.5846250000000 1.0
C      1  0.4914870000000  0.5478380000000  0.4926520000000 1.0
C      1  0.4916990000000  0.5685990000000  0.5384740000000 1.0
C      1  0.4478500000000  0.5477360000000  0.4777040000000 1.0
C      1  0.5598120000000  0.3890630000000  0.5327770000000 1.0
C      1  0.4684310000000  0.4201890000000  0.4734690000000 1.0
C      1  0.4186030000000  0.3992160000000  0.5430680000000 1.0
C      1  0.5825470000000  0.5485830000000  0.5795660000000 1.0
C      1  0.5325350000000  0.5690770000000  0.5098320000000 1.0
C      1  0.4696440000000  0.4668330000000  0.6175760000000 1.0
C      1  0.3893640000000  0.5569840000000  0.5218740000000 1.0
C      1  0.4597340000000  0.6112960000000  0.6301610000000 1.0
C      1  0.4898360000000  0.4452040000000  0.6174380000000 1.0
C      1  0.4233990000000  0.4516440000000  0.5210310000000 1.0
C      1  0.4607980000000  0.4480350000000  0.4838000000000 1.0
C      1  0.5403380000000  0.4471320000000  0.3934890000000 1.0
C      1  0.5031710000000  0.3787680000000  0.5310000000000 1.0
C      1  0.4462870000000  0.4986820000000  0.4621470000000 1.0
C      1  0.5122330000000  0.5508250000000  0.5504250000000 1.0
C      1  0.4643630000000  0.4786260000000  0.5426620000000 1.0
C      1  0.5585930000000  0.4554760000000  0.5531480000000 1.0
C      1  0.4973440000000  0.5112300000000  0.4480930000000 1.0
C      1  0.5521250000000  0.5791340000000  0.4605940000000 1.0
C      1  0.5654490000000  0.3807700000000  0.5054050000000 1.0
C      1  0.5335970000000  0.5626630000000  0.4779050000000 1.0
C      1  0.5483360000000  0.4487540000000  0.5072550000000 1.0
C      1  0.5557670000000  0.5198290000000  0.5298610000000 1.0
C      1  0.5155990000000  0.6250130000000  0.4946590000000 1.0
C      1  0.5408480000000  0.4579650000000  0.5317060000000 1.0
C      1  0.4986560000000  0.6111170000000  0.5132620000000 1.0
C      1  0.5091630000000  0.5603220000000  0.4196640000000 1.0
C      1  0.6090450000000  0.5406340000000  0.4737090000000 1.0
C      1  0.4318760000000  0.4581340000000  0.4930860000000 1.0
C      1  0.6257410000000  0.5572190000000  0.4862700000000 1.0
C      1  0.4068830000000  0.5323440000000  0.5590630000000 1.0
C      1  0.5170830000000  0.5140380000000  0.4673750000000 1.0
C      1  0.4728890000000  0.4254510000000  0.3999840000000 1.0
C      1  0.5744120000000  0.5640980000000  0.4502280000000 1.0
C      1  0.4463000000000  0.4011340000000  0.5858490000000 1.0
C      1  0.5000460000000  0.4967170000000  0.5703640000000 1.0
C      1  0.4950320000000  0.5581400000000  0.5960170000000 1.0
C      1  0.4341790000000  0.5685270000000  0.5348010000000 1.0
C      1  0.4353030000000  0.4048410000000  0.5210070000000 1.0
C      1  0.4710260000000  0.4079760000000  0.5932410000000 1.0
C      1  0.5763650000000  0.4537430000000  0.5005450000000 1.0
C      1  0.6236710000000  0.5844010000000  0.5294010000000 1.0
C      1  0.4113240000000  0.5057940000000  0.4944040000000 1.0
END
