TITL C-599896-8500-464 -0.00776849445196278 125000 -538.376241712612 0 0 89 (C1) n - 1
REM
REM in /home/nfs/bkarasulu/CARBON/AIRSS/Generating-Clusters/TERSOFF/Only-C1/FIRE-HFTN
REM
REM
REM
REM
REM
REM ./C.cell (11c1c37f851c82e70ff6c80c92926a4b)
REM AIRSS Version 0.9.1 bugfix July 2018 build 013d7b7c2542+ Fri, 06 Jul 2018 19:26:36 +0100
REM compiler GCC version 9.2.1 20190827 (Red Hat 9.2.1-1)
REM options -cpp -mtune=generic -march=x86-64 -g -O0 -fpre-include=/usr/include/finclude/math-vector-fortran.h
REM seed -143886397 -669182351 -1571250081 191754418 748443213 2070135468 211905402 -1977147016 -1264116574 217196146 1781064010 1218241602 860432747 1693941782 -1280621493 -125840568 1539633741 -885500963 -1319818490 1652778830 -1147958906 -893612392 4570342 -2139129039 667100204 280205343 -441699001 -185639965 -1685935864 -513949827 -532160623 687660483 867247147
REM
CELL 1.54180   50.00000   50.00000   50.00000   90.00000   90.00000   90.00000
LATT -1
SFAC C  
C      1  0.5245650000000  0.5324490000000  0.3904490000000 1.0
C      1  0.4419210000000  0.5497000000000  0.4324470000000 1.0
C      1  0.4000210000000  0.5359100000000  0.5094010000000 1.0
C      1  0.4981520000000  0.5189210000000  0.4730080000000 1.0
C      1  0.5752510000000  0.5474130000000  0.5372470000000 1.0
C      1  0.5132250000000  0.5849150000000  0.4739530000000 1.0
C      1  0.4887160000000  0.5736510000000  0.4373130000000 1.0
C      1  0.4629890000000  0.4394330000000  0.5172060000000 1.0
C      1  0.5884550000000  0.5325690000000  0.5186010000000 1.0
C      1  0.4734540000000  0.5408990000000  0.5094300000000 1.0
C      1  0.5424930000000  0.5148580000000  0.5086670000000 1.0
C      1  0.6012150000000  0.4640060000000  0.5123870000000 1.0
C      1  0.4702470000000  0.5769590000000  0.4601240000000 1.0
C      1  0.5362410000000  0.4670900000000  0.5096190000000 1.0
C      1  0.4863770000000  0.5532210000000  0.4165560000000 1.0
C      1  0.4050770000000  0.4892710000000  0.4955130000000 1.0
C      1  0.4643470000000  0.3916520000000  0.5060620000000 1.0
C      1  0.5064570000000  0.4483220000000  0.6259260000000 1.0
C      1  0.5688570000000  0.5137990000000  0.5798990000000 1.0
C      1  0.5165180000000  0.5716090000000  0.4489660000000 1.0
C      1  0.4532250000000  0.4658920000000  0.5169850000000 1.0
C      1  0.5236040000000  0.4470890000000  0.5748870000000 1.0
C      1  0.4966250000000  0.4431490000000  0.4830120000000 1.0
C      1  0.4512200000000  0.4765310000000  0.4911600000000 1.0
C      1  0.5364930000000  0.4903790000000  0.5531070000000 1.0
C      1  0.4961810000000  0.4698600000000  0.4366870000000 1.0
C      1  0.5823060000000  0.5008480000000  0.4338960000000 1.0
C      1  0.3767060000000  0.5384640000000  0.5235310000000 1.0
C      1  0.4237730000000  0.5679020000000  0.4741710000000 1.0
C      1  0.4211370000000  0.5130450000000  0.5602900000000 1.0
C      1  0.4704200000000  0.5106990000000  0.4318290000000 1.0
C      1  0.4453940000000  0.4704810000000  0.4305860000000 1.0
C      1  0.4563410000000  0.4973240000000  0.4756350000000 1.0
C      1  0.5310900000000  0.5388120000000  0.5606210000000 1.0
C      1  0.5430890000000  0.5141880000000  0.5677490000000 1.0
C      1  0.4741340000000  0.5119130000000  0.4600620000000 1.0
C      1  0.5362040000000  0.4038770000000  0.4876330000000 1.0
C      1  0.3884060000000  0.4716250000000  0.5086190000000 1.0
C      1  0.5361700000000  0.4711230000000  0.4087400000000 1.0
C      1  0.4824710000000  0.4980190000000  0.5431160000000 1.0
C      1  0.5564640000000  0.4527040000000  0.4963560000000 1.0
C      1  0.5146760000000  0.4472820000000  0.6012180000000 1.0
C      1  0.5230600000000  0.4798350000000  0.4319170000000 1.0
C      1  0.5425720000000  0.5643010000000  0.5009440000000 1.0
C      1  0.4153940000000  0.5115900000000  0.5111660000000 1.0
C      1  0.5929950000000  0.4743170000000  0.5620350000000 1.0
C      1  0.4713430000000  0.4822440000000  0.4267980000000 1.0
C      1  0.5805950000000  0.4678290000000  0.4934510000000 1.0
C      1  0.5450950000000  0.5380340000000  0.4953320000000 1.0
C      1  0.3948720000000  0.5160650000000  0.6056960000000 1.0
C      1  0.5003140000000  0.4998370000000  0.5204270000000 1.0
C      1  0.4907310000000  0.4380890000000  0.5099320000000 1.0
C      1  0.5473150000000  0.4626030000000  0.3867780000000 1.0
C      1  0.5139190000000  0.4292610000000  0.5558030000000 1.0
C      1  0.4089990000000  0.5565150000000  0.4929330000000 1.0
C      1  0.4800530000000  0.5264880000000  0.5519130000000 1.0
C      1  0.5073180000000  0.4286250000000  0.5301350000000 1.0
C      1  0.4359610000000  0.5112160000000  0.5342910000000 1.0
C      1  0.5246200000000  0.5450510000000  0.4399530000000 1.0
C      1  0.5429640000000  0.4652520000000  0.5654350000000 1.0
C      1  0.4441130000000  0.5667150000000  0.4553860000000 1.0
C      1  0.5495570000000  0.5566370000000  0.5463310000000 1.0
C      1  0.4102340000000  0.4840700000000  0.4677370000000 1.0
C      1  0.5217730000000  0.5217720000000  0.4567890000000 1.0
C      1  0.6067920000000  0.4689540000000  0.5381870000000 1.0
C      1  0.5291180000000  0.4921700000000  0.5235470000000 1.0
C      1  0.4640070000000  0.5359120000000  0.4205180000000 1.0
C      1  0.4927130000000  0.5200320000000  0.5009180000000 1.0
C      1  0.5049640000000  0.5669440000000  0.5318340000000 1.0
C      1  0.5514970000000  0.4259310000000  0.4891280000000 1.0
C      1  0.5129520000000  0.5419510000000  0.4129630000000 1.0
C      1  0.5913440000000  0.4994550000000  0.5749750000000 1.0
C      1  0.4577260000000  0.5341540000000  0.5329670000000 1.0
C      1  0.5655110000000  0.4972940000000  0.4555780000000 1.0
C      1  0.5140380000000  0.3888870000000  0.4902540000000 1.0
C      1  0.5890510000000  0.5156970000000  0.4972540000000 1.0
C      1  0.5787160000000  0.4939890000000  0.4812230000000 1.0
C      1  0.4080540000000  0.5144990000000  0.5832610000000 1.0
C      1  0.4514080000000  0.4136870000000  0.5153620000000 1.0
C      1  0.5702200000000  0.4583170000000  0.5669720000000 1.0
C      1  0.5030010000000  0.5446200000000  0.5527510000000 1.0
C      1  0.4855740000000  0.5668590000000  0.5099240000000 1.0
C      1  0.4232790000000  0.4744740000000  0.4459590000000 1.0
C      1  0.4884060000000  0.3838480000000  0.4966870000000 1.0
C      1  0.5334710000000  0.5712190000000  0.5268000000000 1.0
C      1  0.4865290000000  0.5808290000000  0.4850400000000 1.0
C      1  0.5368960000000  0.4982550000000  0.4499320000000 1.0
C      1  0.4558570000000  0.4866860000000  0.5363890000000 1.0
C      1  0.4943750000000  0.4511380000000  0.4577340000000 1.0
END
