TITL C-599892-9790-256 0.40650876747496 125000 -323.320721371254 0 0 55 (C1) n - 1
REM
REM in /home/nfs/bkarasulu/CARBON/AIRSS/Generating-Clusters/TERSOFF/Only-C1/FIRE-HFTN
REM
REM
REM
REM
REM
REM ./C.cell (11c1c37f851c82e70ff6c80c92926a4b)
REM AIRSS Version 0.9.1 bugfix July 2018 build 013d7b7c2542+ Fri, 06 Jul 2018 19:26:36 +0100
REM compiler GCC version 9.2.1 20190827 (Red Hat 9.2.1-1)
REM options -cpp -mtune=generic -march=x86-64 -g -O0 -fpre-include=/usr/include/finclude/math-vector-fortran.h
REM seed -1666273751 -660949242 1029018365 1794038813 1830111714 -1978637539 -1338233062 -1990338751 995977798 1376087430 -362011524 -1567883133 1713011176 -1003521914 255803202 -370019084 -265072127 -1502580770 222660618 -1331936847 600935677 -1458036508 -35308616 -2124528748 -332149395 6260748 24568449 789339200 -2138914664 1953837666 -602402883 -504979368 1285079827
REM
CELL 1.54180   50.00000   50.00000   50.00000   90.00000   90.00000   90.00000
LATT -1
SFAC C  
C      1  0.5044750000000  0.4729340000000  0.5566060000000 1.0
C      1  0.5405210000000  0.5605710000000  0.5003710000000 1.0
C      1  0.5537490000000  0.5802890000000  0.5111160000000 1.0
C      1  0.6133420000000  0.5542480000000  0.5566060000000 1.0
C      1  0.4602130000000  0.4704070000000  0.4507880000000 1.0
C      1  0.5521920000000  0.4304440000000  0.4241680000000 1.0
C      1  0.4375590000000  0.5412650000000  0.4806320000000 1.0
C      1  0.4946110000000  0.5408010000000  0.5512070000000 1.0
C      1  0.6047600000000  0.5294200000000  0.5531650000000 1.0
C      1  0.5394920000000  0.5118340000000  0.4940350000000 1.0
C      1  0.4773760000000  0.4682070000000  0.5620860000000 1.0
C      1  0.4592790000000  0.5561150000000  0.4739630000000 1.0
C      1  0.4994160000000  0.4249420000000  0.4742180000000 1.0
C      1  0.4525280000000  0.4627790000000  0.4250630000000 1.0
C      1  0.4943480000000  0.5886680000000  0.4691520000000 1.0
C      1  0.4215700000000  0.5049590000000  0.5148220000000 1.0
C      1  0.4241020000000  0.5227790000000  0.5367330000000 1.0
C      1  0.4351700000000  0.4556300000000  0.5324620000000 1.0
C      1  0.5276720000000  0.4574130000000  0.5122450000000 1.0
C      1  0.5287990000000  0.5382560000000  0.4882360000000 1.0
C      1  0.5053040000000  0.5216630000000  0.4490430000000 1.0
C      1  0.4355010000000  0.5148360000000  0.4916020000000 1.0
C      1  0.4740110000000  0.5327180000000  0.5335710000000 1.0
C      1  0.5658800000000  0.5028290000000  0.5416920000000 1.0
C      1  0.5058950000000  0.5206580000000  0.5670220000000 1.0
C      1  0.6086710000000  0.4816730000000  0.5491440000000 1.0
C      1  0.5467380000000  0.4966990000000  0.5612790000000 1.0
C      1  0.5221560000000  0.4408320000000  0.4677180000000 1.0
C      1  0.4563960000000  0.4184840000000  0.5016330000000 1.0
C      1  0.4653810000000  0.4986060000000  0.4574960000000 1.0
C      1  0.5074510000000  0.5420030000000  0.4691020000000 1.0
C      1  0.4788000000000  0.5188610000000  0.5090500000000 1.0
C      1  0.5377520000000  0.4348820000000  0.4454020000000 1.0
C      1  0.6212010000000  0.5789250000000  0.5595840000000 1.0
C      1  0.5567950000000  0.5079180000000  0.5156610000000 1.0
C      1  0.4595560000000  0.5007640000000  0.3959240000000 1.0
C      1  0.5168450000000  0.4578070000000  0.5364600000000 1.0
C      1  0.4640230000000  0.4555510000000  0.4745900000000 1.0
C      1  0.5188910000000  0.4960020000000  0.5651200000000 1.0
C      1  0.4796080000000  0.5152880000000  0.4395820000000 1.0
C      1  0.4473790000000  0.5349000000000  0.5428980000000 1.0
C      1  0.4724960000000  0.4295720000000  0.4811090000000 1.0
C      1  0.4202880000000  0.4771520000000  0.5210340000000 1.0
C      1  0.4653800000000  0.4738480000000  0.4964770000000 1.0
C      1  0.4869750000000  0.5622750000000  0.4709700000000 1.0
C      1  0.4515510000000  0.4755580000000  0.4013650000000 1.0
C      1  0.5287040000000  0.4630300000000  0.4847600000000 1.0
C      1  0.5934390000000  0.5043670000000  0.5480830000000 1.0
C      1  0.5026530000000  0.5668070000000  0.5529650000000 1.0
C      1  0.5234390000000  0.4999020000000  0.4512940000000 1.0
C      1  0.4632800000000  0.5025000000000  0.4886380000000 1.0
C      1  0.4528210000000  0.4618950000000  0.5536750000000 1.0
C      1  0.5325690000000  0.4901720000000  0.4762420000000 1.0
C      1  0.4398370000000  0.4309150000000  0.5191750000000 1.0
C      1  0.4711610000000  0.5181460000000  0.4129670000000 1.0
END
