TITL C-599897-7526-843 -6.0429895023635e-05 125000 -445.950524674965 0 0 75 (C1) n - 1
REM
REM in /home/nfs/bkarasulu/CARBON/AIRSS/Generating-Clusters/TERSOFF/Only-C1/FIRE-HFTN
REM
REM
REM
REM
REM
REM ./C.cell (11c1c37f851c82e70ff6c80c92926a4b)
REM AIRSS Version 0.9.1 bugfix July 2018 build 013d7b7c2542+ Fri, 06 Jul 2018 19:26:36 +0100
REM compiler GCC version 9.2.1 20190827 (Red Hat 9.2.1-1)
REM options -cpp -mtune=generic -march=x86-64 -g -O0 -fpre-include=/usr/include/finclude/math-vector-fortran.h
REM seed 822481364 395191766 1576184720 -640394860 -1615627075 283163789 885901781 2146189471 581326392 2001451178 1440347755 779458255 1605847599 1012404851 -726275609 -283207394 -1376379880 -1360419092 -1330347758 806196753 603226827 384189617 15644555 -1617732618 -1981188666 -1456758692 1104848196 245035246 1337196520 1124775031 544968509 -583399492 -1275023938
REM
CELL 1.54180   50.00000   50.00000   50.00000   90.00000   90.00000   90.00000
LATT -1
SFAC C  
C      1  0.4136560000000  0.4968930000000  0.5200010000000 1.0
C      1  0.5663330000000  0.5510010000000  0.4631290000000 1.0
C      1  0.5271180000000  0.5462130000000  0.4324170000000 1.0
C      1  0.5259190000000  0.5008730000000  0.5086890000000 1.0
C      1  0.5159170000000  0.4596180000000  0.5895420000000 1.0
C      1  0.4904920000000  0.3966920000000  0.5075590000000 1.0
C      1  0.5848970000000  0.5329120000000  0.4744110000000 1.0
C      1  0.5032590000000  0.5267730000000  0.4261860000000 1.0
C      1  0.5419100000000  0.4998050000000  0.5802560000000 1.0
C      1  0.5208860000000  0.5044180000000  0.4152540000000 1.0
C      1  0.5058570000000  0.4816870000000  0.5073750000000 1.0
C      1  0.4868490000000  0.6069500000000  0.4837580000000 1.0
C      1  0.4480790000000  0.4470510000000  0.4835490000000 1.0
C      1  0.5536350000000  0.5496390000000  0.4375080000000 1.0
C      1  0.5267600000000  0.5378190000000  0.4832290000000 1.0
C      1  0.4779730000000  0.4207070000000  0.5050730000000 1.0
C      1  0.5099180000000  0.4587010000000  0.5217290000000 1.0
C      1  0.4769720000000  0.5557800000000  0.4864890000000 1.0
C      1  0.4848970000000  0.4451050000000  0.6250170000000 1.0
C      1  0.5699040000000  0.4704320000000  0.5525510000000 1.0
C      1  0.5249230000000  0.4578270000000  0.4652820000000 1.0
C      1  0.5197280000000  0.4952380000000  0.6236710000000 1.0
C      1  0.4639130000000  0.6004550000000  0.4682600000000 1.0
C      1  0.5453590000000  0.5593090000000  0.4808070000000 1.0
C      1  0.5260550000000  0.4485900000000  0.5649210000000 1.0
C      1  0.5307100000000  0.5144480000000  0.5326770000000 1.0
C      1  0.5147510000000  0.5054290000000  0.6471350000000 1.0
C      1  0.5531370000000  0.4470060000000  0.5544760000000 1.0
C      1  0.4911240000000  0.4802040000000  0.4831790000000 1.0
C      1  0.5614040000000  0.4163120000000  0.5134160000000 1.0
C      1  0.4636140000000  0.4957910000000  0.4237500000000 1.0
C      1  0.4312280000000  0.4514390000000  0.4618760000000 1.0
C      1  0.5943990000000  0.4878890000000  0.5044860000000 1.0
C      1  0.4300450000000  0.5471640000000  0.4998080000000 1.0
C      1  0.4230280000000  0.4710070000000  0.5199390000000 1.0
C      1  0.4006730000000  0.5805730000000  0.4420870000000 1.0
C      1  0.5554110000000  0.4214740000000  0.4879710000000 1.0
C      1  0.5055360000000  0.4454760000000  0.5453520000000 1.0
C      1  0.4827510000000  0.5478400000000  0.4179850000000 1.0
C      1  0.4597110000000  0.5141050000000  0.4833430000000 1.0
C      1  0.5013210000000  0.5463300000000  0.4907370000000 1.0
C      1  0.5343530000000  0.4862690000000  0.4612190000000 1.0
C      1  0.5314490000000  0.5155910000000  0.5594270000000 1.0
C      1  0.4278820000000  0.5213680000000  0.5147270000000 1.0
C      1  0.4906340000000  0.4488140000000  0.5985780000000 1.0
C      1  0.4722850000000  0.4411130000000  0.5780460000000 1.0
C      1  0.4290610000000  0.5764660000000  0.5007320000000 1.0
C      1  0.5602970000000  0.4248830000000  0.5386570000000 1.0
C      1  0.4554730000000  0.5110410000000  0.5116160000000 1.0
C      1  0.5255280000000  0.4851060000000  0.5983850000000 1.0
C      1  0.4370010000000  0.5912010000000  0.4767020000000 1.0
C      1  0.4780050000000  0.4391340000000  0.5505600000000 1.0
C      1  0.6117070000000  0.4701730000000  0.4925350000000 1.0
C      1  0.4423260000000  0.4798180000000  0.4223070000000 1.0
C      1  0.4419220000000  0.4510180000000  0.5122530000000 1.0
C      1  0.4516440000000  0.5421800000000  0.4769290000000 1.0
C      1  0.4652030000000  0.5637520000000  0.4333330000000 1.0
C      1  0.4627260000000  0.4348630000000  0.5266090000000 1.0
C      1  0.5670850000000  0.4884690000000  0.5740910000000 1.0
C      1  0.5130190000000  0.6009940000000  0.4872890000000 1.0
C      1  0.4708400000000  0.5062930000000  0.5334580000000 1.0
C      1  0.4289200000000  0.4628050000000  0.4378930000000 1.0
C      1  0.4709600000000  0.5906680000000  0.4416410000000 1.0
C      1  0.4790170000000  0.5007240000000  0.4686890000000 1.0
C      1  0.5819030000000  0.4796630000000  0.5285860000000 1.0
C      1  0.4757120000000  0.4363720000000  0.4805550000000 1.0
C      1  0.5902910000000  0.5128650000000  0.4915970000000 1.0
C      1  0.5331220000000  0.5091200000000  0.4819690000000 1.0
C      1  0.4434400000000  0.5541860000000  0.4502030000000 1.0
C      1  0.4241540000000  0.5756790000000  0.4546080000000 1.0
C      1  0.5372650000000  0.4921530000000  0.4332970000000 1.0
C      1  0.5349460000000  0.5852480000000  0.4857320000000 1.0
C      1  0.4962180000000  0.4545880000000  0.4713620000000 1.0
C      1  0.4826690000000  0.5074720000000  0.4412680000000 1.0
C      1  0.5428930000000  0.4369350000000  0.4702690000000 1.0
END
