TITL C-599892-9790-1344 777.832898533885 125000 -1221.61095319678 0 0 199 (C1) n - 1
REM
REM in /home/nfs/bkarasulu/CARBON/AIRSS/Generating-Clusters/TERSOFF/Only-C1/FIRE-HFTN
REM
REM
REM
REM
REM
REM ./C.cell (11c1c37f851c82e70ff6c80c92926a4b)
REM AIRSS Version 0.9.1 bugfix July 2018 build 013d7b7c2542+ Fri, 06 Jul 2018 19:26:36 +0100
REM compiler GCC version 9.2.1 20190827 (Red Hat 9.2.1-1)
REM options -cpp -mtune=generic -march=x86-64 -g -O0 -fpre-include=/usr/include/finclude/math-vector-fortran.h
REM seed -835424637 1608624709 -905232474 -1450014643 126251524 241569202 -578149566 1107548212 -389754857 920307454 827089777 -1008459498 -1704141648 -1679818098 -1224852083 685269806 1424614490 1648786397 1161226434 -403952982 309475 1703870362 1435677578 74046062 -79104253 305292646 -40041166 2095693969 -1783887269 809271473 1432072067 -2134568443 -357175020
REM
CELL 1.54180   50.00000   50.00000   50.00000   90.00000   90.00000   90.00000
LATT -1
SFAC C  
C      1  0.3993380000000  0.5962890000000  0.3990320000000 1.0
C      1  0.5720190000000  0.6363310000000  0.4649790000000 1.0
C      1  0.5661570000000  0.4409550000000  0.5697540000000 1.0
C      1  0.5050350000000  0.4146160000000  0.5914810000000 1.0
C      1  0.5019860000000  0.5899020000000  0.4272800000000 1.0
C      1  0.4013270000000  0.5407960000000  0.5584700000000 1.0
C      1  0.5069910000000  0.3940320000000  0.4407810000000 1.0
C      1  0.4771450000000  0.4894720000000  0.4381460000000 1.0
C      1  0.4397550000000  0.5114060000000  0.4126940000000 1.0
C      1  0.5100640000000  0.5102410000000  0.5657460000000 1.0
C      1  0.6045250000000  0.5535750000000  0.5133820000000 1.0
C      1  0.5806050000000  0.5190260000000  0.5804950000000 1.0
C      1  0.4649610000000  0.5813650000000  0.4589980000000 1.0
C      1  0.5712300000000  0.4689050000000  0.5921670000000 1.0
C      1  0.3982700000000  0.4911590000000  0.5548500000000 1.0
C      1  0.5655860000000  0.4046900000000  0.5105360000000 1.0
C      1  0.5735200000000  0.5263050000000  0.4000770000000 1.0
C      1  0.4307150000000  0.4839890000000  0.4750300000000 1.0
C      1  0.4168380000000  0.4587070000000  0.4772230000000 1.0
C      1  0.3712510000000  0.4399230000000  0.4825480000000 1.0
C      1  0.4967980000000  0.6393480000000  0.4665510000000 1.0
C      1  0.6084770000000  0.4149760000000  0.4895600000000 1.0
C      1  0.5038040000000  0.4517810000000  0.4036980000000 1.0
C      1  0.5890050000000  0.4172120000000  0.4408130000000 1.0
C      1  0.4986480000000  0.4216610000000  0.4407750000000 1.0
C      1  0.5802180000000  0.5924910000000  0.5282690000000 1.0
C      1  0.4858120000000  0.5722750000000  0.4416620000000 1.0
C      1  0.4005070000000  0.5902610000000  0.4264470000000 1.0
C      1  0.4224190000000  0.5014420000000  0.5642340000000 1.0
C      1  0.5100110000000  0.4555830000000  0.6314230000000 1.0
C      1  0.5475450000000  0.5698570000000  0.5719800000000 1.0
C      1  0.4839880000000  0.4610470000000  0.4802010000000 1.0
C      1  0.4807290000000  0.4402900000000  0.4969870000000 1.0
C      1  0.4766610000000  0.5316210000000  0.4636170000000 1.0
C      1  0.4788370000000  0.6242730000000  0.4820030000000 1.0
C      1  0.5394030000000  0.5597270000000  0.5464060000000 1.0
C      1  0.5325740000000  0.3922040000000  0.4268240000000 1.0
C      1  0.4483750000000  0.5355190000000  0.4672110000000 1.0
C      1  0.5915320000000  0.5789370000000  0.5524680000000 1.0
C      1  0.5175450000000  0.4369250000000  0.4547770000000 1.0
C      1  0.5732010000000  0.4951790000000  0.5397580000000 1.0
C      1  0.5512200000000  0.4163510000000  0.5804810000000 1.0
C      1  0.5233520000000  0.4324550000000  0.3947820000000 1.0
C      1  0.4012450000000  0.5335800000000  0.5302740000000 1.0
C      1  0.5256760000000  0.4974400000000  0.5101720000000 1.0
C      1  0.5419110000000  0.3961960000000  0.5616280000000 1.0
C      1  0.5334820000000  0.6189920000000  0.5217700000000 1.0
C      1  0.5835440000000  0.5852360000000  0.4776570000000 1.0
C      1  0.5046750000000  0.4818600000000  0.6209880000000 1.0
C      1  0.5246230000000  0.5164210000000  0.5925440000000 1.0
C      1  0.3766870000000  0.4189060000000  0.4660140000000 1.0
C      1  0.4871610000000  0.3789600000000  0.5097390000000 1.0
C      1  0.5487190000000  0.4301700000000  0.5099760000000 1.0
C      1  0.4944250000000  0.4286140000000  0.5665200000000 1.0
C      1  0.5556530000000  0.5384480000000  0.5379090000000 1.0
C      1  0.5687310000000  0.5192990000000  0.5546530000000 1.0
C      1  0.4500250000000  0.4734720000000  0.5294590000000 1.0
C      1  0.4768800000000  0.5548220000000  0.5561340000000 1.0
C      1  0.4670180000000  0.5109470000000  0.5057210000000 1.0
C      1  0.4592160000000  0.6084800000000  0.4681080000000 1.0
C      1  0.4143340000000  0.5474780000000  0.5815200000000 1.0
C      1  0.3900070000000  0.5645290000000  0.4341140000000 1.0
C      1  0.4853130000000  0.4953400000000  0.5787910000000 1.0
C      1  0.4199210000000  0.4333730000000  0.5320000000000 1.0
C      1  0.5058230000000  0.6164740000000  0.5267340000000 1.0
C      1  0.5881340000000  0.4329300000000  0.5509750000000 1.0
C      1  0.5437630000000  0.4535800000000  0.5548320000000 1.0
C      1  0.4160890000000  0.5125460000000  0.5157790000000 1.0
C      1  0.5614440000000  0.5358170000000  0.5094870000000 1.0
C      1  0.4297610000000  0.6081860000000  0.4683040000000 1.0
C      1  0.6245340000000  0.4373070000000  0.4959270000000 1.0
C      1  0.5313930000000  0.4232910000000  0.5998450000000 1.0
C      1  0.4883460000000  0.5118080000000  0.4828630000000 1.0
C      1  0.4829160000000  0.4142270000000  0.6353200000000 1.0
C      1  0.4558790000000  0.4422310000000  0.4283790000000 1.0
C      1  0.5902880000000  0.5783290000000  0.5042940000000 1.0
C      1  0.5281860000000  0.3880630000000  0.5375960000000 1.0
C      1  0.5586120000000  0.6105180000000  0.5263930000000 1.0
C      1  0.5403680000000  0.3639110000000  0.4948990000000 1.0
C      1  0.5754870000000  0.6113490000000  0.4715500000000 1.0
C      1  0.5544180000000  0.5087860000000  0.3871990000000 1.0
C      1  0.5005480000000  0.5271840000000  0.4221870000000 1.0
C      1  0.5034380000000  0.4702450000000  0.5420760000000 1.0
C      1  0.3992370000000  0.4233230000000  0.4493700000000 1.0
C      1  0.4234750000000  0.4457450000000  0.6033500000000 1.0
C      1  0.5479370000000  0.4706210000000  0.6076930000000 1.0
C      1  0.5640940000000  0.5474010000000  0.4168600000000 1.0
C      1  0.5898910000000  0.5293080000000  0.5092100000000 1.0
C      1  0.4338520000000  0.5108660000000  0.4702420000000 1.0
C      1  0.5659980000000  0.5507330000000  0.4451700000000 1.0
C      1  0.4509440000000  0.5451450000000  0.5468950000000 1.0
C      1  0.3748710000000  0.4115920000000  0.5480120000000 1.0
C      1  0.4881160000000  0.5460590000000  0.6104200000000 1.0
C      1  0.5925970000000  0.5017460000000  0.5189500000000 1.0
C      1  0.3724080000000  0.5072790000000  0.4823300000000 1.0
C      1  0.6064550000000  0.4507430000000  0.5390190000000 1.0
C      1  0.3851270000000  0.5379180000000  0.4440660000000 1.0
C      1  0.4579270000000  0.6153770000000  0.5243610000000 1.0
C      1  0.5032190000000  0.3760750000000  0.4628480000000 1.0
C      1  0.5407930000000  0.4447900000000  0.4666110000000 1.0
C      1  0.5757430000000  0.3986150000000  0.4575870000000 1.0
C      1  0.4514910000000  0.4895320000000  0.4256030000000 1.0
C      1  0.5483630000000  0.4927040000000  0.4286960000000 1.0
C      1  0.4927700000000  0.4377250000000  0.6442850000000 1.0
C      1  0.4438660000000  0.5169720000000  0.5505430000000 1.0
C      1  0.5829260000000  0.4095040000000  0.5352500000000 1.0
C      1  0.5548960000000  0.3859290000000  0.4433650000000 1.0
C      1  0.5829020000000  0.4025530000000  0.4855670000000 1.0
C      1  0.4612190000000  0.5481140000000  0.6075970000000 1.0
C      1  0.3960120000000  0.4396490000000  0.4260280000000 1.0
C      1  0.6147390000000  0.4894300000000  0.5995280000000 1.0
C      1  0.3948420000000  0.5155670000000  0.4285830000000 1.0
C      1  0.3925650000000  0.4884160000000  0.4382090000000 1.0
C      1  0.5154890000000  0.5222730000000  0.4957110000000 1.0
C      1  0.5858090000000  0.5457740000000  0.5893200000000 1.0
C      1  0.4358660000000  0.5490860000000  0.5980250000000 1.0
C      1  0.4207470000000  0.5717210000000  0.5116640000000 1.0
C      1  0.5254800000000  0.3611430000000  0.4726200000000 1.0
C      1  0.4993970000000  0.6019060000000  0.5509060000000 1.0
C      1  0.5295590000000  0.4934400000000  0.6093410000000 1.0
C      1  0.5336270000000  0.4464560000000  0.6164900000000 1.0
C      1  0.5427440000000  0.4792090000000  0.4966890000000 1.0
C      1  0.3995410000000  0.5854850000000  0.3731440000000 1.0
C      1  0.4139460000000  0.6085460000000  0.4440850000000 1.0
C      1  0.4545020000000  0.5921440000000  0.5396990000000 1.0
C      1  0.3802390000000  0.4856860000000  0.4649740000000 1.0
C      1  0.5434040000000  0.5334060000000  0.4871450000000 1.0
C      1  0.6396450000000  0.4864190000000  0.6065770000000 1.0
C      1  0.6365460000000  0.5681900000000  0.4349020000000 1.0
C      1  0.4999440000000  0.3922250000000  0.5312400000000 1.0
C      1  0.6502790000000  0.4390690000000  0.4868690000000 1.0
C      1  0.3937570000000  0.6162630000000  0.3293010000000 1.0
C      1  0.6115900000000  0.5072950000000  0.4304150000000 1.0
C      1  0.4393970000000  0.5689390000000  0.5325610000000 1.0
C      1  0.4029730000000  0.5577040000000  0.3715030000000 1.0
C      1  0.5224410000000  0.4938320000000  0.5409420000000 1.0
C      1  0.4966490000000  0.4991110000000  0.4200080000000 1.0
C      1  0.5534780000000  0.5306170000000  0.4610660000000 1.0
C      1  0.4899670000000  0.5443160000000  0.4420100000000 1.0
C      1  0.3696840000000  0.4998890000000  0.5104880000000 1.0
C      1  0.6135170000000  0.4579370000000  0.5124430000000 1.0
C      1  0.4222200000000  0.5819480000000  0.4829310000000 1.0
C      1  0.6094350000000  0.4608240000000  0.4379620000000 1.0
C      1  0.5115090000000  0.4803230000000  0.4040740000000 1.0
C      1  0.5385320000000  0.4903550000000  0.4024130000000 1.0
C      1  0.5867300000000  0.4448500000000  0.4420530000000 1.0
C      1  0.4431060000000  0.5633430000000  0.4688160000000 1.0
C      1  0.4227040000000  0.4331490000000  0.4641700000000 1.0
C      1  0.4769790000000  0.4751770000000  0.5383270000000 1.0
C      1  0.5341210000000  0.4091600000000  0.4038300000000 1.0
C      1  0.4970590000000  0.5358680000000  0.5574890000000 1.0
C      1  0.4838940000000  0.4384720000000  0.4217070000000 1.0
C      1  0.4849650000000  0.4856960000000  0.4662920000000 1.0
C      1  0.5764650000000  0.5693020000000  0.5750460000000 1.0
C      1  0.4455680000000  0.4442720000000  0.5895930000000 1.0
C      1  0.6044540000000  0.4828050000000  0.5017790000000 1.0
C      1  0.5670360000000  0.4838440000000  0.4707500000000 1.0
C      1  0.5156210000000  0.5424950000000  0.6028260000000 1.0
C      1  0.5125950000000  0.6144440000000  0.4274400000000 1.0
C      1  0.4434220000000  0.5027550000000  0.5230630000000 1.0
C      1  0.5868370000000  0.5670830000000  0.4559430000000 1.0
C      1  0.4853440000000  0.4152170000000  0.5402340000000 1.0
C      1  0.5184680000000  0.5639820000000  0.5281100000000 1.0
C      1  0.3967130000000  0.5552850000000  0.5134080000000 1.0
C      1  0.3792650000000  0.4913920000000  0.5348620000000 1.0
C      1  0.4380340000000  0.4648600000000  0.4231290000000 1.0
C      1  0.6114500000000  0.5607740000000  0.5407680000000 1.0
C      1  0.5106640000000  0.6355170000000  0.4439240000000 1.0
C      1  0.4688530000000  0.4410360000000  0.5773180000000 1.0
C      1  0.3974100000000  0.4217880000000  0.5397950000000 1.0
C      1  0.4137740000000  0.5207920000000  0.4078170000000 1.0
C      1  0.5310170000000  0.5646770000000  0.5942440000000 1.0
C      1  0.3965290000000  0.6013630000000  0.3505040000000 1.0
C      1  0.3926440000000  0.5789450000000  0.4761510000000 1.0
C      1  0.5988300000000  0.5163670000000  0.4084400000000 1.0
C      1  0.4444390000000  0.4453820000000  0.5272560000000 1.0
C      1  0.5967400000000  0.4869600000000  0.4747420000000 1.0
C      1  0.4782500000000  0.5836000000000  0.5541870000000 1.0
C      1  0.5062280000000  0.5470670000000  0.5109560000000 1.0
C      1  0.4074180000000  0.5350900000000  0.3847670000000 1.0
C      1  0.6123310000000  0.5659550000000  0.4442780000000 1.0
C      1  0.5495470000000  0.4799080000000  0.5456640000000 1.0
C      1  0.4823620000000  0.4872770000000  0.6045040000000 1.0
C      1  0.5882250000000  0.4923690000000  0.5907280000000 1.0
C      1  0.5152790000000  0.4481490000000  0.5555470000000 1.0
C      1  0.4687980000000  0.4304490000000  0.5210190000000 1.0
C      1  0.4821140000000  0.6216230000000  0.5103180000000 1.0
C      1  0.3765600000000  0.5337580000000  0.4718990000000 1.0
C      1  0.5646330000000  0.4562890000000  0.4561040000000 1.0
C      1  0.4836350000000  0.3786470000000  0.4830030000000 1.0
C      1  0.5457040000000  0.3826170000000  0.5151790000000 1.0
C      1  0.4469560000000  0.4277030000000  0.4512140000000 1.0
C      1  0.6108830000000  0.4865980000000  0.4495670000000 1.0
C      1  0.3814320000000  0.5558460000000  0.4890870000000 1.0
C      1  0.4882160000000  0.4032600000000  0.6111590000000 1.0
C      1  0.4082990000000  0.4657510000000  0.4256310000000 1.0
C      1  0.3881040000000  0.4625250000000  0.4794560000000 1.0
C      1  0.5557210000000  0.5038280000000  0.4527430000000 1.0
C      1  0.5397370000000  0.4512310000000  0.4944770000000 1.0
END
