TITL C-599893-4344-1483 -0.00192050159304151 125000 -595.671160904225 0 0 100 (C1) n - 1
REM
REM in /home/nfs/bkarasulu/CARBON/AIRSS/Generating-Clusters/TERSOFF/Only-C1/FIRE-HFTN
REM
REM
REM
REM
REM
REM ./C.cell (11c1c37f851c82e70ff6c80c92926a4b)
REM AIRSS Version 0.9.1 bugfix July 2018 build 013d7b7c2542+ Fri, 06 Jul 2018 19:26:36 +0100
REM compiler GCC version 9.2.1 20190827 (Red Hat 9.2.1-1)
REM options -cpp -mtune=generic -march=x86-64 -g -O0 -fpre-include=/usr/include/finclude/math-vector-fortran.h
REM seed 30938822 -849038063 2131993244 -1999073101 -706896202 981990260 1920774432 1394737274 -1998667492 690666107 -1661412996 -369734297 -461504304 -396144078 -1288812848 1825692425 -1067901669 493984314 -1188724451 1522257042 -1251990842 -559954019 -2069751117 2020740678 409152400 -165120591 -81458631 354882900 519649501 -255909823 -287915754 -430895211 -1698404518
REM
CELL 1.54180   50.00000   50.00000   50.00000   90.00000   90.00000   90.00000
LATT -1
SFAC C  
C      1  0.5762480000000  0.5757800000000  0.4916430000000 1.0
C      1  0.4477370000000  0.4831010000000  0.4877740000000 1.0
C      1  0.4318230000000  0.4175640000000  0.5155700000000 1.0
C      1  0.5936760000000  0.5016820000000  0.4890760000000 1.0
C      1  0.4403870000000  0.5325920000000  0.5331690000000 1.0
C      1  0.5303720000000  0.5023290000000  0.4633200000000 1.0
C      1  0.4894620000000  0.5420990000000  0.4430290000000 1.0
C      1  0.4717680000000  0.5655830000000  0.5481660000000 1.0
C      1  0.5246550000000  0.4515450000000  0.5566300000000 1.0
C      1  0.5361680000000  0.4192090000000  0.5260290000000 1.0
C      1  0.4348600000000  0.4542250000000  0.4535490000000 1.0
C      1  0.4460680000000  0.5208530000000  0.4326870000000 1.0
C      1  0.4624770000000  0.5496350000000  0.5263420000000 1.0
C      1  0.6085560000000  0.4932060000000  0.5342030000000 1.0
C      1  0.5135350000000  0.5701840000000  0.5795170000000 1.0
C      1  0.5282690000000  0.5504510000000  0.5951030000000 1.0
C      1  0.4249460000000  0.5746270000000  0.4732120000000 1.0
C      1  0.5438760000000  0.5443310000000  0.4791300000000 1.0
C      1  0.4781660000000  0.4223540000000  0.4663080000000 1.0
C      1  0.5691240000000  0.5271050000000  0.5697930000000 1.0
C      1  0.5261250000000  0.4630720000000  0.3514110000000 1.0
C      1  0.5377760000000  0.4380750000000  0.4216730000000 1.0
C      1  0.4298720000000  0.5244350000000  0.4565710000000 1.0
C      1  0.5724910000000  0.4755960000000  0.5594900000000 1.0
C      1  0.4381090000000  0.5941070000000  0.4857300000000 1.0
C      1  0.4698430000000  0.4343890000000  0.4897900000000 1.0
C      1  0.4900070000000  0.4791950000000  0.4755350000000 1.0
C      1  0.5154930000000  0.4733690000000  0.6040950000000 1.0
C      1  0.4676560000000  0.4625080000000  0.4869110000000 1.0
C      1  0.6098210000000  0.5212760000000  0.5386900000000 1.0
C      1  0.5540030000000  0.5017500000000  0.5605040000000 1.0
C      1  0.5098990000000  0.5830190000000  0.4691320000000 1.0
C      1  0.4718040000000  0.4574640000000  0.4051180000000 1.0
C      1  0.4525480000000  0.4624730000000  0.5470350000000 1.0
C      1  0.5308150000000  0.5987930000000  0.5389310000000 1.0
C      1  0.5347370000000  0.4689790000000  0.3275330000000 1.0
C      1  0.4211610000000  0.5505430000000  0.4624660000000 1.0
C      1  0.4094940000000  0.4612030000000  0.5245960000000 1.0
C      1  0.5450090000000  0.4383380000000  0.4699320000000 1.0
C      1  0.5377770000000  0.4823450000000  0.5188620000000 1.0
C      1  0.4854820000000  0.6084180000000  0.5008380000000 1.0
C      1  0.4313120000000  0.5053180000000  0.4782880000000 1.0
C      1  0.4525850000000  0.4775690000000  0.4133040000000 1.0
C      1  0.5169600000000  0.4556090000000  0.5834130000000 1.0
C      1  0.4250060000000  0.4965230000000  0.5604430000000 1.0
C      1  0.4994270000000  0.5234860000000  0.4947160000000 1.0
C      1  0.5280510000000  0.5888630000000  0.5636670000000 1.0
C      1  0.4170060000000  0.5246530000000  0.5184320000000 1.0
C      1  0.5177600000000  0.5281790000000  0.6105860000000 1.0
C      1  0.4594560000000  0.4177040000000  0.5103960000000 1.0
C      1  0.5117360000000  0.5357080000000  0.5401380000000 1.0
C      1  0.5593030000000  0.5947280000000  0.5004240000000 1.0
C      1  0.4899610000000  0.4602400000000  0.3840970000000 1.0
C      1  0.5550390000000  0.5453730000000  0.5862550000000 1.0
C      1  0.4052550000000  0.4753540000000  0.4995000000000 1.0
C      1  0.5170610000000  0.4788420000000  0.4641360000000 1.0
C      1  0.5711390000000  0.5494510000000  0.4833140000000 1.0
C      1  0.5333130000000  0.5985990000000  0.5107960000000 1.0
C      1  0.4108450000000  0.5048140000000  0.4988850000000 1.0
C      1  0.5684120000000  0.4533100000000  0.5402240000000 1.0
C      1  0.4592160000000  0.6063730000000  0.4964280000000 1.0
C      1  0.4738070000000  0.5189900000000  0.4422340000000 1.0
C      1  0.5194050000000  0.5012620000000  0.6007010000000 1.0
C      1  0.5263530000000  0.4338610000000  0.4473550000000 1.0
C      1  0.4462860000000  0.5155440000000  0.5557510000000 1.0
C      1  0.4743190000000  0.4920890000000  0.4527700000000 1.0
C      1  0.4520130000000  0.4755090000000  0.4425450000000 1.0
C      1  0.6007400000000  0.4800580000000  0.5582450000000 1.0
C      1  0.5104160000000  0.5975870000000  0.4934610000000 1.0
C      1  0.5957490000000  0.4826290000000  0.5099650000000 1.0
C      1  0.5179430000000  0.4360250000000  0.5131420000000 1.0
C      1  0.5235250000000  0.5256330000000  0.4782560000000 1.0
C      1  0.5634980000000  0.4474220000000  0.4885840000000 1.0
C      1  0.4109620000000  0.4330460000000  0.5221140000000 1.0
C      1  0.4937590000000  0.4960870000000  0.5005710000000 1.0
C      1  0.5164250000000  0.4626270000000  0.5279110000000 1.0
C      1  0.5474190000000  0.5059530000000  0.5308950000000 1.0
C      1  0.5169290000000  0.4567610000000  0.3769170000000 1.0
C      1  0.4299480000000  0.5127110000000  0.3861600000000 1.0
C      1  0.5479980000000  0.4345670000000  0.5477090000000 1.0
C      1  0.5241920000000  0.5039940000000  0.5723420000000 1.0
C      1  0.4757660000000  0.4009500000000  0.5246190000000 1.0
C      1  0.4926930000000  0.4790760000000  0.5237890000000 1.0
C      1  0.5013550000000  0.5166570000000  0.5585100000000 1.0
C      1  0.5341570000000  0.4466340000000  0.3966810000000 1.0
C      1  0.5930120000000  0.5338200000000  0.5559110000000 1.0
C      1  0.4803680000000  0.5422350000000  0.5050560000000 1.0
C      1  0.4973370000000  0.4294940000000  0.4460360000000 1.0
C      1  0.5882930000000  0.5271950000000  0.4826790000000 1.0
C      1  0.4486470000000  0.4305290000000  0.4452930000000 1.0
C      1  0.4135160000000  0.4602880000000  0.4736540000000 1.0
C      1  0.4999530000000  0.5651440000000  0.4517990000000 1.0
C      1  0.4771530000000  0.4374200000000  0.4249660000000 1.0
C      1  0.4741110000000  0.5056570000000  0.5574010000000 1.0
C      1  0.5350820000000  0.5311610000000  0.5271390000000 1.0
C      1  0.4419980000000  0.5042660000000  0.4090470000000 1.0
C      1  0.4743430000000  0.4799580000000  0.5444850000000 1.0
C      1  0.5775550000000  0.4590190000000  0.5120130000000 1.0
C      1  0.4254550000000  0.4718230000000  0.5460910000000 1.0
C      1  0.4865810000000  0.5678180000000  0.5706690000000 1.0
END
