TITL C-599894-471-325 0.0342344794166732 125000 -608.177330101599 0 0 99 (C1) n - 1
REM
REM in /home/nfs/bkarasulu/CARBON/AIRSS/Generating-Clusters/TERSOFF/Only-C1/FIRE-HFTN
REM
REM
REM
REM
REM
REM ./C.cell (11c1c37f851c82e70ff6c80c92926a4b)
REM AIRSS Version 0.9.1 bugfix July 2018 build 013d7b7c2542+ Fri, 06 Jul 2018 19:26:36 +0100
REM compiler GCC version 9.2.1 20190827 (Red Hat 9.2.1-1)
REM options -cpp -mtune=generic -march=x86-64 -g -O0 -fpre-include=/usr/include/finclude/math-vector-fortran.h
REM seed -224272856 -1136236293 701845862 -1398772781 -1390179754 -1692756896 -1723351682 2129353753 82945306 -1793996676 -1378364922 -1039806968 1099290260 193825221 164288771 366261731 842929662 -1325797544 -38711151 -1950940053 536157924 -97449163 1363063292 1819767705 1837598116 751137698 -1242351064 -3595000 -764010173 -1710369366 1868264914 500860697 -1109133330
REM
CELL 1.54180   50.00000   50.00000   50.00000   90.00000   90.00000   90.00000
LATT -1
SFAC C  
C      1  0.4880990000000  0.5490760000000  0.5226690000000 1.0
C      1  0.5662760000000  0.5537530000000  0.4765460000000 1.0
C      1  0.5431880000000  0.4706970000000  0.5212590000000 1.0
C      1  0.4747950000000  0.4500250000000  0.5763570000000 1.0
C      1  0.6402630000000  0.3745340000000  0.4693260000000 1.0
C      1  0.4580920000000  0.5012350000000  0.5351930000000 1.0
C      1  0.6343860000000  0.3759650000000  0.5412730000000 1.0
C      1  0.5204780000000  0.4890130000000  0.4411360000000 1.0
C      1  0.6302870000000  0.3803950000000  0.5159200000000 1.0
C      1  0.4234060000000  0.5277430000000  0.5851550000000 1.0
C      1  0.4827010000000  0.4393040000000  0.5514590000000 1.0
C      1  0.5568780000000  0.4581830000000  0.4987020000000 1.0
C      1  0.4999380000000  0.5846470000000  0.4732870000000 1.0
C      1  0.4502980000000  0.5614490000000  0.5550640000000 1.0
C      1  0.4911050000000  0.4827070000000  0.4870050000000 1.0
C      1  0.4782960000000  0.5691700000000  0.4638310000000 1.0
C      1  0.5821860000000  0.4202150000000  0.4789090000000 1.0
C      1  0.4868730000000  0.5116270000000  0.4023120000000 1.0
C      1  0.4614770000000  0.5144570000000  0.4177510000000 1.0
C      1  0.5312130000000  0.4532360000000  0.6118880000000 1.0
C      1  0.4197610000000  0.5006940000000  0.5782020000000 1.0
C      1  0.6320670000000  0.5290810000000  0.4614550000000 1.0
C      1  0.5409030000000  0.5608940000000  0.5584050000000 1.0
C      1  0.5434650000000  0.5328380000000  0.5525540000000 1.0
C      1  0.5264120000000  0.4735790000000  0.5963180000000 1.0
C      1  0.4820650000000  0.6058170000000  0.5376900000000 1.0
C      1  0.4357690000000  0.5495880000000  0.5758350000000 1.0
C      1  0.4157900000000  0.5157140000000  0.4488590000000 1.0
C      1  0.4970050000000  0.5080780000000  0.5757970000000 1.0
C      1  0.4492570000000  0.5240160000000  0.5190340000000 1.0
C      1  0.4604190000000  0.5565180000000  0.4820450000000 1.0
C      1  0.5781090000000  0.5308160000000  0.4647120000000 1.0
C      1  0.4776210000000  0.5555030000000  0.5491010000000 1.0
C      1  0.4331730000000  0.5559040000000  0.4720570000000 1.0
C      1  0.4152030000000  0.5675750000000  0.4905760000000 1.0
C      1  0.5072550000000  0.5286630000000  0.4129990000000 1.0
C      1  0.4719950000000  0.5610690000000  0.4369720000000 1.0
C      1  0.4242430000000  0.4707580000000  0.4683880000000 1.0
C      1  0.4348800000000  0.4804780000000  0.5914210000000 1.0
C      1  0.5166980000000  0.5752650000000  0.5631440000000 1.0
C      1  0.4948330000000  0.5344220000000  0.5865900000000 1.0
C      1  0.4666650000000  0.5420300000000  0.5055420000000 1.0
C      1  0.4607040000000  0.4303820000000  0.5353870000000 1.0
C      1  0.5000930000000  0.4743530000000  0.4266670000000 1.0
C      1  0.4869490000000  0.4543890000000  0.4901860000000 1.0
C      1  0.6249850000000  0.3858200000000  0.4890020000000 1.0
C      1  0.5719850000000  0.4239240000000  0.4527390000000 1.0
C      1  0.4364910000000  0.4822550000000  0.5377670000000 1.0
C      1  0.4536240000000  0.5399080000000  0.4304100000000 1.0
C      1  0.5314000000000  0.4961430000000  0.5171360000000 1.0
C      1  0.5226740000000  0.4966120000000  0.5812900000000 1.0
C      1  0.4523720000000  0.4899500000000  0.4316010000000 1.0
C      1  0.5634510000000  0.4307380000000  0.4282820000000 1.0
C      1  0.5056380000000  0.5983100000000  0.5496090000000 1.0
C      1  0.5379740000000  0.4549410000000  0.3884610000000 1.0
C      1  0.4420870000000  0.4483590000000  0.4671460000000 1.0
C      1  0.5321040000000  0.5233580000000  0.5284000000000 1.0
C      1  0.4987310000000  0.4845360000000  0.3988710000000 1.0
C      1  0.4556070000000  0.4633530000000  0.5897740000000 1.0
C      1  0.4218430000000  0.5337080000000  0.5229150000000 1.0
C      1  0.5443010000000  0.5131250000000  0.5729020000000 1.0
C      1  0.5255860000000  0.5860440000000  0.4816030000000 1.0
C      1  0.4561870000000  0.6002190000000  0.5302330000000 1.0
C      1  0.4382040000000  0.5780300000000  0.5347650000000 1.0
C      1  0.3968970000000  0.4963590000000  0.5051340000000 1.0
C      1  0.6060670000000  0.5299680000000  0.4630160000000 1.0
C      1  0.4197470000000  0.5624010000000  0.5182340000000 1.0
C      1  0.5030270000000  0.4401790000000  0.5081520000000 1.0
C      1  0.5536980000000  0.4319750000000  0.5474330000000 1.0
C      1  0.4693160000000  0.4973410000000  0.4790050000000 1.0
C      1  0.5188590000000  0.5546700000000  0.4158260000000 1.0
C      1  0.4474330000000  0.4419340000000  0.5134660000000 1.0
C      1  0.4282400000000  0.4903520000000  0.4478520000000 1.0
C      1  0.5143680000000  0.5276990000000  0.4861570000000 1.0
C      1  0.5136010000000  0.5402740000000  0.5130560000000 1.0
C      1  0.5635980000000  0.5086490000000  0.4545330000000 1.0
C      1  0.4139540000000  0.4955600000000  0.5507210000000 1.0
C      1  0.5338060000000  0.4513540000000  0.5411990000000 1.0
C      1  0.4604680000000  0.4434360000000  0.4879390000000 1.0
C      1  0.4036890000000  0.5121720000000  0.5285010000000 1.0
C      1  0.5528790000000  0.4411140000000  0.4059610000000 1.0
C      1  0.5714050000000  0.4336070000000  0.5017450000000 1.0
C      1  0.4957060000000  0.5572530000000  0.5704720000000 1.0
C      1  0.5497620000000  0.5740870000000  0.4827610000000 1.0
C      1  0.5190980000000  0.5361450000000  0.4595610000000 1.0
C      1  0.5460760000000  0.4860220000000  0.4536450000000 1.0
C      1  0.6038740000000  0.4029200000000  0.4824560000000 1.0
C      1  0.5140490000000  0.5164380000000  0.4392980000000 1.0
C      1  0.5176260000000  0.4716690000000  0.3825050000000 1.0
C      1  0.4300570000000  0.4639730000000  0.5170960000000 1.0
C      1  0.4303500000000  0.5398770000000  0.4484180000000 1.0
C      1  0.5510540000000  0.4666070000000  0.4727790000000 1.0
C      1  0.4732310000000  0.4706270000000  0.4352200000000 1.0
C      1  0.5136680000000  0.4987060000000  0.4937570000000 1.0
C      1  0.5707930000000  0.4231120000000  0.5281550000000 1.0
C      1  0.4141060000000  0.4756050000000  0.4952970000000 1.0
C      1  0.5260440000000  0.5589870000000  0.4423280000000 1.0
C      1  0.4795890000000  0.5011290000000  0.5540590000000 1.0
C      1  0.5070520000000  0.4426150000000  0.5363770000000 1.0
END
