TITL C-599890-3321-542 1.13973826404311e-06 125000 -491.199279638261 0 0 81 (C1) n - 1
REM
REM in /home/nfs/bkarasulu/CARBON/AIRSS/Generating-Clusters/TERSOFF/Only-C1/FIRE-HFTN
REM
REM
REM
REM
REM
REM ./C.cell (11c1c37f851c82e70ff6c80c92926a4b)
REM AIRSS Version 0.9.1 bugfix July 2018 build 013d7b7c2542+ Fri, 06 Jul 2018 19:26:36 +0100
REM compiler GCC version 9.2.1 20190827 (Red Hat 9.2.1-1)
REM options -cpp -mtune=generic -march=x86-64 -g -O0 -fpre-include=/usr/include/finclude/math-vector-fortran.h
REM seed 1451411876 557797376 434126800 142467386 1750425597 -885850160 1441382602 -674907814 834021523 279111334 1853190978 1515384003 -294251635 -2131767898 579103139 1748662861 1229855364 2053717383 -960583604 -783018840 -1794260176 -1615688028 -1667943265 -287749950 -510096379 -1769263645 -959491501 1784678711 484177372 1233084010 -1530558314 2008618322 -939189040
REM
CELL 1.54180   50.00000   50.00000   50.00000   90.00000   90.00000   90.00000
LATT -1
SFAC C  
C      1  0.5036920000000  0.5064360000000  0.5721940000000 1.0
C      1  0.4720790000000  0.4634500000000  0.4265870000000 1.0
C      1  0.4849810000000  0.5366740000000  0.4866180000000 1.0
C      1  0.4214310000000  0.5406040000000  0.5030730000000 1.0
C      1  0.5043480000000  0.5834000000000  0.4874430000000 1.0
C      1  0.4255180000000  0.5201000000000  0.4543110000000 1.0
C      1  0.5827890000000  0.4905920000000  0.5018370000000 1.0
C      1  0.5005450000000  0.4151670000000  0.4801290000000 1.0
C      1  0.5530960000000  0.4556470000000  0.5156840000000 1.0
C      1  0.5057250000000  0.4232940000000  0.4524490000000 1.0
C      1  0.4549940000000  0.5706000000000  0.4937620000000 1.0
C      1  0.5336600000000  0.4227520000000  0.4466390000000 1.0
C      1  0.4752270000000  0.4087750000000  0.4941210000000 1.0
C      1  0.4977680000000  0.4655200000000  0.4622540000000 1.0
C      1  0.4823590000000  0.5651420000000  0.5466200000000 1.0
C      1  0.4673420000000  0.5172560000000  0.4746050000000 1.0
C      1  0.5294010000000  0.5755420000000  0.4978490000000 1.0
C      1  0.4720080000000  0.4166720000000  0.5446080000000 1.0
C      1  0.4824790000000  0.5654250000000  0.4876710000000 1.0
C      1  0.4975430000000  0.5299710000000  0.5105890000000 1.0
C      1  0.4775970000000  0.4642850000000  0.5732700000000 1.0
C      1  0.4749930000000  0.4618700000000  0.5291960000000 1.0
C      1  0.4542520000000  0.5678980000000  0.4440310000000 1.0
C      1  0.4533900000000  0.4986070000000  0.4920870000000 1.0
C      1  0.5281490000000  0.4965800000000  0.4844630000000 1.0
C      1  0.5486640000000  0.4722500000000  0.5407320000000 1.0
C      1  0.5168280000000  0.5268240000000  0.4214520000000 1.0
C      1  0.4911170000000  0.4469940000000  0.4418440000000 1.0
C      1  0.5184480000000  0.5195370000000  0.5518010000000 1.0
C      1  0.5212570000000  0.4128120000000  0.5029550000000 1.0
C      1  0.4961210000000  0.5439570000000  0.4221800000000 1.0
C      1  0.4537640000000  0.5117270000000  0.4486170000000 1.0
C      1  0.5091560000000  0.5684120000000  0.5553720000000 1.0
C      1  0.5927030000000  0.4979380000000  0.4471020000000 1.0
C      1  0.5727680000000  0.4775520000000  0.4443250000000 1.0
C      1  0.4539750000000  0.4714780000000  0.4820130000000 1.0
C      1  0.5829140000000  0.5234350000000  0.4498380000000 1.0
C      1  0.4539180000000  0.4826910000000  0.5658920000000 1.0
C      1  0.5544510000000  0.5491680000000  0.5642170000000 1.0
C      1  0.4811720000000  0.4641900000000  0.4840670000000 1.0
C      1  0.4568650000000  0.5297050000000  0.5659600000000 1.0
C      1  0.4303110000000  0.4609970000000  0.4714030000000 1.0
C      1  0.5397620000000  0.5134810000000  0.4307310000000 1.0
C      1  0.5193720000000  0.4820630000000  0.4625300000000 1.0
C      1  0.5788050000000  0.5168440000000  0.5121770000000 1.0
C      1  0.4227770000000  0.5420530000000  0.4732610000000 1.0
C      1  0.4400290000000  0.5653600000000  0.4685440000000 1.0
C      1  0.5263910000000  0.4628330000000  0.5577310000000 1.0
C      1  0.4162360000000  0.5084690000000  0.5850540000000 1.0
C      1  0.4749700000000  0.5590390000000  0.4291830000000 1.0
C      1  0.5677310000000  0.4585970000000  0.4657690000000 1.0
C      1  0.4795420000000  0.4009450000000  0.5222300000000 1.0
C      1  0.4432740000000  0.5548650000000  0.5173770000000 1.0
C      1  0.5446610000000  0.5192310000000  0.4790120000000 1.0
C      1  0.5785750000000  0.5400790000000  0.5570340000000 1.0
C      1  0.5583100000000  0.5326130000000  0.4998150000000 1.0
C      1  0.4065020000000  0.4992230000000  0.4521480000000 1.0
C      1  0.5177920000000  0.5935500000000  0.5621920000000 1.0
C      1  0.5888900000000  0.5260880000000  0.5366270000000 1.0
C      1  0.5510460000000  0.4869260000000  0.4268480000000 1.0
C      1  0.5494670000000  0.5589180000000  0.5040520000000 1.0
C      1  0.4406150000000  0.5069210000000  0.5731480000000 1.0
C      1  0.4580370000000  0.5497440000000  0.5435850000000 1.0
C      1  0.5013350000000  0.6085220000000  0.4769820000000 1.0
C      1  0.5146150000000  0.4891190000000  0.5091890000000 1.0
C      1  0.4758930000000  0.4436420000000  0.5516480000000 1.0
C      1  0.5543610000000  0.5253620000000  0.4527630000000 1.0
C      1  0.4094560000000  0.4733400000000  0.4594520000000 1.0
C      1  0.4819290000000  0.5232380000000  0.5799980000000 1.0
C      1  0.5347880000000  0.4327490000000  0.5185480000000 1.0
C      1  0.4457620000000  0.4996260000000  0.5187290000000 1.0
C      1  0.5273430000000  0.5461880000000  0.5574860000000 1.0
C      1  0.4547000000000  0.4807490000000  0.5369130000000 1.0
C      1  0.5117170000000  0.5117820000000  0.5257950000000 1.0
C      1  0.5692400000000  0.4664020000000  0.4942300000000 1.0
C      1  0.5555420000000  0.4345440000000  0.4570610000000 1.0
C      1  0.4931690000000  0.4690810000000  0.5091760000000 1.0
C      1  0.5076770000000  0.3934870000000  0.5209020000000 1.0
C      1  0.4618250000000  0.4890650000000  0.4317240000000 1.0
C      1  0.5044430000000  0.4773050000000  0.5721760000000 1.0
C      1  0.5236250000000  0.4360310000000  0.5463220000000 1.0
END
