TITL C-599897-7526-1015 32.7017301551879 125000 -638.152030491605 0 0 104 (C1) n - 1
REM
REM in /home/nfs/bkarasulu/CARBON/AIRSS/Generating-Clusters/TERSOFF/Only-C1/FIRE-HFTN
REM
REM
REM
REM
REM
REM ./C.cell (11c1c37f851c82e70ff6c80c92926a4b)
REM AIRSS Version 0.9.1 bugfix July 2018 build 013d7b7c2542+ Fri, 06 Jul 2018 19:26:36 +0100
REM compiler GCC version 9.2.1 20190827 (Red Hat 9.2.1-1)
REM options -cpp -mtune=generic -march=x86-64 -g -O0 -fpre-include=/usr/include/finclude/math-vector-fortran.h
REM seed -611459372 -1854893728 -1557170073 2037993190 -887931538 1122871064 414803973 -142277549 -1370461629 -325574960 1916339393 2091460281 683088359 -546348057 -1219439170 1496964667 1922701661 721684858 -995883682 1721445854 -1845588369 -1650283489 836729270 -1249630215 238526503 1214402728 381958850 1312668151 -1100399280 -1353313629 -482762656 1375936502 -1550309346
REM
CELL 1.54180   50.00000   50.00000   50.00000   90.00000   90.00000   90.00000
LATT -1
SFAC C  
C      1  0.5229650000000  0.4138320000000  0.4724120000000 1.0
C      1  0.4851680000000  0.5526050000000  0.4867920000000 1.0
C      1  0.4815640000000  0.3918150000000  0.4926270000000 1.0
C      1  0.4006780000000  0.5037680000000  0.5272870000000 1.0
C      1  0.5102090000000  0.4785230000000  0.5243960000000 1.0
C      1  0.5464120000000  0.5148550000000  0.5818190000000 1.0
C      1  0.4566830000000  0.4586820000000  0.5818420000000 1.0
C      1  0.3999500000000  0.4985090000000  0.5751340000000 1.0
C      1  0.4735080000000  0.5054320000000  0.5368980000000 1.0
C      1  0.4437750000000  0.5765790000000  0.4761440000000 1.0
C      1  0.5132050000000  0.4127780000000  0.5210950000000 1.0
C      1  0.4930900000000  0.5859820000000  0.4504640000000 1.0
C      1  0.5075100000000  0.4028080000000  0.4950070000000 1.0
C      1  0.5450320000000  0.4375230000000  0.5442750000000 1.0
C      1  0.5209250000000  0.6100580000000  0.4867890000000 1.0
C      1  0.4456090000000  0.4204140000000  0.5486260000000 1.0
C      1  0.5187100000000  0.5052460000000  0.4212130000000 1.0
C      1  0.5187280000000  0.4579610000000  0.5065920000000 1.0
C      1  0.5490660000000  0.5948410000000  0.5271900000000 1.0
C      1  0.5724450000000  0.4787500000000  0.5253340000000 1.0
C      1  0.5313200000000  0.5371230000000  0.5041500000000 1.0
C      1  0.4568530000000  0.5811740000000  0.5038630000000 1.0
C      1  0.4470140000000  0.4904590000000  0.4948120000000 1.0
C      1  0.5238210000000  0.4964690000000  0.5855740000000 1.0
C      1  0.4078260000000  0.5203780000000  0.4433360000000 1.0
C      1  0.4658500000000  0.4716720000000  0.5056410000000 1.0
C      1  0.5511430000000  0.4573260000000  0.5636100000000 1.0
C      1  0.4990480000000  0.5960050000000  0.4768630000000 1.0
C      1  0.5798200000000  0.4600230000000  0.5043050000000 1.0
C      1  0.4660080000000  0.5742490000000  0.4487580000000 1.0
C      1  0.5643300000000  0.4532260000000  0.4805390000000 1.0
C      1  0.6006810000000  0.5566080000000  0.5001040000000 1.0
C      1  0.5244900000000  0.4786830000000  0.4339840000000 1.0
C      1  0.4016050000000  0.4879920000000  0.5054090000000 1.0
C      1  0.4851560000000  0.4898430000000  0.4541200000000 1.0
C      1  0.6276410000000  0.4351450000000  0.5096150000000 1.0
C      1  0.4582180000000  0.3943740000000  0.5057360000000 1.0
C      1  0.4812540000000  0.4736240000000  0.5849950000000 1.0
C      1  0.5081040000000  0.4167330000000  0.4480050000000 1.0
C      1  0.4659970000000  0.5357890000000  0.5009610000000 1.0
C      1  0.4786450000000  0.5137610000000  0.4650410000000 1.0
C      1  0.5089090000000  0.5361550000000  0.5221810000000 1.0
C      1  0.4808780000000  0.5289000000000  0.5234150000000 1.0
C      1  0.4314660000000  0.4783950000000  0.4223670000000 1.0
C      1  0.4221220000000  0.4780900000000  0.4889840000000 1.0
C      1  0.4155640000000  0.4982670000000  0.4305370000000 1.0
C      1  0.5345250000000  0.5272540000000  0.4321670000000 1.0
C      1  0.5958580000000  0.5496620000000  0.5258580000000 1.0
C      1  0.5777130000000  0.5661040000000  0.4530670000000 1.0
C      1  0.5723600000000  0.5796520000000  0.4070070000000 1.0
C      1  0.4647080000000  0.4453700000000  0.4383240000000 1.0
C      1  0.4999850000000  0.4111770000000  0.5462600000000 1.0
C      1  0.5187970000000  0.5236520000000  0.5461250000000 1.0
C      1  0.5281320000000  0.4975810000000  0.5354950000000 1.0
C      1  0.5555310000000  0.5280900000000  0.5167880000000 1.0
C      1  0.6047690000000  0.4473330000000  0.5068930000000 1.0
C      1  0.5686840000000  0.5450110000000  0.5388540000000 1.0
C      1  0.4848380000000  0.5796100000000  0.4951020000000 1.0
C      1  0.4085500000000  0.5425680000000  0.4581700000000 1.0
C      1  0.4574030000000  0.5143890000000  0.4845790000000 1.0
C      1  0.5071540000000  0.4725770000000  0.4565240000000 1.0
C      1  0.4322290000000  0.4652500000000  0.5930550000000 1.0
C      1  0.5478490000000  0.4291810000000  0.4762580000000 1.0
C      1  0.5640890000000  0.4731610000000  0.4597930000000 1.0
C      1  0.4867590000000  0.4275140000000  0.4352480000000 1.0
C      1  0.5258740000000  0.5308150000000  0.4775530000000 1.0
C      1  0.4549000000000  0.4472360000000  0.4655840000000 1.0
C      1  0.5501760000000  0.4672760000000  0.4357560000000 1.0
C      1  0.4644050000000  0.5531890000000  0.4293000000000 1.0
C      1  0.4918720000000  0.5011500000000  0.5864190000000 1.0
C      1  0.4913190000000  0.5086420000000  0.4113880000000 1.0
C      1  0.5635960000000  0.5011760000000  0.4647800000000 1.0
C      1  0.4538990000000  0.5693790000000  0.5324590000000 1.0
C      1  0.4820590000000  0.4811180000000  0.5265140000000 1.0
C      1  0.4987240000000  0.5339880000000  0.4703050000000 1.0
C      1  0.4547450000000  0.5447840000000  0.5574590000000 1.0
C      1  0.5138680000000  0.5740690000000  0.4345110000000 1.0
C      1  0.5440010000000  0.5206680000000  0.4587800000000 1.0
C      1  0.4764120000000  0.4843300000000  0.4074510000000 1.0
C      1  0.4765190000000  0.5329810000000  0.4156810000000 1.0
C      1  0.4907470000000  0.4306350000000  0.5648340000000 1.0
C      1  0.4199240000000  0.5631070000000  0.4709870000000 1.0
C      1  0.5356170000000  0.5562430000000  0.4286010000000 1.0
C      1  0.5031380000000  0.4540830000000  0.5774080000000 1.0
C      1  0.5741000000000  0.4707610000000  0.5530410000000 1.0
C      1  0.5383860000000  0.6085280000000  0.5069680000000 1.0
C      1  0.5921960000000  0.5623220000000  0.4752870000000 1.0
C      1  0.5038730000000  0.4574250000000  0.4811580000000 1.0
C      1  0.4305300000000  0.5307630000000  0.5575020000000 1.0
C      1  0.5287480000000  0.4676500000000  0.5783410000000 1.0
C      1  0.4750960000000  0.4532050000000  0.4860020000000 1.0
C      1  0.4617670000000  0.4347710000000  0.5664320000000 1.0
C      1  0.4574020000000  0.4671400000000  0.4202560000000 1.0
C      1  0.4451990000000  0.4055510000000  0.5263240000000 1.0
C      1  0.4278090000000  0.4549710000000  0.4728080000000 1.0
C      1  0.4092680000000  0.5127190000000  0.5527050000000 1.0
C      1  0.4818520000000  0.5282790000000  0.5760200000000 1.0
C      1  0.5631520000000  0.5300940000000  0.5659420000000 1.0
C      1  0.5621800000000  0.5675780000000  0.4293950000000 1.0
C      1  0.4099190000000  0.4796180000000  0.5911390000000 1.0
C      1  0.5296910000000  0.4355900000000  0.5209160000000 1.0
C      1  0.5543100000000  0.5000770000000  0.5226730000000 1.0
C      1  0.5068840000000  0.5387800000000  0.5670620000000 1.0
C      1  0.5569180000000  0.5727530000000  0.5398520000000 1.0
END
