TITL C-599895-9959-389 15.472643898784 125000 -438.280909650632 0 0 73 (C1) n - 1
REM
REM in /home/nfs/bkarasulu/CARBON/AIRSS/Generating-Clusters/TERSOFF/Only-C1/FIRE-HFTN
REM
REM
REM
REM
REM
REM ./C.cell (11c1c37f851c82e70ff6c80c92926a4b)
REM AIRSS Version 0.9.1 bugfix July 2018 build 013d7b7c2542+ Fri, 06 Jul 2018 19:26:36 +0100
REM compiler GCC version 9.2.1 20190827 (Red Hat 9.2.1-1)
REM options -cpp -mtune=generic -march=x86-64 -g -O0 -fpre-include=/usr/include/finclude/math-vector-fortran.h
REM seed 457500666 1546301918 389260361 -2087122809 1629647818 -1536948660 -940668919 1021011159 -1447389577 1207663970 -102404875 -374943949 272164906 1615635476 1687772138 -749776722 -541303918 281228418 -151857056 1913185811 -1003949643 1004141524 -652054194 -1591529130 1487668982 -1151549775 -66258968 -759310035 481660192 -403771011 -1349863911 1021110340 1279764477
REM
CELL 1.54180   50.00000   50.00000   50.00000   90.00000   90.00000   90.00000
LATT -1
SFAC C  
C      1  0.5105680000000  0.5782090000000  0.5792130000000 1.0
C      1  0.5158430000000  0.4731900000000  0.5586660000000 1.0
C      1  0.4387660000000  0.5215690000000  0.5405460000000 1.0
C      1  0.4831670000000  0.4909730000000  0.6052580000000 1.0
C      1  0.4834840000000  0.5229940000000  0.4900230000000 1.0
C      1  0.4268640000000  0.4996880000000  0.4228720000000 1.0
C      1  0.4260190000000  0.5531910000000  0.5047650000000 1.0
C      1  0.5493260000000  0.4382400000000  0.4592850000000 1.0
C      1  0.5907920000000  0.4852320000000  0.4213710000000 1.0
C      1  0.4588910000000  0.5294490000000  0.5573790000000 1.0
C      1  0.4956580000000  0.4964440000000  0.4506970000000 1.0
C      1  0.4127680000000  0.5019470000000  0.5780190000000 1.0
C      1  0.5148480000000  0.4193260000000  0.5249080000000 1.0
C      1  0.4833790000000  0.5724050000000  0.4796840000000 1.0
C      1  0.4168930000000  0.5059720000000  0.5500720000000 1.0
C      1  0.4328060000000  0.5703470000000  0.4852050000000 1.0
C      1  0.3996350000000  0.4681170000000  0.5254800000000 1.0
C      1  0.4931600000000  0.5496210000000  0.4951110000000 1.0
C      1  0.5793310000000  0.4708190000000  0.5197500000000 1.0
C      1  0.5709670000000  0.5225140000000  0.3936250000000 1.0
C      1  0.5082080000000  0.5320960000000  0.6027390000000 1.0
C      1  0.3981430000000  0.4947080000000  0.5318170000000 1.0
C      1  0.5104360000000  0.5561630000000  0.5173770000000 1.0
C      1  0.5241110000000  0.5064160000000  0.3830810000000 1.0
C      1  0.5559240000000  0.4550140000000  0.4084290000000 1.0
C      1  0.5113180000000  0.5834200000000  0.5269640000000 1.0
C      1  0.5234270000000  0.4939730000000  0.5765980000000 1.0
C      1  0.5410160000000  0.4958910000000  0.5046830000000 1.0
C      1  0.5735440000000  0.4512660000000  0.4533700000000 1.0
C      1  0.4552480000000  0.4437730000000  0.4922720000000 1.0
C      1  0.5755980000000  0.4623840000000  0.4273250000000 1.0
C      1  0.5139490000000  0.4820850000000  0.3929400000000 1.0
C      1  0.5257870000000  0.4420030000000  0.4712230000000 1.0
C      1  0.4683450000000  0.4576020000000  0.5409940000000 1.0
C      1  0.5329100000000  0.4634890000000  0.5377140000000 1.0
C      1  0.5114570000000  0.5880430000000  0.5544720000000 1.0
C      1  0.4982360000000  0.5964050000000  0.4828030000000 1.0
C      1  0.4284550000000  0.5024280000000  0.4493220000000 1.0
C      1  0.5165250000000  0.4570500000000  0.4929730000000 1.0
C      1  0.4396250000000  0.5300950000000  0.5136030000000 1.0
C      1  0.5883820000000  0.5084270000000  0.4082400000000 1.0
C      1  0.4570250000000  0.4863660000000  0.6037950000000 1.0
C      1  0.4997460000000  0.5027700000000  0.4777570000000 1.0
C      1  0.4562400000000  0.5746570000000  0.4728790000000 1.0
C      1  0.5428060000000  0.5280380000000  0.5493500000000 1.0
C      1  0.4725930000000  0.4550930000000  0.4446050000000 1.0
C      1  0.4328390000000  0.4899700000000  0.5934400000000 1.0
C      1  0.4398590000000  0.4942190000000  0.4001820000000 1.0
C      1  0.4864510000000  0.4766530000000  0.4330830000000 1.0
C      1  0.5464450000000  0.5095930000000  0.5701230000000 1.0
C      1  0.4554030000000  0.5173620000000  0.4934240000000 1.0
C      1  0.4409680000000  0.5051010000000  0.4726350000000 1.0
C      1  0.5203430000000  0.4453980000000  0.5190500000000 1.0
C      1  0.5460940000000  0.5216310000000  0.3838500000000 1.0
C      1  0.4572290000000  0.4493270000000  0.5182410000000 1.0
C      1  0.5531180000000  0.4792640000000  0.5245120000000 1.0
C      1  0.5986420000000  0.4622650000000  0.5011300000000 1.0
C      1  0.3784410000000  0.5105250000000  0.5212070000000 1.0
C      1  0.4642400000000  0.4867490000000  0.3919440000000 1.0
C      1  0.5179310000000  0.4860450000000  0.4914740000000 1.0
C      1  0.4883820000000  0.4806510000000  0.4049400000000 1.0
C      1  0.6501260000000  0.4564370000000  0.5162300000000 1.0
C      1  0.5701170000000  0.5067160000000  0.5833480000000 1.0
C      1  0.5327370000000  0.4615050000000  0.3969090000000 1.0
C      1  0.6252570000000  0.4592360000000  0.5089560000000 1.0
C      1  0.5910140000000  0.4567940000000  0.4745880000000 1.0
C      1  0.5057470000000  0.5048060000000  0.5962950000000 1.0
C      1  0.3894570000000  0.5102030000000  0.5897700000000 1.0
C      1  0.5094340000000  0.5579220000000  0.5964170000000 1.0
C      1  0.5280070000000  0.5385990000000  0.5299960000000 1.0
C      1  0.5097010000000  0.6027690000000  0.5065220000000 1.0
C      1  0.4887250000000  0.4656710000000  0.5561890000000 1.0
C      1  0.4610700000000  0.4446850000000  0.4662920000000 1.0
END
