TITL C-599895-9959-203 1.66160399280049 125000 -1154.52511051096 0 0 190 (C1) n - 1
REM
REM in /home/nfs/bkarasulu/CARBON/AIRSS/Generating-Clusters/TERSOFF/Only-C1/FIRE-HFTN
REM
REM
REM
REM
REM
REM ./C.cell (11c1c37f851c82e70ff6c80c92926a4b)
REM AIRSS Version 0.9.1 bugfix July 2018 build 013d7b7c2542+ Fri, 06 Jul 2018 19:26:36 +0100
REM compiler GCC version 9.2.1 20190827 (Red Hat 9.2.1-1)
REM options -cpp -mtune=generic -march=x86-64 -g -O0 -fpre-include=/usr/include/finclude/math-vector-fortran.h
REM seed 272047542 -1376939967 867108365 -1959974993 -1953689599 -122286315 -120517477 52397312 -1863693446 398849368 -1721806624 -1850135564 -451812809 1831814077 -1446952498 -1752156687 -186047639 1533105085 -65956671 1588745423 -906252099 -1868834333 1208666439 -1853512118 -699248802 -326506167 -1053325436 -1475698897 1494778149 -461028856 2101300467 859416313 133004608
REM
CELL 1.54180   50.00000   50.00000   50.00000   90.00000   90.00000   90.00000
LATT -1
SFAC C  
C      1  0.5710950000000  0.6124730000000  0.5387530000000 1.0
C      1  0.4625330000000  0.5140600000000  0.5585860000000 1.0
C      1  0.5882660000000  0.5696920000000  0.4797450000000 1.0
C      1  0.5505740000000  0.3990610000000  0.3565940000000 1.0
C      1  0.3886440000000  0.5199430000000  0.5549240000000 1.0
C      1  0.4298300000000  0.5602230000000  0.4267280000000 1.0
C      1  0.4635530000000  0.5220170000000  0.4635810000000 1.0
C      1  0.4988300000000  0.4882810000000  0.4446970000000 1.0
C      1  0.3617850000000  0.5085910000000  0.4542430000000 1.0
C      1  0.4819470000000  0.4810700000000  0.5303520000000 1.0
C      1  0.5592150000000  0.4855300000000  0.4817040000000 1.0
C      1  0.4553620000000  0.5715260000000  0.4197580000000 1.0
C      1  0.5409070000000  0.6095380000000  0.5418010000000 1.0
C      1  0.5203210000000  0.5473140000000  0.5564330000000 1.0
C      1  0.6613150000000  0.4562100000000  0.5222350000000 1.0
C      1  0.4448970000000  0.5224100000000  0.4859400000000 1.0
C      1  0.4078120000000  0.5017980000000  0.5138740000000 1.0
C      1  0.6219290000000  0.5250120000000  0.4303930000000 1.0
C      1  0.5467200000000  0.5357710000000  0.4371820000000 1.0
C      1  0.3585800000000  0.5368460000000  0.4478970000000 1.0
C      1  0.4739460000000  0.4396390000000  0.4341280000000 1.0
C      1  0.5373480000000  0.4749180000000  0.5467090000000 1.0
C      1  0.3950140000000  0.4871030000000  0.5944810000000 1.0
C      1  0.5562640000000  0.5842930000000  0.5838670000000 1.0
C      1  0.4895000000000  0.4289130000000  0.4559830000000 1.0
C      1  0.5113350000000  0.5955830000000  0.5861460000000 1.0
C      1  0.4724170000000  0.3496400000000  0.5542720000000 1.0
C      1  0.5242760000000  0.4791640000000  0.4521470000000 1.0
C      1  0.4872540000000  0.4367360000000  0.4839980000000 1.0
C      1  0.4509060000000  0.6037680000000  0.5773000000000 1.0
C      1  0.5753900000000  0.6247130000000  0.5130760000000 1.0
C      1  0.4829100000000  0.5051960000000  0.4030770000000 1.0
C      1  0.5426120000000  0.4318540000000  0.3988510000000 1.0
C      1  0.4556530000000  0.4562080000000  0.5632070000000 1.0
C      1  0.5461260000000  0.5864600000000  0.4485960000000 1.0
C      1  0.4803940000000  0.5710670000000  0.5340510000000 1.0
C      1  0.5123150000000  0.4463980000000  0.5988610000000 1.0
C      1  0.4629450000000  0.4309440000000  0.5729630000000 1.0
C      1  0.5178340000000  0.5280890000000  0.5089000000000 1.0
C      1  0.5854690000000  0.5882140000000  0.5460010000000 1.0
C      1  0.4921870000000  0.6105750000000  0.4754610000000 1.0
C      1  0.5213940000000  0.5438300000000  0.3972670000000 1.0
C      1  0.4938280000000  0.5605090000000  0.5577980000000 1.0
C      1  0.4682700000000  0.4174070000000  0.3722710000000 1.0
C      1  0.4522640000000  0.4468900000000  0.5169360000000 1.0
C      1  0.4794550000000  0.4377000000000  0.3854890000000 1.0
C      1  0.4139070000000  0.3937190000000  0.4111720000000 1.0
C      1  0.5425240000000  0.4835130000000  0.3820030000000 1.0
C      1  0.5877300000000  0.5947130000000  0.4661190000000 1.0
C      1  0.5575390000000  0.5241970000000  0.5793770000000 1.0
C      1  0.5382790000000  0.4202040000000  0.4241170000000 1.0
C      1  0.5633510000000  0.5296910000000  0.4980190000000 1.0
C      1  0.5338280000000  0.4134930000000  0.4765730000000 1.0
C      1  0.6337220000000  0.4957020000000  0.5215130000000 1.0
C      1  0.4801500000000  0.5043160000000  0.6217570000000 1.0
C      1  0.4738730000000  0.4298240000000  0.5096420000000 1.0
C      1  0.4630390000000  0.5975520000000  0.4299940000000 1.0
C      1  0.4142200000000  0.4648590000000  0.5941190000000 1.0
C      1  0.4508280000000  0.4483940000000  0.4479920000000 1.0
C      1  0.3875300000000  0.4951840000000  0.5682840000000 1.0
C      1  0.4665760000000  0.3638870000000  0.5332490000000 1.0
C      1  0.4329580000000  0.4031220000000  0.4783530000000 1.0
C      1  0.5023520000000  0.5081840000000  0.4239910000000 1.0
C      1  0.5064570000000  0.4932750000000  0.6207310000000 1.0
C      1  0.4142080000000  0.4172070000000  0.4596820000000 1.0
C      1  0.5881890000000  0.5080580000000  0.5313340000000 1.0
C      1  0.5226910000000  0.4704310000000  0.6099430000000 1.0
C      1  0.4539190000000  0.6136670000000  0.5510560000000 1.0
C      1  0.4599890000000  0.4649470000000  0.5370210000000 1.0
C      1  0.4595690000000  0.5805670000000  0.5877340000000 1.0
C      1  0.6121340000000  0.5333730000000  0.4982610000000 1.0
C      1  0.4794240000000  0.5077200000000  0.5372340000000 1.0
C      1  0.5501670000000  0.4814980000000  0.6035580000000 1.0
C      1  0.5642930000000  0.5925200000000  0.4259590000000 1.0
C      1  0.4215430000000  0.4747010000000  0.4257190000000 1.0
C      1  0.3990610000000  0.4763680000000  0.5241850000000 1.0
C      1  0.5949100000000  0.5527590000000  0.5803670000000 1.0
C      1  0.4532270000000  0.4710710000000  0.4648570000000 1.0
C      1  0.4060290000000  0.4732310000000  0.4519090000000 1.0
C      1  0.5345100000000  0.4295600000000  0.5310580000000 1.0
C      1  0.5296950000000  0.5557380000000  0.5087170000000 1.0
C      1  0.5828720000000  0.4802160000000  0.5307260000000 1.0
C      1  0.4257130000000  0.5025890000000  0.4917790000000 1.0
C      1  0.5116720000000  0.5720340000000  0.4933480000000 1.0
C      1  0.3945320000000  0.4719840000000  0.5517860000000 1.0
C      1  0.4019910000000  0.5232700000000  0.4391740000000 1.0
C      1  0.6013420000000  0.5601350000000  0.5033820000000 1.0
C      1  0.4443600000000  0.6378250000000  0.5429820000000 1.0
C      1  0.4817100000000  0.5335700000000  0.6237470000000 1.0
C      1  0.4277890000000  0.3915880000000  0.3885810000000 1.0
C      1  0.4891840000000  0.4181520000000  0.5324520000000 1.0
C      1  0.5098220000000  0.6001340000000  0.4953060000000 1.0
C      1  0.4573920000000  0.4879210000000  0.6173170000000 1.0
C      1  0.5467780000000  0.5579240000000  0.4557000000000 1.0
C      1  0.6373410000000  0.4681540000000  0.5166010000000 1.0
C      1  0.5473020000000  0.4147790000000  0.3771220000000 1.0
C      1  0.5154980000000  0.5158750000000  0.4820690000000 1.0
C      1  0.5861510000000  0.5258260000000  0.5833420000000 1.0
C      1  0.4071180000000  0.4498600000000  0.5679700000000 1.0
C      1  0.4381950000000  0.4711440000000  0.6082080000000 1.0
C      1  0.6154340000000  0.4528150000000  0.5060890000000 1.0
C      1  0.4593350000000  0.5332210000000  0.5767680000000 1.0
C      1  0.4283810000000  0.5320160000000  0.4332680000000 1.0
C      1  0.5434000000000  0.5066120000000  0.3657150000000 1.0
C      1  0.5147460000000  0.5752540000000  0.6078040000000 1.0
C      1  0.4092050000000  0.4033570000000  0.4354700000000 1.0
C      1  0.5730460000000  0.5243870000000  0.4342630000000 1.0
C      1  0.4409500000000  0.4009600000000  0.6117930000000 1.0
C      1  0.4944910000000  0.4644470000000  0.4877030000000 1.0
C      1  0.4115410000000  0.4234510000000  0.5548560000000 1.0
C      1  0.5255110000000  0.4575630000000  0.5279440000000 1.0
C      1  0.4735640000000  0.5565230000000  0.4025670000000 1.0
C      1  0.4024750000000  0.4534400000000  0.5090680000000 1.0
C      1  0.5438320000000  0.5725020000000  0.6073760000000 1.0
C      1  0.5130070000000  0.4008800000000  0.4944320000000 1.0
C      1  0.5347100000000  0.4096790000000  0.4484690000000 1.0
C      1  0.4482090000000  0.3998810000000  0.3736120000000 1.0
C      1  0.5994880000000  0.5227910000000  0.4457810000000 1.0
C      1  0.4918570000000  0.5270730000000  0.5218720000000 1.0
C      1  0.5148570000000  0.4111200000000  0.5213680000000 1.0
C      1  0.5522140000000  0.4348900000000  0.4854010000000 1.0
C      1  0.3884950000000  0.4987820000000  0.4493030000000 1.0
C      1  0.5455870000000  0.5106390000000  0.6009030000000 1.0
C      1  0.4728270000000  0.5577370000000  0.5778470000000 1.0
C      1  0.4556510000000  0.6196310000000  0.4142290000000 1.0
C      1  0.4808510000000  0.4796150000000  0.4668760000000 1.0
C      1  0.5749500000000  0.4295940000000  0.5654700000000 1.0
C      1  0.5210160000000  0.4903640000000  0.5618660000000 1.0
C      1  0.4771570000000  0.6033140000000  0.4540840000000 1.0
C      1  0.4903150000000  0.5312990000000  0.4712620000000 1.0
C      1  0.6232240000000  0.4064210000000  0.4796450000000 1.0
C      1  0.5007960000000  0.5634710000000  0.3974630000000 1.0
C      1  0.4484910000000  0.6396810000000  0.3992000000000 1.0
C      1  0.6203170000000  0.4289300000000  0.4924530000000 1.0
C      1  0.4502840000000  0.4162510000000  0.5928620000000 1.0
C      1  0.5765290000000  0.4748720000000  0.5939680000000 1.0
C      1  0.5346270000000  0.5992540000000  0.5683680000000 1.0
C      1  0.5422730000000  0.4596330000000  0.3940030000000 1.0
C      1  0.5671360000000  0.4592530000000  0.4904490000000 1.0
C      1  0.4257230000000  0.4390620000000  0.5148610000000 1.0
C      1  0.4965220000000  0.5565150000000  0.6197700000000 1.0
C      1  0.6008300000000  0.5189010000000  0.4741590000000 1.0
C      1  0.5463530000000  0.5325430000000  0.5536140000000 1.0
C      1  0.4677710000000  0.4809160000000  0.4069480000000 1.0
C      1  0.4494690000000  0.5143760000000  0.4388060000000 1.0
C      1  0.3351740000000  0.5513140000000  0.4506790000000 1.0
C      1  0.4778220000000  0.5513610000000  0.5140770000000 1.0
C      1  0.5815540000000  0.5770850000000  0.5722810000000 1.0
C      1  0.5897860000000  0.5962770000000  0.4370530000000 1.0
C      1  0.6138930000000  0.5155880000000  0.5207280000000 1.0
C      1  0.4766360000000  0.4532030000000  0.4086190000000 1.0
C      1  0.4609920000000  0.3815630000000  0.5124810000000 1.0
C      1  0.5305070000000  0.6119910000000  0.5117530000000 1.0
C      1  0.5638410000000  0.5250440000000  0.5286170000000 1.0
C      1  0.5637180000000  0.5528070000000  0.4785610000000 1.0
C      1  0.5255380000000  0.5152980000000  0.6198250000000 1.0
C      1  0.5761640000000  0.5074560000000  0.4842620000000 1.0
C      1  0.5887790000000  0.4618980000000  0.5095230000000 1.0
C      1  0.5539680000000  0.5662740000000  0.5192830000000 1.0
C      1  0.5334670000000  0.4935750000000  0.4741550000000 1.0
C      1  0.4801560000000  0.3880320000000  0.4898180000000 1.0
C      1  0.4603540000000  0.3947260000000  0.4689700000000 1.0
C      1  0.5540240000000  0.5050780000000  0.3405330000000 1.0
C      1  0.5027740000000  0.4696180000000  0.5143130000000 1.0
C      1  0.5333860000000  0.5312650000000  0.3752250000000 1.0
C      1  0.5499360000000  0.4205510000000  0.5544180000000 1.0
C      1  0.4678850000000  0.5960800000000  0.5340520000000 1.0
C      1  0.4342640000000  0.3951750000000  0.5086710000000 1.0
C      1  0.5648320000000  0.4718500000000  0.5497950000000 1.0
C      1  0.5942190000000  0.4988040000000  0.5917420000000 1.0
C      1  0.3837670000000  0.5470130000000  0.4383390000000 1.0
C      1  0.4213820000000  0.4137500000000  0.5282530000000 1.0
C      1  0.5829840000000  0.5692620000000  0.5247350000000 1.0
C      1  0.5753720000000  0.4573210000000  0.5715170000000 1.0
C      1  0.5324790000000  0.4100760000000  0.5741870000000 1.0
C      1  0.3132130000000  0.5651090000000  0.4532430000000 1.0
C      1  0.5591500000000  0.6039420000000  0.4704130000000 1.0
C      1  0.5963260000000  0.4131100000000  0.5691450000000 1.0
C      1  0.4000100000000  0.4434270000000  0.4623220000000 1.0
C      1  0.3992410000000  0.5234370000000  0.5300840000000 1.0
C      1  0.4017440000000  0.5685250000000  0.4303120000000 1.0
C      1  0.4457320000000  0.4895660000000  0.4231050000000 1.0
C      1  0.5093210000000  0.4247520000000  0.5803330000000 1.0
C      1  0.4881560000000  0.5565410000000  0.4870270000000 1.0
C      1  0.5542630000000  0.6181910000000  0.4945720000000 1.0
C      1  0.4278290000000  0.4814910000000  0.4728140000000 1.0
C      1  0.5236120000000  0.5284410000000  0.4216910000000 1.0
C      1  0.4873280000000  0.4219440000000  0.5616830000000 1.0
C      1  0.3868330000000  0.4457160000000  0.4873850000000 1.0
C      1  0.4695380000000  0.5291540000000  0.3949330000000 1.0
END
