TITL C-599890-3321-399 12.1867815478815 125000 -753.420486237922 0 0 123 (C1) n - 1
REM
REM in /home/nfs/bkarasulu/CARBON/AIRSS/Generating-Clusters/TERSOFF/Only-C1/FIRE-HFTN
REM
REM
REM
REM
REM
REM ./C.cell (11c1c37f851c82e70ff6c80c92926a4b)
REM AIRSS Version 0.9.1 bugfix July 2018 build 013d7b7c2542+ Fri, 06 Jul 2018 19:26:36 +0100
REM compiler GCC version 9.2.1 20190827 (Red Hat 9.2.1-1)
REM options -cpp -mtune=generic -march=x86-64 -g -O0 -fpre-include=/usr/include/finclude/math-vector-fortran.h
REM seed -1245854561 -1256838631 -1913031239 86761322 -92843059 -538013876 -1437442159 -2147102986 675057249 -398844436 1680262842 -969213084 400481687 1673161580 617373194 -855083762 -1008290678 -608079301 1192723447 -1882832620 888620589 940565240 -1181871886 -818039591 -380591039 -1871704607 1409817076 381117425 -1965367419 767223301 947381975 -907529701 -2006963682
REM
CELL 1.54180   50.00000   50.00000   50.00000   90.00000   90.00000   90.00000
LATT -1
SFAC C  
C      1  0.5745880000000  0.5086200000000  0.5790700000000 1.0
C      1  0.5096700000000  0.3981340000000  0.4659710000000 1.0
C      1  0.5182350000000  0.5493270000000  0.4846380000000 1.0
C      1  0.4961880000000  0.4347390000000  0.5469290000000 1.0
C      1  0.5861030000000  0.5350150000000  0.5192270000000 1.0
C      1  0.5207350000000  0.5745800000000  0.4221590000000 1.0
C      1  0.5573680000000  0.4551020000000  0.5724420000000 1.0
C      1  0.4866990000000  0.5960080000000  0.4723800000000 1.0
C      1  0.4838010000000  0.4695060000000  0.4445450000000 1.0
C      1  0.4564350000000  0.5008490000000  0.5749720000000 1.0
C      1  0.5749830000000  0.4561870000000  0.4358680000000 1.0
C      1  0.5664950000000  0.6003790000000  0.4874570000000 1.0
C      1  0.5517800000000  0.5191170000000  0.3862730000000 1.0
C      1  0.5355970000000  0.5101010000000  0.5031890000000 1.0
C      1  0.4277700000000  0.5058160000000  0.5710740000000 1.0
C      1  0.5023180000000  0.4582700000000  0.5323710000000 1.0
C      1  0.5774190000000  0.4965650000000  0.5539350000000 1.0
C      1  0.4055510000000  0.5262660000000  0.6404740000000 1.0
C      1  0.4864410000000  0.5289450000000  0.4482180000000 1.0
C      1  0.4420270000000  0.5766260000000  0.4689340000000 1.0
C      1  0.4124950000000  0.4448290000000  0.5346060000000 1.0
C      1  0.4516700000000  0.4262690000000  0.5315720000000 1.0
C      1  0.3879000000000  0.4570170000000  0.5325570000000 1.0
C      1  0.4888040000000  0.5010520000000  0.3772540000000 1.0
C      1  0.5487180000000  0.4668270000000  0.5270750000000 1.0
C      1  0.5743560000000  0.6231780000000  0.4748670000000 1.0
C      1  0.4753780000000  0.5937370000000  0.4444970000000 1.0
C      1  0.4751170000000  0.5326850000000  0.4940450000000 1.0
C      1  0.5910570000000  0.4929040000000  0.4624890000000 1.0
C      1  0.5903220000000  0.5083650000000  0.5314380000000 1.0
C      1  0.5417210000000  0.5412740000000  0.4711100000000 1.0
C      1  0.5835030000000  0.4214950000000  0.4845480000000 1.0
C      1  0.4225210000000  0.5278880000000  0.6609170000000 1.0
C      1  0.4522500000000  0.4751970000000  0.4847150000000 1.0
C      1  0.4316340000000  0.4362770000000  0.5136760000000 1.0
C      1  0.5236110000000  0.5461600000000  0.4200410000000 1.0
C      1  0.5381640000000  0.4624040000000  0.5920500000000 1.0
C      1  0.4286920000000  0.5052260000000  0.4184660000000 1.0
C      1  0.5227010000000  0.4795310000000  0.5374330000000 1.0
C      1  0.4452860000000  0.4540890000000  0.4213770000000 1.0
C      1  0.5324360000000  0.3971450000000  0.4856420000000 1.0
C      1  0.5670860000000  0.5249250000000  0.6242180000000 1.0
C      1  0.4977200000000  0.4348380000000  0.5754760000000 1.0
C      1  0.4813680000000  0.5801480000000  0.3899590000000 1.0
C      1  0.5483570000000  0.4525060000000  0.4322900000000 1.0
C      1  0.4715170000000  0.5139910000000  0.6635150000000 1.0
C      1  0.4332440000000  0.5324640000000  0.4200280000000 1.0
C      1  0.4416260000000  0.4796620000000  0.3803830000000 1.0
C      1  0.4879060000000  0.5019090000000  0.6464310000000 1.0
C      1  0.4781990000000  0.4175460000000  0.5314810000000 1.0
C      1  0.5174250000000  0.4719600000000  0.4933100000000 1.0
C      1  0.5269970000000  0.5089110000000  0.5321570000000 1.0
C      1  0.5447550000000  0.4417870000000  0.4781340000000 1.0
C      1  0.4686550000000  0.5120470000000  0.5505050000000 1.0
C      1  0.4096550000000  0.5123690000000  0.5909190000000 1.0
C      1  0.4644430000000  0.4892660000000  0.3697450000000 1.0
C      1  0.6051140000000  0.4639320000000  0.5037590000000 1.0
C      1  0.5131190000000  0.4974630000000  0.3636050000000 1.0
C      1  0.4939710000000  0.4892400000000  0.6239120000000 1.0
C      1  0.4332850000000  0.4781790000000  0.4078360000000 1.0
C      1  0.4628270000000  0.5880120000000  0.4879480000000 1.0
C      1  0.4888100000000  0.4023370000000  0.5092760000000 1.0
C      1  0.5660290000000  0.4699440000000  0.5497910000000 1.0
C      1  0.5051390000000  0.5857380000000  0.4012930000000 1.0
C      1  0.4578670000000  0.5714590000000  0.5102120000000 1.0
C      1  0.5103880000000  0.4567300000000  0.5895600000000 1.0
C      1  0.5630850000000  0.5063270000000  0.6047060000000 1.0
C      1  0.4619230000000  0.4904910000000  0.5068620000000 1.0
C      1  0.4473660000000  0.5234790000000  0.6694120000000 1.0
C      1  0.4902990000000  0.5156870000000  0.4013710000000 1.0
C      1  0.5166930000000  0.5949970000000  0.4730870000000 1.0
C      1  0.4350410000000  0.5530890000000  0.4822180000000 1.0
C      1  0.5212560000000  0.5532360000000  0.5140310000000 1.0
C      1  0.4647200000000  0.4761520000000  0.5863880000000 1.0
C      1  0.4236640000000  0.5045640000000  0.5423370000000 1.0
C      1  0.5170980000000  0.3931210000000  0.5102540000000 1.0
C      1  0.4588630000000  0.4139780000000  0.4576270000000 1.0
C      1  0.4528760000000  0.4496580000000  0.5807720000000 1.0
C      1  0.4511340000000  0.5771850000000  0.4418360000000 1.0
C      1  0.5001380000000  0.5298100000000  0.4236630000000 1.0
C      1  0.5386570000000  0.5936630000000  0.4940490000000 1.0
C      1  0.5470230000000  0.4834590000000  0.6087590000000 1.0
C      1  0.4642260000000  0.4849970000000  0.4597490000000 1.0
C      1  0.4370100000000  0.4524390000000  0.4913450000000 1.0
C      1  0.5458640000000  0.5347820000000  0.4071810000000 1.0
C      1  0.5548310000000  0.4156870000000  0.4830800000000 1.0
C      1  0.4736370000000  0.4604000000000  0.4201610000000 1.0
C      1  0.4909200000000  0.4399750000000  0.4807030000000 1.0
C      1  0.4839850000000  0.5344510000000  0.5403670000000 1.0
C      1  0.4707380000000  0.5485330000000  0.5186490000000 1.0
C      1  0.5386570000000  0.5044350000000  0.3680650000000 1.0
C      1  0.4941840000000  0.5421100000000  0.4729200000000 1.0
C      1  0.4618040000000  0.5135090000000  0.4553170000000 1.0
C      1  0.4498750000000  0.5297210000000  0.4771830000000 1.0
C      1  0.3814590000000  0.4827810000000  0.5285610000000 1.0
C      1  0.4973620000000  0.4549130000000  0.5038390000000 1.0
C      1  0.5956360000000  0.4482240000000  0.4817000000000 1.0
C      1  0.5421690000000  0.5724290000000  0.5156950000000 1.0
C      1  0.5021780000000  0.4519980000000  0.4567860000000 1.0
C      1  0.5432850000000  0.4608340000000  0.4990780000000 1.0
C      1  0.5704900000000  0.5625040000000  0.5181310000000 1.0
C      1  0.5125480000000  0.5339830000000  0.5348570000000 1.0
C      1  0.5115280000000  0.4986080000000  0.4917350000000 1.0
C      1  0.4905020000000  0.4753270000000  0.5999570000000 1.0
C      1  0.4351080000000  0.4417640000000  0.5609100000000 1.0
C      1  0.5900420000000  0.4648050000000  0.4582310000000 1.0
C      1  0.4852670000000  0.5054590000000  0.4994270000000 1.0
C      1  0.4446270000000  0.4302440000000  0.4395720000000 1.0
C      1  0.4721580000000  0.4292110000000  0.5870830000000 1.0
C      1  0.4014060000000  0.5201200000000  0.6149370000000 1.0
C      1  0.4495570000000  0.5008730000000  0.5298990000000 1.0
C      1  0.3983090000000  0.5035780000000  0.5308940000000 1.0
C      1  0.5304570000000  0.4481670000000  0.4535730000000 1.0
C      1  0.4582970000000  0.5675670000000  0.3958170000000 1.0
C      1  0.5816090000000  0.5149920000000  0.4767670000000 1.0
C      1  0.6014460000000  0.5615000000000  0.4829020000000 1.0
C      1  0.5841420000000  0.5797050000000  0.4968600000000 1.0
C      1  0.4831880000000  0.4108150000000  0.4781890000000 1.0
C      1  0.5541400000000  0.5186940000000  0.4828220000000 1.0
C      1  0.5971890000000  0.5343590000000  0.4910070000000 1.0
C      1  0.6045710000000  0.4879440000000  0.5164160000000 1.0
C      1  0.5262620000000  0.5885170000000  0.4462330000000 1.0
C      1  0.4454620000000  0.5590860000000  0.4197850000000 1.0
END
