TITL C-599893-4344-898 1.1080557083084 125000 -350.847104646799 0 0 59 (C1) n - 1
REM
REM in /home/nfs/bkarasulu/CARBON/AIRSS/Generating-Clusters/TERSOFF/Only-C1/FIRE-HFTN
REM
REM
REM
REM
REM
REM ./C.cell (11c1c37f851c82e70ff6c80c92926a4b)
REM AIRSS Version 0.9.1 bugfix July 2018 build 013d7b7c2542+ Fri, 06 Jul 2018 19:26:36 +0100
REM compiler GCC version 9.2.1 20190827 (Red Hat 9.2.1-1)
REM options -cpp -mtune=generic -march=x86-64 -g -O0 -fpre-include=/usr/include/finclude/math-vector-fortran.h
REM seed -473679077 837595248 134184554 507505792 2026874868 -599455170 1840334703 423586720 754167937 113890749 -1034023297 -1530428390 -1152302257 -730218216 -676630507 424205730 -1139403373 890182829 -1428630263 -638956857 -448738678 -21621427 -550721415 -1609469291 287437588 -729510146 1845704528 -1920290833 499612197 -1908776954 -938331274 -175443648 -230309691
REM
CELL 1.54180   50.00000   50.00000   50.00000   90.00000   90.00000   90.00000
LATT -1
SFAC C  
C      1  0.5898630000000  0.4494270000000  0.4941000000000 1.0
C      1  0.5279950000000  0.4283740000000  0.4746470000000 1.0
C      1  0.5708710000000  0.5105200000000  0.4593670000000 1.0
C      1  0.5101780000000  0.5111780000000  0.5436950000000 1.0
C      1  0.5719000000000  0.5276060000000  0.4799230000000 1.0
C      1  0.6046050000000  0.4355960000000  0.4128390000000 1.0
C      1  0.4422890000000  0.4734000000000  0.4751440000000 1.0
C      1  0.5261950000000  0.5577550000000  0.4235170000000 1.0
C      1  0.5047070000000  0.5315190000000  0.4998640000000 1.0
C      1  0.5498280000000  0.4914870000000  0.4180590000000 1.0
C      1  0.4964700000000  0.5577920000000  0.4906830000000 1.0
C      1  0.5192930000000  0.5736370000000  0.5505650000000 1.0
C      1  0.4385990000000  0.5016670000000  0.5436720000000 1.0
C      1  0.4252640000000  0.4321940000000  0.4453350000000 1.0
C      1  0.4957410000000  0.4913320000000  0.4182350000000 1.0
C      1  0.5907090000000  0.4486050000000  0.4306370000000 1.0
C      1  0.5759230000000  0.5067500000000  0.3732560000000 1.0
C      1  0.5221800000000  0.5374610000000  0.4393780000000 1.0
C      1  0.4400830000000  0.5161230000000  0.4945000000000 1.0
C      1  0.4538770000000  0.5247440000000  0.5509510000000 1.0
C      1  0.4950180000000  0.5263780000000  0.5259260000000 1.0
C      1  0.5179460000000  0.5181290000000  0.4572050000000 1.0
C      1  0.5536530000000  0.5607400000000  0.5168510000000 1.0
C      1  0.5152370000000  0.5854320000000  0.5967910000000 1.0
C      1  0.4411920000000  0.4947470000000  0.5159290000000 1.0
C      1  0.5116230000000  0.5783450000000  0.5025850000000 1.0
C      1  0.5295990000000  0.5736420000000  0.5242530000000 1.0
C      1  0.3785760000000  0.4463280000000  0.6131750000000 1.0
C      1  0.5630090000000  0.4993780000000  0.3946560000000 1.0
C      1  0.4677800000000  0.5342850000000  0.5283100000000 1.0
C      1  0.5220510000000  0.4865610000000  0.4169730000000 1.0
C      1  0.4080850000000  0.4737070000000  0.5787000000000 1.0
C      1  0.5422920000000  0.4740170000000  0.5274550000000 1.0
C      1  0.5666930000000  0.5443930000000  0.5000920000000 1.0
C      1  0.4681770000000  0.5581910000000  0.4870740000000 1.0
C      1  0.5108160000000  0.5099220000000  0.4828500000000 1.0
C      1  0.3933300000000  0.4600180000000  0.5959370000000 1.0
C      1  0.4538350000000  0.5090170000000  0.4446000000000 1.0
C      1  0.4629480000000  0.5372780000000  0.5744430000000 1.0
C      1  0.3638180000000  0.4326350000000  0.6304170000000 1.0
C      1  0.5427920000000  0.4497430000000  0.4832530000000 1.0
C      1  0.5676880000000  0.4642320000000  0.5343480000000 1.0
C      1  0.5315660000000  0.4688640000000  0.5012050000000 1.0
C      1  0.3493030000000  0.4191670000000  0.6473750000000 1.0
C      1  0.4830740000000  0.4723370000000  0.5009370000000 1.0
C      1  0.4332070000000  0.4520780000000  0.4601880000000 1.0
C      1  0.4414310000000  0.5020810000000  0.4687650000000 1.0
C      1  0.5754410000000  0.4631650000000  0.4488770000000 1.0
C      1  0.5652100000000  0.4889080000000  0.4420890000000 1.0
C      1  0.5058400000000  0.5710520000000  0.5753750000000 1.0
C      1  0.4539200000000  0.5394950000000  0.5031410000000 1.0
C      1  0.5884820000000  0.4543260000000  0.5205280000000 1.0
C      1  0.4228560000000  0.4873810000000  0.5614860000000 1.0
C      1  0.5281250000000  0.4914500000000  0.5442100000000 1.0
C      1  0.4548770000000  0.4730910000000  0.5015100000000 1.0
C      1  0.4832270000000  0.5544150000000  0.5792890000000 1.0
C      1  0.5698420000000  0.4528490000000  0.4745800000000 1.0
C      1  0.5081470000000  0.4832390000000  0.4932570000000 1.0
C      1  0.4727260000000  0.5018180000000  0.4269990000000 1.0
END
