TITL C-599892-9790-566 -467.951614865429 125000 -775.167004570114 0 0 126 (C1) n - 1
REM
REM in /home/nfs/bkarasulu/CARBON/AIRSS/Generating-Clusters/TERSOFF/Only-C1/FIRE-HFTN
REM
REM
REM
REM
REM
REM ./C.cell (11c1c37f851c82e70ff6c80c92926a4b)
REM AIRSS Version 0.9.1 bugfix July 2018 build 013d7b7c2542+ Fri, 06 Jul 2018 19:26:36 +0100
REM compiler GCC version 9.2.1 20190827 (Red Hat 9.2.1-1)
REM options -cpp -mtune=generic -march=x86-64 -g -O0 -fpre-include=/usr/include/finclude/math-vector-fortran.h
REM seed 24868325 1351859985 -455893395 595985870 805405329 -1293541158 730354063 2075426001 629250068 -1412899642 2079347017 -1938428795 591399636 816975641 -352548377 -925528924 1428296427 -630618032 43985628 1947208612 -14391074 763945142 1468102338 1963150567 -1733453763 -1716857287 1416507867 332282388 1982847565 -489155266 1346604184 1310648026 -837048837
REM
CELL 1.54180   50.00000   50.00000   50.00000   90.00000   90.00000   90.00000
LATT -1
SFAC C  
C      1  0.5367700000000  0.5610790000000  0.4204580000000 1.0
C      1  0.5075520000000  0.4519470000000  0.5124790000000 1.0
C      1  0.4634500000000  0.4034920000000  0.5326310000000 1.0
C      1  0.5036700000000  0.4931340000000  0.4413300000000 1.0
C      1  0.5597830000000  0.4754510000000  0.5118360000000 1.0
C      1  0.5195690000000  0.4289450000000  0.4473000000000 1.0
C      1  0.5489430000000  0.4140820000000  0.5102480000000 1.0
C      1  0.5076630000000  0.5452690000000  0.4714520000000 1.0
C      1  0.3988430000000  0.5005600000000  0.4868390000000 1.0
C      1  0.5408290000000  0.5223200000000  0.5015380000000 1.0
C      1  0.4749300000000  0.4210590000000  0.4838160000000 1.0
C      1  0.4759880000000  0.5042850000000  0.5815970000000 1.0
C      1  0.5041020000000  0.4226140000000  0.4241190000000 1.0
C      1  0.4385580000000  0.5765490000000  0.5586610000000 1.0
C      1  0.4852850000000  0.4353730000000  0.4085870000000 1.0
C      1  0.5115510000000  0.5693300000000  0.4092880000000 1.0
C      1  0.5233700000000  0.4624830000000  0.7002220000000 1.0
C      1  0.4537370000000  0.5449060000000  0.4815620000000 1.0
C      1  0.4151590000000  0.4876100000000  0.5066420000000 1.0
C      1  0.4193010000000  0.5355730000000  0.4311030000000 1.0
C      1  0.5494230000000  0.4129740000000  0.4832600000000 1.0
C      1  0.4438750000000  0.4900170000000  0.5022420000000 1.0
C      1  0.4525000000000  0.5722900000000  0.4766010000000 1.0
C      1  0.5290980000000  0.4355950000000  0.5562090000000 1.0
C      1  0.5538520000000  0.5088870000000  0.5650480000000 1.0
C      1  0.5346770000000  0.5755560000000  0.5331910000000 1.0
C      1  0.5337200000000  0.4648000000000  0.5048120000000 1.0
C      1  0.4353230000000  0.4774560000000  0.4292380000000 1.0
C      1  0.4953370000000  0.4395520000000  0.4889240000000 1.0
C      1  0.4865980000000  0.5829180000000  0.5845720000000 1.0
C      1  0.5335400000000  0.4691600000000  0.6206250000000 1.0
C      1  0.5087730000000  0.5683040000000  0.5742730000000 1.0
C      1  0.5384820000000  0.4571010000000  0.5734400000000 1.0
C      1  0.4645250000000  0.5527190000000  0.4224500000000 1.0
C      1  0.4817290000000  0.5279640000000  0.5701410000000 1.0
C      1  0.4364130000000  0.4736990000000  0.4573670000000 1.0
C      1  0.4905780000000  0.5984010000000  0.6069000000000 1.0
C      1  0.5292310000000  0.4921350000000  0.6038760000000 1.0
C      1  0.4892150000000  0.5893540000000  0.4609430000000 1.0
C      1  0.4320260000000  0.4277090000000  0.4234980000000 1.0
C      1  0.5574240000000  0.5883530000000  0.4807970000000 1.0
C      1  0.5414810000000  0.4489260000000  0.6017460000000 1.0
C      1  0.4256600000000  0.5619940000000  0.5398320000000 1.0
C      1  0.4296020000000  0.5370070000000  0.4952290000000 1.0
C      1  0.4439540000000  0.4129410000000  0.4424620000000 1.0
C      1  0.4892070000000  0.5810510000000  0.5116000000000 1.0
C      1  0.5781690000000  0.4639940000000  0.4425370000000 1.0
C      1  0.6008940000000  0.4824800000000  0.4906800000000 1.0
C      1  0.4408850000000  0.4066660000000  0.5185000000000 1.0
C      1  0.5748890000000  0.5109500000000  0.4572560000000 1.0
C      1  0.5632390000000  0.5722930000000  0.5278010000000 1.0
C      1  0.4453470000000  0.5289830000000  0.4211660000000 1.0
C      1  0.5063120000000  0.4739570000000  0.4174960000000 1.0
C      1  0.4741640000000  0.5880110000000  0.4870080000000 1.0
C      1  0.4868680000000  0.4091380000000  0.5444210000000 1.0
C      1  0.5999490000000  0.5428180000000  0.5470570000000 1.0
C      1  0.4681460000000  0.4880270000000  0.3972370000000 1.0
C      1  0.4947900000000  0.4707650000000  0.5307900000000 1.0
C      1  0.4239610000000  0.4186610000000  0.5014110000000 1.0
C      1  0.4557460000000  0.4963480000000  0.5268590000000 1.0
C      1  0.4076870000000  0.5265730000000  0.4799360000000 1.0
C      1  0.4047210000000  0.5356830000000  0.4535340000000 1.0
C      1  0.5145940000000  0.4757970000000  0.4624060000000 1.0
C      1  0.5141570000000  0.5176280000000  0.4263230000000 1.0
C      1  0.5496810000000  0.5374900000000  0.5585890000000 1.0
C      1  0.3675750000000  0.4782360000000  0.4540430000000 1.0
C      1  0.5269670000000  0.4647230000000  0.6740560000000 1.0
C      1  0.5863360000000  0.4648370000000  0.5064400000000 1.0
C      1  0.4878340000000  0.4365720000000  0.5830060000000 1.0
C      1  0.5847440000000  0.5056010000000  0.4835720000000 1.0
C      1  0.5516910000000  0.5279240000000  0.4542140000000 1.0
C      1  0.5818350000000  0.4916360000000  0.4373720000000 1.0
C      1  0.5074120000000  0.4484180000000  0.4640980000000 1.0
C      1  0.4593360000000  0.4111800000000  0.4643000000000 1.0
C      1  0.4128690000000  0.4427620000000  0.4925600000000 1.0
C      1  0.6212950000000  0.5588520000000  0.5417450000000 1.0
C      1  0.4605570000000  0.5823990000000  0.5730700000000 1.0
C      1  0.4641560000000  0.5734910000000  0.4420580000000 1.0
C      1  0.4281740000000  0.4533290000000  0.4158800000000 1.0
C      1  0.5023760000000  0.4253450000000  0.5616480000000 1.0
C      1  0.4482730000000  0.4991560000000  0.4152110000000 1.0
C      1  0.5375840000000  0.5336630000000  0.4303420000000 1.0
C      1  0.4683640000000  0.4560890000000  0.5879380000000 1.0
C      1  0.4760390000000  0.5050210000000  0.4624910000000 1.0
C      1  0.4127450000000  0.4601240000000  0.4684890000000 1.0
C      1  0.5119230000000  0.5739460000000  0.4666220000000 1.0
C      1  0.5560080000000  0.5790940000000  0.4304140000000 1.0
C      1  0.5180220000000  0.5850710000000  0.5120480000000 1.0
C      1  0.4738820000000  0.5383110000000  0.5451530000000 1.0
C      1  0.5077280000000  0.4967860000000  0.5297950000000 1.0
C      1  0.4315610000000  0.4507420000000  0.6269310000000 1.0
C      1  0.4821600000000  0.4637120000000  0.4056380000000 1.0
C      1  0.5304880000000  0.4669490000000  0.6478980000000 1.0
C      1  0.4493040000000  0.4531210000000  0.6079930000000 1.0
C      1  0.5438070000000  0.4230890000000  0.5352150000000 1.0
C      1  0.5871760000000  0.4990870000000  0.4108020000000 1.0
C      1  0.4851240000000  0.5077530000000  0.3861840000000 1.0
C      1  0.5294750000000  0.4723080000000  0.4016490000000 1.0
C      1  0.5374190000000  0.4879240000000  0.5759380000000 1.0
C      1  0.4807790000000  0.5614530000000  0.5303440000000 1.0
C      1  0.5463150000000  0.4234720000000  0.4567970000000 1.0
C      1  0.5732000000000  0.4932080000000  0.3886210000000 1.0
C      1  0.5295270000000  0.5859250000000  0.4856600000000 1.0
C      1  0.4690450000000  0.4789060000000  0.5712670000000 1.0
C      1  0.5729520000000  0.5511820000000  0.5446110000000 1.0
C      1  0.5636070000000  0.5051790000000  0.5042360000000 1.0
C      1  0.4889890000000  0.5518800000000  0.4070820000000 1.0
C      1  0.5178410000000  0.5066020000000  0.5060230000000 1.0
C      1  0.4981710000000  0.5254450000000  0.4035200000000 1.0
C      1  0.4314720000000  0.5394990000000  0.5235400000000 1.0
C      1  0.5283930000000  0.5585690000000  0.5564670000000 1.0
C      1  0.5496160000000  0.4807250000000  0.3864040000000 1.0
C      1  0.5225520000000  0.4854530000000  0.4869240000000 1.0
C      1  0.4071870000000  0.4614840000000  0.5137790000000 1.0
C      1  0.4795660000000  0.5318540000000  0.4728040000000 1.0
C      1  0.5730770000000  0.5829090000000  0.5036690000000 1.0
C      1  0.3905540000000  0.4797900000000  0.4683450000000 1.0
C      1  0.4526210000000  0.5233920000000  0.5339930000000 1.0
C      1  0.6025660000000  0.5162010000000  0.5558760000000 1.0
C      1  0.4696260000000  0.4769720000000  0.5425600000000 1.0
C      1  0.4543250000000  0.4886000000000  0.4744950000000 1.0
C      1  0.5350350000000  0.5345150000000  0.4766210000000 1.0
C      1  0.5652530000000  0.5886300000000  0.4538120000000 1.0
C      1  0.5813630000000  0.5013040000000  0.5631560000000 1.0
C      1  0.5198180000000  0.4602780000000  0.7259540000000 1.0
C      1  0.5668110000000  0.4401360000000  0.4466410000000 1.0
END
