TITL C-599896-8500-1454 0.00877655726849425 125000 -1162.51884148486 0 0 192 (C1) n - 1
REM
REM in /home/nfs/bkarasulu/CARBON/AIRSS/Generating-Clusters/TERSOFF/Only-C1/FIRE-HFTN
REM
REM
REM
REM
REM
REM ./C.cell (11c1c37f851c82e70ff6c80c92926a4b)
REM AIRSS Version 0.9.1 bugfix July 2018 build 013d7b7c2542+ Fri, 06 Jul 2018 19:26:36 +0100
REM compiler GCC version 9.2.1 20190827 (Red Hat 9.2.1-1)
REM options -cpp -mtune=generic -march=x86-64 -g -O0 -fpre-include=/usr/include/finclude/math-vector-fortran.h
REM seed -1893357474 -1403121706 -1584514053 853706190 -1959053173 -269535597 -1585870681 -1237798459 1529649144 -880446838 -529073722 -551535331 -277852312 -687688633 307208871 807567663 -1450790114 -1826005337 1998824896 -664923980 -1620079105 690646104 -1527653849 1809351540 -116242562 984938476 555114172 621622474 -99719529 1311852069 834239924 -1074497893 -1744670199
REM
CELL 1.54180   50.00000   50.00000   50.00000   90.00000   90.00000   90.00000
LATT -1
SFAC C  
C      1  0.4012380000000  0.5936660000000  0.4351560000000 1.0
C      1  0.5545880000000  0.6604510000000  0.5254330000000 1.0
C      1  0.5104950000000  0.5519980000000  0.6097450000000 1.0
C      1  0.5219300000000  0.3927110000000  0.5438450000000 1.0
C      1  0.4537670000000  0.5866800000000  0.5624330000000 1.0
C      1  0.5383500000000  0.5341370000000  0.4962240000000 1.0
C      1  0.5425920000000  0.5314530000000  0.4220880000000 1.0
C      1  0.5472050000000  0.5086700000000  0.4879800000000 1.0
C      1  0.5969320000000  0.4586410000000  0.4653270000000 1.0
C      1  0.6029810000000  0.4855600000000  0.4586270000000 1.0
C      1  0.5540710000000  0.5788710000000  0.4922510000000 1.0
C      1  0.4534940000000  0.4570740000000  0.5378990000000 1.0
C      1  0.3847200000000  0.4363010000000  0.5270070000000 1.0
C      1  0.6138770000000  0.5053510000000  0.4765410000000 1.0
C      1  0.5357970000000  0.4978780000000  0.4642150000000 1.0
C      1  0.4727690000000  0.4691570000000  0.4895550000000 1.0
C      1  0.5742040000000  0.4498430000000  0.5610610000000 1.0
C      1  0.4155650000000  0.5748690000000  0.4488820000000 1.0
C      1  0.5289850000000  0.5926590000000  0.4948990000000 1.0
C      1  0.5301660000000  0.4522440000000  0.6215410000000 1.0
C      1  0.4313660000000  0.4829330000000  0.5713500000000 1.0
C      1  0.5922910000000  0.4979040000000  0.4346190000000 1.0
C      1  0.4433420000000  0.5705320000000  0.4453400000000 1.0
C      1  0.6336890000000  0.5702820000000  0.4980990000000 1.0
C      1  0.5213370000000  0.6258150000000  0.5283580000000 1.0
C      1  0.4868430000000  0.6113220000000  0.4656130000000 1.0
C      1  0.5848130000000  0.4626660000000  0.5820960000000 1.0
C      1  0.5333050000000  0.5560750000000  0.4312980000000 1.0
C      1  0.5462810000000  0.5816940000000  0.4313290000000 1.0
C      1  0.4049040000000  0.5252440000000  0.5229040000000 1.0
C      1  0.4548860000000  0.5527250000000  0.6044940000000 1.0
C      1  0.5733050000000  0.4143870000000  0.4808970000000 1.0
C      1  0.5661690000000  0.4917510000000  0.4250350000000 1.0
C      1  0.5302530000000  0.4476580000000  0.4002560000000 1.0
C      1  0.5520120000000  0.3984080000000  0.4710560000000 1.0
C      1  0.4298610000000  0.5532950000000  0.5937460000000 1.0
C      1  0.4539600000000  0.5442510000000  0.4486470000000 1.0
C      1  0.4766620000000  0.6048580000000  0.5095100000000 1.0
C      1  0.5492350000000  0.4303350000000  0.4139650000000 1.0
C      1  0.5819010000000  0.5131800000000  0.5755460000000 1.0
C      1  0.6164550000000  0.5446890000000  0.5502060000000 1.0
C      1  0.3886090000000  0.4405190000000  0.4794370000000 1.0
C      1  0.5903370000000  0.5714440000000  0.4516540000000 1.0
C      1  0.3536520000000  0.4776160000000  0.4526820000000 1.0
C      1  0.4448850000000  0.4402490000000  0.4612540000000 1.0
C      1  0.6406870000000  0.5565770000000  0.5544500000000 1.0
C      1  0.4040500000000  0.5669510000000  0.4950350000000 1.0
C      1  0.5451350000000  0.6365970000000  0.5148440000000 1.0
C      1  0.3577390000000  0.4712000000000  0.4985990000000 1.0
C      1  0.4812280000000  0.4484490000000  0.3825730000000 1.0
C      1  0.4975260000000  0.5400330000000  0.4669450000000 1.0
C      1  0.4255080000000  0.4033740000000  0.4055800000000 1.0
C      1  0.4831550000000  0.4762150000000  0.3758850000000 1.0
C      1  0.5206620000000  0.5303570000000  0.6245620000000 1.0
C      1  0.3899430000000  0.5085360000000  0.5068760000000 1.0
C      1  0.5492670000000  0.4455230000000  0.5179970000000 1.0
C      1  0.5332170000000  0.6181020000000  0.4548030000000 1.0
C      1  0.5190740000000  0.5807470000000  0.5451990000000 1.0
C      1  0.5141310000000  0.4290570000000  0.6166360000000 1.0
C      1  0.5122270000000  0.5189660000000  0.5394860000000 1.0
C      1  0.5687450000000  0.4008770000000  0.5338000000000 1.0
C      1  0.4698120000000  0.4147050000000  0.4241720000000 1.0
C      1  0.4608820000000  0.4181260000000  0.5828610000000 1.0
C      1  0.4378400000000  0.5047430000000  0.3875030000000 1.0
C      1  0.5099970000000  0.3534140000000  0.4513460000000 1.0
C      1  0.4491280000000  0.4167860000000  0.4045040000000 1.0
C      1  0.4026110000000  0.5562160000000  0.4672710000000 1.0
C      1  0.4796270000000  0.4041990000000  0.5693250000000 1.0
C      1  0.4535780000000  0.5610060000000  0.5216020000000 1.0
C      1  0.4310880000000  0.5187520000000  0.5328250000000 1.0
C      1  0.4409670000000  0.4275310000000  0.5060060000000 1.0
C      1  0.4610650000000  0.4807580000000  0.4266530000000 1.0
C      1  0.5019830000000  0.4139150000000  0.5527610000000 1.0
C      1  0.4911690000000  0.6262560000000  0.5231980000000 1.0
C      1  0.5153410000000  0.3589460000000  0.5035060000000 1.0
C      1  0.4910380000000  0.4228310000000  0.5258500000000 1.0
C      1  0.4817410000000  0.5542680000000  0.6086520000000 1.0
C      1  0.5325420000000  0.5154630000000  0.6429830000000 1.0
C      1  0.4051470000000  0.5216560000000  0.4269070000000 1.0
C      1  0.4944730000000  0.6126320000000  0.5676550000000 1.0
C      1  0.5995090000000  0.5258800000000  0.4325960000000 1.0
C      1  0.5089610000000  0.5531680000000  0.4451780000000 1.0
C      1  0.4483710000000  0.4658460000000  0.5892160000000 1.0
C      1  0.4012210000000  0.5538790000000  0.5218640000000 1.0
C      1  0.6123710000000  0.4807760000000  0.5263810000000 1.0
C      1  0.5021170000000  0.3339630000000  0.4331200000000 1.0
C      1  0.4510390000000  0.5292530000000  0.4253530000000 1.0
C      1  0.4110050000000  0.4228080000000  0.5648460000000 1.0
C      1  0.4125100000000  0.5654080000000  0.5465400000000 1.0
C      1  0.5158350000000  0.4779160000000  0.4654840000000 1.0
C      1  0.5433520000000  0.4826850000000  0.5449040000000 1.0
C      1  0.5423270000000  0.4027310000000  0.4103060000000 1.0
C      1  0.3817350000000  0.4823060000000  0.4603980000000 1.0
C      1  0.6356380000000  0.4729700000000  0.5351720000000 1.0
C      1  0.5181920000000  0.5791400000000  0.5173660000000 1.0
C      1  0.5209230000000  0.6086800000000  0.5532090000000 1.0
C      1  0.5103410000000  0.4848830000000  0.3764180000000 1.0
C      1  0.5165680000000  0.3937270000000  0.4187420000000 1.0
C      1  0.5282260000000  0.4087530000000  0.6009740000000 1.0
C      1  0.5475900000000  0.5207900000000  0.3957700000000 1.0
C      1  0.4676530000000  0.4271960000000  0.4495150000000 1.0
C      1  0.5692380000000  0.5900160000000  0.4488740000000 1.0
C      1  0.5804590000000  0.4357510000000  0.4615550000000 1.0
C      1  0.3970520000000  0.4449900000000  0.5523530000000 1.0
C      1  0.4743830000000  0.4445330000000  0.5288700000000 1.0
C      1  0.5121440000000  0.3480640000000  0.4791390000000 1.0
C      1  0.5143550000000  0.3830630000000  0.5175790000000 1.0
C      1  0.5052630000000  0.4120130000000  0.4781520000000 1.0
C      1  0.3778400000000  0.4916320000000  0.4889890000000 1.0
C      1  0.4851360000000  0.4906830000000  0.4275090000000 1.0
C      1  0.4978390000000  0.5649280000000  0.5594300000000 1.0
C      1  0.5461600000000  0.5079440000000  0.4400070000000 1.0
C      1  0.5845030000000  0.4886400000000  0.5886140000000 1.0
C      1  0.5249620000000  0.3967700000000  0.4647540000000 1.0
C      1  0.5028380000000  0.6078950000000  0.4187680000000 1.0
C      1  0.5607200000000  0.6264600000000  0.4918350000000 1.0
C      1  0.5163340000000  0.3799710000000  0.4434920000000 1.0
C      1  0.3987400000000  0.4587910000000  0.4597170000000 1.0
C      1  0.4278470000000  0.4070710000000  0.5498970000000 1.0
C      1  0.4391380000000  0.5742410000000  0.5421220000000 1.0
C      1  0.5110000000000  0.5419940000000  0.4914440000000 1.0
C      1  0.4860540000000  0.4366750000000  0.6154360000000 1.0
C      1  0.5560190000000  0.4581620000000  0.5414550000000 1.0
C      1  0.4751160000000  0.5755350000000  0.5117730000000 1.0
C      1  0.4634070000000  0.4422430000000  0.5979500000000 1.0
C      1  0.4777180000000  0.4949460000000  0.5027790000000 1.0
C      1  0.5483700000000  0.5663880000000  0.5774500000000 1.0
C      1  0.5607790000000  0.6148390000000  0.4647820000000 1.0
C      1  0.4109660000000  0.5572120000000  0.5742210000000 1.0
C      1  0.5582130000000  0.5232190000000  0.5628950000000 1.0
C      1  0.6053680000000  0.5274790000000  0.5693790000000 1.0
C      1  0.4918940000000  0.4328870000000  0.4644870000000 1.0
C      1  0.3973480000000  0.5327800000000  0.4509860000000 1.0
C      1  0.6145400000000  0.5506520000000  0.5012220000000 1.0
C      1  0.3970600000000  0.4114640000000  0.5176230000000 1.0
C      1  0.4505280000000  0.4482540000000  0.4885300000000 1.0
C      1  0.5597910000000  0.5509180000000  0.5562900000000 1.0
C      1  0.4291890000000  0.5185240000000  0.4111450000000 1.0
C      1  0.4410490000000  0.5083120000000  0.5583620000000 1.0
C      1  0.5494910000000  0.3988790000000  0.5834370000000 1.0
C      1  0.4808560000000  0.5869800000000  0.5695850000000 1.0
C      1  0.4810180000000  0.6317820000000  0.5502520000000 1.0
C      1  0.5665080000000  0.4356570000000  0.4359920000000 1.0
C      1  0.3393820000000  0.4706440000000  0.4757810000000 1.0
C      1  0.4949940000000  0.4603230000000  0.4727270000000 1.0
C      1  0.4699340000000  0.5333670000000  0.4695580000000 1.0
C      1  0.4074840000000  0.4702530000000  0.5607480000000 1.0
C      1  0.6008510000000  0.5453350000000  0.4535790000000 1.0
C      1  0.4591520000000  0.5901020000000  0.4333070000000 1.0
C      1  0.5134390000000  0.4394870000000  0.5636950000000 1.0
C      1  0.4370100000000  0.6088380000000  0.4848690000000 1.0
C      1  0.4254080000000  0.4097590000000  0.5214810000000 1.0
C      1  0.4594930000000  0.4924920000000  0.3761620000000 1.0
C      1  0.4947700000000  0.4978830000000  0.5268990000000 1.0
C      1  0.5482860000000  0.3962580000000  0.5541850000000 1.0
C      1  0.5389570000000  0.4467530000000  0.4942930000000 1.0
C      1  0.5304850000000  0.5707340000000  0.5996660000000 1.0
C      1  0.5006290000000  0.4058180000000  0.5052350000000 1.0
C      1  0.5374390000000  0.5093260000000  0.5497990000000 1.0
C      1  0.5570350000000  0.5540450000000  0.5055660000000 1.0
C      1  0.4696980000000  0.5144450000000  0.5625730000000 1.0
C      1  0.5451900000000  0.5031720000000  0.6621830000000 1.0
C      1  0.4818990000000  0.6053660000000  0.4380740000000 1.0
C      1  0.5541620000000  0.4922370000000  0.3978590000000 1.0
C      1  0.4358410000000  0.4723520000000  0.4295220000000 1.0
C      1  0.5301060000000  0.4698640000000  0.6008400000000 1.0
C      1  0.4945960000000  0.3163700000000  0.4154250000000 1.0
C      1  0.4960730000000  0.4126660000000  0.4126150000000 1.0
C      1  0.4244970000000  0.4553340000000  0.4484430000000 1.0
C      1  0.5724130000000  0.5539520000000  0.5298180000000 1.0
C      1  0.5146540000000  0.6089610000000  0.4747190000000 1.0
C      1  0.5336590000000  0.4742000000000  0.3897980000000 1.0
C      1  0.3739110000000  0.4480880000000  0.5036400000000 1.0
C      1  0.4816400000000  0.4896250000000  0.5511840000000 1.0
C      1  0.5782940000000  0.4087410000000  0.5091050000000 1.0
C      1  0.4925040000000  0.5358360000000  0.5564420000000 1.0
C      1  0.4652260000000  0.6123450000000  0.4845600000000 1.0
C      1  0.5288050000000  0.6050980000000  0.4294040000000 1.0
C      1  0.5684270000000  0.4964800000000  0.5013670000000 1.0
C      1  0.4502630000000  0.5330320000000  0.5158240000000 1.0
C      1  0.4981070000000  0.6128790000000  0.3923970000000 1.0
C      1  0.5729430000000  0.3910060000000  0.5957080000000 1.0
C      1  0.5895420000000  0.4893380000000  0.5158780000000 1.0
C      1  0.4636570000000  0.5192950000000  0.4943860000000 1.0
C      1  0.5034490000000  0.4360340000000  0.3968280000000 1.0
C      1  0.5194090000000  0.4617170000000  0.5773810000000 1.0
C      1  0.6098600000000  0.5337300000000  0.4786200000000 1.0
C      1  0.5335250000000  0.5942770000000  0.6137310000000 1.0
C      1  0.4567290000000  0.4342320000000  0.3834500000000 1.0
C      1  0.4992000000000  0.5612030000000  0.5080970000000 1.0
C      1  0.6009210000000  0.5497520000000  0.5266300000000 1.0
C      1  0.4169410000000  0.5931520000000  0.4945170000000 1.0
END
