TITL C-599894-471-345 15.7624667041642 125000 -177.625384249896 0 0 31 (C1) n - 1
REM
REM in /home/nfs/bkarasulu/CARBON/AIRSS/Generating-Clusters/TERSOFF/Only-C1/FIRE-HFTN
REM
REM
REM
REM
REM
REM ./C.cell (11c1c37f851c82e70ff6c80c92926a4b)
REM AIRSS Version 0.9.1 bugfix July 2018 build 013d7b7c2542+ Fri, 06 Jul 2018 19:26:36 +0100
REM compiler GCC version 9.2.1 20190827 (Red Hat 9.2.1-1)
REM options -cpp -mtune=generic -march=x86-64 -g -O0 -fpre-include=/usr/include/finclude/math-vector-fortran.h
REM seed -305658676 1380639166 625308484 -193428177 1009462557 1114159384 -2012833338 1347931412 -223868992 -827758964 -1800734291 588941393 1925479780 429865321 1853705153 855922471 -335277462 698869159 -1884011784 -1863189183 403455216 -2015141140 -1483211250 -1663374376 -112718681 -1116520693 1546445363 -489533776 876767671 1013085088 668986464 1346889812 -2108474528
REM
CELL 1.54180   50.00000   50.00000   50.00000   90.00000   90.00000   90.00000
LATT -1
SFAC C  
C      1  0.4992570000000  0.5303230000000  0.4873710000000 1.0
C      1  0.5107860000000  0.4598670000000  0.4632890000000 1.0
C      1  0.5378350000000  0.5666710000000  0.4083500000000 1.0
C      1  0.4710910000000  0.4865540000000  0.5825260000000 1.0
C      1  0.4676030000000  0.4935680000000  0.5110870000000 1.0
C      1  0.5049530000000  0.4401380000000  0.4799990000000 1.0
C      1  0.4693660000000  0.5127590000000  0.5861270000000 1.0
C      1  0.5172010000000  0.5102560000000  0.4450330000000 1.0
C      1  0.4676970000000  0.5386470000000  0.5887030000000 1.0
C      1  0.4963610000000  0.5542010000000  0.4449900000000 1.0
C      1  0.4723620000000  0.3643180000000  0.5719480000000 1.0
C      1  0.5221010000000  0.6125820000000  0.4109080000000 1.0
C      1  0.4895520000000  0.4163980000000  0.5243410000000 1.0
C      1  0.5144750000000  0.5897540000000  0.4700020000000 1.0
C      1  0.4806600000000  0.4137110000000  0.5506920000000 1.0
C      1  0.5091270000000  0.5794800000000  0.4443260000000 1.0
C      1  0.5214830000000  0.5439070000000  0.5290030000000 1.0
C      1  0.5026780000000  0.5304750000000  0.4590210000000 1.0
C      1  0.4683850000000  0.3406530000000  0.5821360000000 1.0
C      1  0.4731190000000  0.4609060000000  0.5761710000000 1.0
C      1  0.5301990000000  0.5368190000000  0.5525180000000 1.0
C      1  0.4764040000000  0.3883690000000  0.5615940000000 1.0
C      1  0.5119930000000  0.5503200000000  0.5035540000000 1.0
C      1  0.5230870000000  0.5872060000000  0.4208190000000 1.0
C      1  0.5147620000000  0.4833180000000  0.4516210000000 1.0
C      1  0.4760600000000  0.4366030000000  0.5660430000000 1.0
C      1  0.5340700000000  0.5188510000000  0.4242060000000 1.0
C      1  0.4976800000000  0.4253720000000  0.5007750000000 1.0
C      1  0.5418350000000  0.5402800000000  0.4102380000000 1.0
C      1  0.4825950000000  0.5113350000000  0.4993090000000 1.0
C      1  0.5152230000000  0.5763580000000  0.4932970000000 1.0
END
