TITL C-599893-4344-444 0.434898182609299 125000 -123.3939196819 0 0 23 (C1) n - 1
REM
REM in /home/nfs/bkarasulu/CARBON/AIRSS/Generating-Clusters/TERSOFF/Only-C1/FIRE-HFTN
REM
REM
REM
REM
REM
REM ./C.cell (11c1c37f851c82e70ff6c80c92926a4b)
REM AIRSS Version 0.9.1 bugfix July 2018 build 013d7b7c2542+ Fri, 06 Jul 2018 19:26:36 +0100
REM compiler GCC version 9.2.1 20190827 (Red Hat 9.2.1-1)
REM options -cpp -mtune=generic -march=x86-64 -g -O0 -fpre-include=/usr/include/finclude/math-vector-fortran.h
REM seed -171523229 -1423039497 -1516678766 -1346581964 -1615705652 -2090938932 697238683 -112998228 -265922736 -2095723535 833309297 -1032565586 1626090906 403622319 1498179436 1611859129 -1291628228 -1450927504 -614799523 1063367978 -195301611 -859679696 603956069 2027010936 -72974031 -780863567 1910637838 -2129669279 -661614765 1611036580 104192219 -1207869781 2027358239
REM
CELL 1.54180   50.00000   50.00000   50.00000   90.00000   90.00000   90.00000
LATT -1
SFAC C  
C      1  0.5253200000000  0.5267410000000  0.5109600000000 1.0
C      1  0.4286780000000  0.5274520000000  0.5378810000000 1.0
C      1  0.5397130000000  0.3905150000000  0.4233420000000 1.0
C      1  0.4204760000000  0.5101630000000  0.5582380000000 1.0
C      1  0.4556230000000  0.5346680000000  0.5356590000000 1.0
C      1  0.5157710000000  0.5750620000000  0.5480050000000 1.0
C      1  0.5551740000000  0.4551310000000  0.4518010000000 1.0
C      1  0.5500130000000  0.5202590000000  0.4995920000000 1.0
C      1  0.5775730000000  0.4092740000000  0.4005670000000 1.0
C      1  0.4132120000000  0.4941440000000  0.5774690000000 1.0
C      1  0.5720140000000  0.5357220000000  0.5045890000000 1.0
C      1  0.4571930000000  0.5755790000000  0.5643840000000 1.0
C      1  0.4760440000000  0.5211790000000  0.5204650000000 1.0
C      1  0.5567510000000  0.4337920000000  0.4361870000000 1.0
C      1  0.4099630000000  0.5375740000000  0.5197730000000 1.0
C      1  0.5519660000000  0.4977950000000  0.4830600000000 1.0
C      1  0.5582310000000  0.4111730000000  0.4198150000000 1.0
C      1  0.4690110000000  0.5572820000000  0.5481150000000 1.0
C      1  0.5535760000000  0.4764690000000  0.4674320000000 1.0
C      1  0.5015820000000  0.5342730000000  0.5228160000000 1.0
C      1  0.4969400000000  0.5570270000000  0.5403000000000 1.0
C      1  0.5223780000000  0.3713570000000  0.4267640000000 1.0
C      1  0.3927980000000  0.5473680000000  0.5027840000000 1.0
END
