TITL C-599893-4344-41 77594.1358370954 125000 -1026.35345909229 0 0 169 (C1) n - 1
REM
REM in /home/nfs/bkarasulu/CARBON/AIRSS/Generating-Clusters/TERSOFF/Only-C1/FIRE-HFTN
REM
REM
REM
REM
REM
REM ./C.cell (11c1c37f851c82e70ff6c80c92926a4b)
REM AIRSS Version 0.9.1 bugfix July 2018 build 013d7b7c2542+ Fri, 06 Jul 2018 19:26:36 +0100
REM compiler GCC version 9.2.1 20190827 (Red Hat 9.2.1-1)
REM options -cpp -mtune=generic -march=x86-64 -g -O0 -fpre-include=/usr/include/finclude/math-vector-fortran.h
REM seed 1088823486 -796674520 606440692 -509597360 -1661940370 71014258 116934072 1910615776 -1041050488 560211229 -2084932563 1003112521 305923698 -1111550582 1221837934 -928013287 -824516878 1061071377 1545628443 -1838233363 -435753216 -1718900162 -502025558 -290966300 -649239946 -2119443838 -1138577530 1615590731 2003173019 579658864 -1899968806 286293326 2060859414
REM
CELL 1.54180   50.00000   50.00000   50.00000   90.00000   90.00000   90.00000
LATT -1
SFAC C  
C      1  0.5398220000000  0.4363590000000  0.4098640000000 1.0
C      1  0.5274040000000  0.5842250000000  0.5446230000000 1.0
C      1  0.4384240000000  0.5136320000000  0.4983050000000 1.0
C      1  0.4805800000000  0.6025470000000  0.5484420000000 1.0
C      1  0.5270480000000  0.4559740000000  0.3913350000000 1.0
C      1  0.4601770000000  0.4037900000000  0.4780030000000 1.0
C      1  0.6058880000000  0.5602210000000  0.5840460000000 1.0
C      1  0.4516930000000  0.5886430000000  0.4178760000000 1.0
C      1  0.4685110000000  0.4347670000000  0.5212580000000 1.0
C      1  0.4992460000000  0.4643070000000  0.3966270000000 1.0
C      1  0.5353120000000  0.4790850000000  0.3750590000000 1.0
C      1  0.4703090000000  0.5086530000000  0.5617010000000 1.0
C      1  0.5057200000000  0.5241390000000  0.6119650000000 1.0
C      1  0.5019220000000  0.5231560000000  0.5037070000000 1.0
C      1  0.5686610000000  0.5406620000000  0.4868890000000 1.0
C      1  0.6033970000000  0.4279700000000  0.4663300000000 1.0
C      1  0.4757310000000  0.4800750000000  0.6074550000000 1.0
C      1  0.4898550000000  0.4270720000000  0.5048430000000 1.0
C      1  0.5324280000000  0.4074190000000  0.4503180000000 1.0
C      1  0.5029370000000  0.5876560000000  0.5601970000000 1.0
C      1  0.5828430000000  0.4830420000000  0.4239090000000 1.0
C      1  0.5102450000000  0.4171650000000  0.5791200000000 1.0
C      1  0.4292430000000  0.5079960000000  0.5243460000000 1.0
C      1  0.5351990000000  0.5926720000000  0.5185490000000 1.0
C      1  0.4898910000000  0.6023100000000  0.4968730000000 1.0
C      1  0.4661990000000  0.4994550000000  0.4022980000000 1.0
C      1  0.4064030000000  0.5867660000000  0.4818920000000 1.0
C      1  0.4752230000000  0.4951620000000  0.4708130000000 1.0
C      1  0.4223240000000  0.4259110000000  0.5073020000000 1.0
C      1  0.4651150000000  0.4372820000000  0.5476050000000 1.0
C      1  0.4493530000000  0.4225710000000  0.4261780000000 1.0
C      1  0.3927880000000  0.4642560000000  0.4879930000000 1.0
C      1  0.4743230000000  0.4296330000000  0.4153410000000 1.0
C      1  0.5474140000000  0.4677850000000  0.4831930000000 1.0
C      1  0.5540680000000  0.4510810000000  0.5082060000000 1.0
C      1  0.5328660000000  0.5206620000000  0.6195450000000 1.0
C      1  0.4465720000000  0.6885390000000  0.4470160000000 1.0
C      1  0.5615330000000  0.5177040000000  0.5295510000000 1.0
C      1  0.4035310000000  0.4486190000000  0.5115420000000 1.0
C      1  0.4558980000000  0.5159260000000  0.4235280000000 1.0
C      1  0.4731250000000  0.3891700000000  0.5527660000000 1.0
C      1  0.4361430000000  0.4447140000000  0.4384720000000 1.0
C      1  0.5509990000000  0.4937720000000  0.5331470000000 1.0
C      1  0.4283450000000  0.4068640000000  0.5283480000000 1.0
C      1  0.5134580000000  0.4979030000000  0.5078010000000 1.0
C      1  0.3831990000000  0.4915460000000  0.4939110000000 1.0
C      1  0.5261150000000  0.5558300000000  0.4533000000000 1.0
C      1  0.5194580000000  0.5393680000000  0.5444400000000 1.0
C      1  0.5447050000000  0.4645660000000  0.5348940000000 1.0
C      1  0.5452330000000  0.5881840000000  0.4920830000000 1.0
C      1  0.6147240000000  0.4915380000000  0.6111850000000 1.0
C      1  0.5865640000000  0.4549430000000  0.4286370000000 1.0
C      1  0.3572100000000  0.5133230000000  0.4599590000000 1.0
C      1  0.4362470000000  0.4715450000000  0.4815730000000 1.0
C      1  0.5756210000000  0.4724930000000  0.4744780000000 1.0
C      1  0.4122330000000  0.5227230000000  0.5672840000000 1.0
C      1  0.4985240000000  0.4813650000000  0.5294700000000 1.0
C      1  0.5125760000000  0.4265630000000  0.5225530000000 1.0
C      1  0.4840920000000  0.6112390000000  0.5217010000000 1.0
C      1  0.4703370000000  0.5477890000000  0.5334620000000 1.0
C      1  0.5311750000000  0.5280380000000  0.3911040000000 1.0
C      1  0.4581120000000  0.5330310000000  0.5558460000000 1.0
C      1  0.4428890000000  0.6394990000000  0.4285600000000 1.0
C      1  0.5236990000000  0.4581730000000  0.6005310000000 1.0
C      1  0.4574240000000  0.4536310000000  0.5690740000000 1.0
C      1  0.6126400000000  0.5056940000000  0.5421000000000 1.0
C      1  0.6155450000000  0.5002530000000  0.4733830000000 1.0
C      1  0.3920340000000  0.5650810000000  0.5208080000000 1.0
C      1  0.5215780000000  0.4184340000000  0.4250910000000 1.0
C      1  0.4930050000000  0.5616020000000  0.4162150000000 1.0
C      1  0.4086510000000  0.4730980000000  0.5607350000000 1.0
C      1  0.4878510000000  0.4088830000000  0.4830390000000 1.0
C      1  0.5367020000000  0.3795220000000  0.5193490000000 1.0
C      1  0.4631960000000  0.5630500000000  0.4206180000000 1.0
C      1  0.4439310000000  0.6643980000000  0.4375600000000 1.0
C      1  0.4558830000000  0.5638860000000  0.5143740000000 1.0
C      1  0.4927260000000  0.5810950000000  0.4803390000000 1.0
C      1  0.4450740000000  0.5414290000000  0.4296430000000 1.0
C      1  0.5387870000000  0.4128740000000  0.5687730000000 1.0
C      1  0.5770150000000  0.4214500000000  0.4757640000000 1.0
C      1  0.4325860000000  0.4659100000000  0.4196510000000 1.0
C      1  0.4819380000000  0.5549470000000  0.4762960000000 1.0
C      1  0.5386230000000  0.5589610000000  0.5504070000000 1.0
C      1  0.5635220000000  0.4371660000000  0.4280160000000 1.0
C      1  0.5107060000000  0.5483000000000  0.3969330000000 1.0
C      1  0.4684810000000  0.4815430000000  0.5189080000000 1.0
C      1  0.6000780000000  0.4998930000000  0.5894540000000 1.0
C      1  0.5631790000000  0.3829830000000  0.5213710000000 1.0
C      1  0.4104890000000  0.5227280000000  0.5387390000000 1.0
C      1  0.4423720000000  0.5583840000000  0.5920220000000 1.0
C      1  0.4315200000000  0.5903580000000  0.5444190000000 1.0
C      1  0.5155670000000  0.3967930000000  0.5259880000000 1.0
C      1  0.5012200000000  0.4511800000000  0.4520990000000 1.0
C      1  0.5963620000000  0.5089880000000  0.4288000000000 1.0
C      1  0.5553990000000  0.5200240000000  0.4056050000000 1.0
C      1  0.3947870000000  0.4666230000000  0.5355450000000 1.0
C      1  0.6060300000000  0.4881400000000  0.5636730000000 1.0
C      1  0.4908950000000  0.5278610000000  0.4792220000000 1.0
C      1  0.6054030000000  0.5186830000000  0.4550660000000 1.0
C      1  0.5894490000000  0.5423870000000  0.4631080000000 1.0
C      1  0.3938430000000  0.5626120000000  0.4914880000000 1.0
C      1  0.4913370000000  0.3829260000000  0.5321550000000 1.0
C      1  0.5830560000000  0.5455350000000  0.5805810000000 1.0
C      1  0.4626920000000  0.5028930000000  0.4469680000000 1.0
C      1  0.3793310000000  0.4888540000000  0.5227480000000 1.0
C      1  0.4628410000000  0.5761950000000  0.5836240000000 1.0
C      1  0.5659700000000  0.4178890000000  0.5545090000000 1.0
C      1  0.4270480000000  0.5984430000000  0.4952410000000 1.0
C      1  0.4453970000000  0.4488190000000  0.4665640000000 1.0
C      1  0.3957790000000  0.5392370000000  0.4726260000000 1.0
C      1  0.5714490000000  0.4092680000000  0.5269350000000 1.0
C      1  0.5115680000000  0.5047800000000  0.4284140000000 1.0
C      1  0.5516650000000  0.5151220000000  0.4816740000000 1.0
C      1  0.5093380000000  0.5725200000000  0.4374650000000 1.0
C      1  0.5453390000000  0.5628320000000  0.4778350000000 1.0
C      1  0.5784060000000  0.4433740000000  0.5617240000000 1.0
C      1  0.5555350000000  0.4916260000000  0.4175950000000 1.0
C      1  0.4409780000000  0.5875790000000  0.5174160000000 1.0
C      1  0.4224080000000  0.5387480000000  0.4579860000000 1.0
C      1  0.4048230000000  0.5780420000000  0.5420890000000 1.0
C      1  0.5156300000000  0.4550080000000  0.5333570000000 1.0
C      1  0.5796420000000  0.5315950000000  0.4167650000000 1.0
C      1  0.4550870000000  0.5944000000000  0.5615860000000 1.0
C      1  0.5118800000000  0.4010260000000  0.4693180000000 1.0
C      1  0.4564070000000  0.5547830000000  0.4879370000000 1.0
C      1  0.5266140000000  0.4645900000000  0.4545950000000 1.0
C      1  0.4972050000000  0.4307400000000  0.4319680000000 1.0
C      1  0.4459080000000  0.4867130000000  0.5365260000000 1.0
C      1  0.4369460000000  0.4705600000000  0.5582860000000 1.0
C      1  0.4023300000000  0.4970470000000  0.5762210000000 1.0
C      1  0.4739310000000  0.4522810000000  0.3980630000000 1.0
C      1  0.5023600000000  0.5400020000000  0.5880750000000 1.0
C      1  0.5371440000000  0.4937990000000  0.4932790000000 1.0
C      1  0.4791110000000  0.4610860000000  0.4633550000000 1.0
C      1  0.6004410000000  0.4796950000000  0.4815920000000 1.0
C      1  0.4964090000000  0.5000500000000  0.5565100000000 1.0
C      1  0.4393270000000  0.5348210000000  0.4805230000000 1.0
C      1  0.4919470000000  0.5677890000000  0.5812930000000 1.0
C      1  0.6017300000000  0.4596110000000  0.5610520000000 1.0
C      1  0.4459510000000  0.3938720000000  0.5447030000000 1.0
C      1  0.4869360000000  0.5030920000000  0.6160910000000 1.0
C      1  0.5441320000000  0.4677890000000  0.5863570000000 1.0
C      1  0.4534800000000  0.4728050000000  0.4012830000000 1.0
C      1  0.4765310000000  0.4570260000000  0.5904530000000 1.0
C      1  0.5810200000000  0.5526670000000  0.4367830000000 1.0
C      1  0.4881250000000  0.3991070000000  0.5750220000000 1.0
C      1  0.5620300000000  0.5554370000000  0.5649350000000 1.0
C      1  0.5240190000000  0.5277260000000  0.4434370000000 1.0
C      1  0.4401650000000  0.4239730000000  0.4831570000000 1.0
C      1  0.5475920000000  0.5166670000000  0.4545180000000 1.0
C      1  0.5581240000000  0.5173100000000  0.6110440000000 1.0
C      1  0.5561530000000  0.6098080000000  0.4789450000000 1.0
C      1  0.5801260000000  0.5201790000000  0.5934550000000 1.0
C      1  0.4980540000000  0.5405690000000  0.5255250000000 1.0
C      1  0.5693310000000  0.4270060000000  0.5038910000000 1.0
C      1  0.5585210000000  0.4198770000000  0.4530240000000 1.0
C      1  0.4356950000000  0.5379510000000  0.5739370000000 1.0
C      1  0.5321260000000  0.4828040000000  0.4329500000000 1.0
C      1  0.4566170000000  0.4909270000000  0.4923900000000 1.0
C      1  0.6061120000000  0.5251150000000  0.5240330000000 1.0
C      1  0.5194210000000  0.5036390000000  0.3806650000000 1.0
C      1  0.3796710000000  0.5146460000000  0.4762420000000 1.0
C      1  0.5803380000000  0.5328620000000  0.5141560000000 1.0
C      1  0.5117580000000  0.5230330000000  0.5656640000000 1.0
C      1  0.4971210000000  0.4957840000000  0.4010740000000 1.0
C      1  0.5021220000000  0.4425980000000  0.5911530000000 1.0
C      1  0.4451960000000  0.6140870000000  0.4213990000000 1.0
C      1  0.5553910000000  0.4598830000000  0.5622650000000 1.0
C      1  0.6077620000000  0.4435770000000  0.4441780000000 1.0
END
