TITL C-599893-4344-699 0.453234852974255 125000 -93.8553162823008 0 0 17 (Cs) n - 1
REM
REM in /home/nfs/bkarasulu/CARBON/AIRSS/Generating-Clusters/TERSOFF/Only-C1/FIRE-HFTN
REM
REM
REM
REM
REM
REM ./C.cell (11c1c37f851c82e70ff6c80c92926a4b)
REM AIRSS Version 0.9.1 bugfix July 2018 build 013d7b7c2542+ Fri, 06 Jul 2018 19:26:36 +0100
REM compiler GCC version 9.2.1 20190827 (Red Hat 9.2.1-1)
REM options -cpp -mtune=generic -march=x86-64 -g -O0 -fpre-include=/usr/include/finclude/math-vector-fortran.h
REM seed -1503651838 -1220281779 -1637668584 973153559 2063653153 -561040408 401617112 -581065751 1906650987 953961907 -479735634 1359140328 -1304599607 1487807902 -1953234250 704370638 -880809245 -1728649630 1507937058 377358780 855271375 -671725271 712679140 691910700 1614210136 -738509358 -1640804376 536644263 -1513015456 -1220856698 1990034213 -1502230001 849099758
REM
CELL 1.54180   50.00000   50.00000   50.00000   90.00000   90.00000   90.00000
LATT -1
SFAC C  
C      1  0.4442190000000  0.4252110000000  0.4157650000000 1.0
C      1  0.4939640000000  0.4648850000000  0.4747020000000 1.0
C      1  0.5043500000000  0.4062030000000  0.4329120000000 1.0
C      1  0.5179410000000  0.5705480000000  0.5509650000000 1.0
C      1  0.4432960000000  0.3974500000000  0.4545180000000 1.0
C      1  0.4565570000000  0.4146290000000  0.4378090000000 1.0
C      1  0.5131460000000  0.5494150000000  0.5357120000000 1.0
C      1  0.5323270000000  0.6339520000000  0.5967270000000 1.0
C      1  0.5370440000000  0.6547420000000  0.6117320000000 1.0
C      1  0.4987600000000  0.4860170000000  0.4899540000000 1.0
C      1  0.5083510000000  0.5282830000000  0.5204590000000 1.0
C      1  0.5275310000000  0.6128140000000  0.5814700000000 1.0
C      1  0.5235490000000  0.3916630000000  0.4229530000000 1.0
C      1  0.5227360000000  0.5916810000000  0.5662170000000 1.0
C      1  0.5035560000000  0.5071500000000  0.5052060000000 1.0
C      1  0.4835530000000  0.4215880000000  0.4434380000000 1.0
C      1  0.4891210000000  0.4437710000000  0.4594610000000 1.0
END
