TITL C-599895-9959-184 37.5887320385069 125000 -1088.63191627092 0 0 176 (C1) n - 1
REM
REM in /home/nfs/bkarasulu/CARBON/AIRSS/Generating-Clusters/TERSOFF/Only-C1/FIRE-HFTN
REM
REM
REM
REM
REM
REM ./C.cell (11c1c37f851c82e70ff6c80c92926a4b)
REM AIRSS Version 0.9.1 bugfix July 2018 build 013d7b7c2542+ Fri, 06 Jul 2018 19:26:36 +0100
REM compiler GCC version 9.2.1 20190827 (Red Hat 9.2.1-1)
REM options -cpp -mtune=generic -march=x86-64 -g -O0 -fpre-include=/usr/include/finclude/math-vector-fortran.h
REM seed 1876834397 1066063764 827771922 -1287551827 437348433 1788956297 958577801 2050295539 -1094373880 681925297 -381794343 -1045532282 -519535108 -1139156443 -1055783225 -2116841459 -100984569 -870780343 -1245962428 897487403 2008412355 -360397779 1408549641 11716764 987932820 1669737096 1032677917 1372766331 1915165046 797843905 -600642087 1485393896 -663720975
REM
CELL 1.54180   50.00000   50.00000   50.00000   90.00000   90.00000   90.00000
LATT -1
SFAC C  
C      1  0.5954470000000  0.5667990000000  0.5183850000000 1.0
C      1  0.5710390000000  0.5050980000000  0.4204080000000 1.0
C      1  0.6035270000000  0.5150960000000  0.4565400000000 1.0
C      1  0.4842100000000  0.4568610000000  0.5250100000000 1.0
C      1  0.5386860000000  0.4556510000000  0.5025560000000 1.0
C      1  0.4447900000000  0.4290260000000  0.5428160000000 1.0
C      1  0.3929170000000  0.5363040000000  0.5411150000000 1.0
C      1  0.4823160000000  0.4471270000000  0.6036830000000 1.0
C      1  0.4332840000000  0.4312990000000  0.5688350000000 1.0
C      1  0.5279840000000  0.5540830000000  0.6120850000000 1.0
C      1  0.4868760000000  0.5590310000000  0.4085270000000 1.0
C      1  0.3835140000000  0.5107240000000  0.4996820000000 1.0
C      1  0.4083630000000  0.5398050000000  0.4288180000000 1.0
C      1  0.5965540000000  0.4403180000000  0.4852970000000 1.0
C      1  0.5652870000000  0.4455000000000  0.4463090000000 1.0
C      1  0.5964900000000  0.4309540000000  0.5131040000000 1.0
C      1  0.5269670000000  0.5940980000000  0.5336150000000 1.0
C      1  0.5710030000000  0.5329280000000  0.6053000000000 1.0
C      1  0.4096000000000  0.4811080000000  0.3841090000000 1.0
C      1  0.5519990000000  0.4938960000000  0.3996090000000 1.0
C      1  0.5214810000000  0.4730010000000  0.4419500000000 1.0
C      1  0.4352990000000  0.5153890000000  0.5717450000000 1.0
C      1  0.4389720000000  0.5509500000000  0.4656660000000 1.0
C      1  0.5450260000000  0.5747850000000  0.4001450000000 1.0
C      1  0.4624850000000  0.6205070000000  0.4766890000000 1.0
C      1  0.5495310000000  0.3851360000000  0.5179220000000 1.0
C      1  0.4771440000000  0.5348830000000  0.3941120000000 1.0
C      1  0.5472650000000  0.4264940000000  0.5685280000000 1.0
C      1  0.6152590000000  0.4803220000000  0.5062740000000 1.0
C      1  0.5820360000000  0.5163590000000  0.5852630000000 1.0
C      1  0.5570270000000  0.5093220000000  0.5193730000000 1.0
C      1  0.5278870000000  0.4886200000000  0.5858100000000 1.0
C      1  0.5095040000000  0.5077430000000  0.5255170000000 1.0
C      1  0.4668450000000  0.5789140000000  0.4145890000000 1.0
C      1  0.4542100000000  0.5662790000000  0.4847470000000 1.0
C      1  0.6136220000000  0.4867660000000  0.4586180000000 1.0
C      1  0.5628780000000  0.3874280000000  0.4945350000000 1.0
C      1  0.4417070000000  0.4835170000000  0.4477800000000 1.0
C      1  0.5090930000000  0.5259830000000  0.4699990000000 1.0
C      1  0.4979860000000  0.3540500000000  0.3768310000000 1.0
C      1  0.4506910000000  0.4786390000000  0.4747910000000 1.0
C      1  0.4654070000000  0.6187160000000  0.5035080000000 1.0
C      1  0.4455990000000  0.5295390000000  0.5281380000000 1.0
C      1  0.5182190000000  0.4399580000000  0.4899150000000 1.0
C      1  0.4833400000000  0.5719900000000  0.5622870000000 1.0
C      1  0.5564060000000  0.4728200000000  0.4880820000000 1.0
C      1  0.4203170000000  0.4929140000000  0.6115350000000 1.0
C      1  0.6294510000000  0.4777320000000  0.4377240000000 1.0
C      1  0.4347770000000  0.5242890000000  0.4742000000000 1.0
C      1  0.4384380000000  0.5770330000000  0.5058600000000 1.0
C      1  0.4696120000000  0.3821660000000  0.4379600000000 1.0
C      1  0.5566040000000  0.4088390000000  0.4771830000000 1.0
C      1  0.3862590000000  0.5600920000000  0.5012680000000 1.0
C      1  0.5627980000000  0.4921100000000  0.4443020000000 1.0
C      1  0.4640850000000  0.6130070000000  0.4509080000000 1.0
C      1  0.5542710000000  0.4704750000000  0.5497280000000 1.0
C      1  0.5428530000000  0.5304910000000  0.6096650000000 1.0
C      1  0.5103710000000  0.3941480000000  0.4750610000000 1.0
C      1  0.4124600000000  0.4657640000000  0.3632400000000 1.0
C      1  0.5500440000000  0.4999120000000  0.4935010000000 1.0
C      1  0.6095390000000  0.4677850000000  0.4813370000000 1.0
C      1  0.5515140000000  0.6098420000000  0.4313850000000 1.0
C      1  0.5262360000000  0.5070230000000  0.3913680000000 1.0
C      1  0.5692470000000  0.4709040000000  0.4618380000000 1.0
C      1  0.3939980000000  0.4888450000000  0.4301970000000 1.0
C      1  0.4872680000000  0.3806940000000  0.4830450000000 1.0
C      1  0.4910500000000  0.3711800000000  0.3952050000000 1.0
C      1  0.4840220000000  0.3898060000000  0.4146510000000 1.0
C      1  0.4879860000000  0.4183080000000  0.5629220000000 1.0
C      1  0.5176760000000  0.5755020000000  0.4402150000000 1.0
C      1  0.5887720000000  0.5253830000000  0.4321720000000 1.0
C      1  0.5530460000000  0.4792470000000  0.5762170000000 1.0
C      1  0.5532730000000  0.4637290000000  0.3986200000000 1.0
C      1  0.4278940000000  0.5575820000000  0.4402940000000 1.0
C      1  0.4908760000000  0.4493790000000  0.4956890000000 1.0
C      1  0.4277260000000  0.4282420000000  0.5194540000000 1.0
C      1  0.5077480000000  0.4759650000000  0.5381590000000 1.0
C      1  0.5278270000000  0.4282110000000  0.5892390000000 1.0
C      1  0.4865670000000  0.3744160000000  0.5358880000000 1.0
C      1  0.4036470000000  0.4441290000000  0.5181560000000 1.0
C      1  0.6023390000000  0.5321900000000  0.4796530000000 1.0
C      1  0.4741870000000  0.4330960000000  0.5425720000000 1.0
C      1  0.4471330000000  0.5032870000000  0.4886820000000 1.0
C      1  0.4893250000000  0.3906310000000  0.5571340000000 1.0
C      1  0.5358170000000  0.4956270000000  0.4494510000000 1.0
C      1  0.4232160000000  0.5755470000000  0.5302960000000 1.0
C      1  0.5339850000000  0.4038080000000  0.5294510000000 1.0
C      1  0.4759310000000  0.6252680000000  0.4060350000000 1.0
C      1  0.4934010000000  0.5359630000000  0.4903410000000 1.0
C      1  0.4558840000000  0.4582210000000  0.6076010000000 1.0
C      1  0.4770680000000  0.4339420000000  0.4303190000000 1.0
C      1  0.4329680000000  0.4109950000000  0.4978760000000 1.0
C      1  0.4590550000000  0.4724300000000  0.5249350000000 1.0
C      1  0.4718370000000  0.4584150000000  0.4753950000000 1.0
C      1  0.5592200000000  0.5513190000000  0.4934340000000 1.0
C      1  0.4463830000000  0.5365280000000  0.4001230000000 1.0
C      1  0.5030340000000  0.5529620000000  0.4306890000000 1.0
C      1  0.5763350000000  0.5800520000000  0.5330840000000 1.0
C      1  0.5345110000000  0.4475110000000  0.4436000000000 1.0
C      1  0.5481040000000  0.5756660000000  0.5309040000000 1.0
C      1  0.4426360000000  0.3965280000000  0.4776630000000 1.0
C      1  0.4851440000000  0.3710410000000  0.5093730000000 1.0
C      1  0.4947810000000  0.4770050000000  0.4384050000000 1.0
C      1  0.4805830000000  0.4992610000000  0.5756170000000 1.0
C      1  0.4797140000000  0.4550120000000  0.4479290000000 1.0
C      1  0.4440600000000  0.5626500000000  0.4169240000000 1.0
C      1  0.5722210000000  0.5715040000000  0.4509140000000 1.0
C      1  0.3892290000000  0.4869170000000  0.4847630000000 1.0
C      1  0.3799680000000  0.5367890000000  0.4882200000000 1.0
C      1  0.4788210000000  0.6034370000000  0.5235430000000 1.0
C      1  0.4648680000000  0.3842430000000  0.4657300000000 1.0
C      1  0.4201290000000  0.5230270000000  0.4076480000000 1.0
C      1  0.3988540000000  0.5606930000000  0.5272810000000 1.0
C      1  0.5336160000000  0.5246230000000  0.5267440000000 1.0
C      1  0.6038240000000  0.4961660000000  0.5242110000000 1.0
C      1  0.4689800000000  0.6056210000000  0.4238910000000 1.0
C      1  0.5128610000000  0.4992730000000  0.6315550000000 1.0
C      1  0.5867590000000  0.5503420000000  0.6202430000000 1.0
C      1  0.5331570000000  0.5905770000000  0.4208050000000 1.0
C      1  0.6011510000000  0.5671540000000  0.6340030000000 1.0
C      1  0.4839750000000  0.5034090000000  0.4350710000000 1.0
C      1  0.4459650000000  0.5552160000000  0.6029440000000 1.0
C      1  0.5001960000000  0.5168930000000  0.3880610000000 1.0
C      1  0.5903680000000  0.4268820000000  0.5393150000000 1.0
C      1  0.4637190000000  0.5315610000000  0.6086940000000 1.0
C      1  0.4386950000000  0.5827750000000  0.5540530000000 1.0
C      1  0.5207360000000  0.6008430000000  0.5603030000000 1.0
C      1  0.4468920000000  0.4844540000000  0.6184160000000 1.0
C      1  0.5720960000000  0.4500910000000  0.4168450000000 1.0
C      1  0.5315670000000  0.5099500000000  0.4733480000000 1.0
C      1  0.4808810000000  0.5267860000000  0.5852430000000 1.0
C      1  0.5288000000000  0.5053970000000  0.6092510000000 1.0
C      1  0.5668010000000  0.5591520000000  0.4046570000000 1.0
C      1  0.4601770000000  0.5125120000000  0.5116010000000 1.0
C      1  0.4991290000000  0.4307610000000  0.5868360000000 1.0
C      1  0.4560120000000  0.5007190000000  0.4322550000000 1.0
C      1  0.5518830000000  0.5662770000000  0.4710510000000 1.0
C      1  0.5848890000000  0.5238560000000  0.5583010000000 1.0
C      1  0.5144400000000  0.5736650000000  0.6003740000000 1.0
C      1  0.5336300000000  0.4578550000000  0.5322740000000 1.0
C      1  0.3878890000000  0.4867440000000  0.4563360000000 1.0
C      1  0.4877150000000  0.5177610000000  0.5108560000000 1.0
C      1  0.3837440000000  0.4390220000000  0.5364360000000 1.0
C      1  0.5789760000000  0.5523960000000  0.4297330000000 1.0
C      1  0.4079460000000  0.4973050000000  0.4066620000000 1.0
C      1  0.5342200000000  0.4285780000000  0.5425450000000 1.0
C      1  0.5280520000000  0.4155560000000  0.4780420000000 1.0
C      1  0.5817370000000  0.5105780000000  0.5335020000000 1.0
C      1  0.4477360000000  0.5354380000000  0.5550730000000 1.0
C      1  0.4454400000000  0.4771390000000  0.5471040000000 1.0
C      1  0.5056320000000  0.5950900000000  0.5143610000000 1.0
C      1  0.5113200000000  0.4295800000000  0.3964340000000 1.0
C      1  0.4829890000000  0.5622260000000  0.4875710000000 1.0
C      1  0.4155230000000  0.5102340000000  0.5910270000000 1.0
C      1  0.5309550000000  0.4473800000000  0.3907620000000 1.0
C      1  0.5879100000000  0.5489600000000  0.4973510000000 1.0
C      1  0.3868480000000  0.5128970000000  0.5281410000000 1.0
C      1  0.3988240000000  0.4640470000000  0.4986260000000 1.0
C      1  0.5754110000000  0.4246810000000  0.5622210000000 1.0
C      1  0.5043980000000  0.4849070000000  0.5690380000000 1.0
C      1  0.4737460000000  0.5455050000000  0.5647010000000 1.0
C      1  0.5763660000000  0.4269290000000  0.4670030000000 1.0
C      1  0.5252570000000  0.5769220000000  0.4678550000000 1.0
C      1  0.4874910000000  0.5020180000000  0.6396210000000 1.0
C      1  0.4908770000000  0.4174550000000  0.4122040000000 1.0
C      1  0.5419810000000  0.5510800000000  0.5174540000000 1.0
C      1  0.5051100000000  0.5811980000000  0.4888080000000 1.0
C      1  0.5734250000000  0.5994020000000  0.4441240000000 1.0
C      1  0.4636250000000  0.5073530000000  0.6256540000000 1.0
C      1  0.4534350000000  0.4930080000000  0.5680980000000 1.0
C      1  0.4667120000000  0.5897750000000  0.5466140000000 1.0
C      1  0.4364440000000  0.5722390000000  0.5823960000000 1.0
C      1  0.5764300000000  0.4888140000000  0.5884220000000 1.0
C      1  0.4363910000000  0.4432970000000  0.5927510000000 1.0
C      1  0.5051330000000  0.5835860000000  0.5761670000000 1.0
C      1  0.4983510000000  0.5275620000000  0.4435740000000 1.0
END
