TITL C-599890-3321-116 0.000837636226472998 125000 -944.754174135762 0 0 153 (C1) n - 1
REM
REM in /home/nfs/bkarasulu/CARBON/AIRSS/Generating-Clusters/TERSOFF/Only-C1/FIRE-HFTN
REM
REM
REM
REM
REM
REM ./C.cell (11c1c37f851c82e70ff6c80c92926a4b)
REM AIRSS Version 0.9.1 bugfix July 2018 build 013d7b7c2542+ Fri, 06 Jul 2018 19:26:36 +0100
REM compiler GCC version 9.2.1 20190827 (Red Hat 9.2.1-1)
REM options -cpp -mtune=generic -march=x86-64 -g -O0 -fpre-include=/usr/include/finclude/math-vector-fortran.h
REM seed 899469579 144668913 -686513247 858038813 646843837 796325508 -1766472230 1800442075 -1657930806 871462923 655108326 -729196040 -50264506 2060133490 714142284 -994757816 -243882484 -860815605 -1995744828 -1241458759 1613464936 8238913 584771384 1686446124 2115035061 353001842 -161698412 88806000 1662840088 -1985714426 -601789208 -824126375 1396153227
REM
CELL 1.54180   50.00000   50.00000   50.00000   90.00000   90.00000   90.00000
LATT -1
SFAC C  
C      1  0.3926000000000  0.5464610000000  0.4640200000000 1.0
C      1  0.5634310000000  0.5400230000000  0.5531130000000 1.0
C      1  0.5371000000000  0.5759830000000  0.5661920000000 1.0
C      1  0.5909690000000  0.5535610000000  0.4728100000000 1.0
C      1  0.5382150000000  0.5526280000000  0.4931780000000 1.0
C      1  0.5087610000000  0.5717540000000  0.6044600000000 1.0
C      1  0.3952210000000  0.4752880000000  0.4627300000000 1.0
C      1  0.4658470000000  0.5575460000000  0.5039560000000 1.0
C      1  0.4979650000000  0.5985680000000  0.5374160000000 1.0
C      1  0.5372580000000  0.5284260000000  0.5506540000000 1.0
C      1  0.6045520000000  0.4662260000000  0.4839440000000 1.0
C      1  0.4715560000000  0.5065680000000  0.5787310000000 1.0
C      1  0.6161230000000  0.5339320000000  0.5096470000000 1.0
C      1  0.4887670000000  0.4022970000000  0.5253950000000 1.0
C      1  0.4130020000000  0.4728850000000  0.5855440000000 1.0
C      1  0.4064810000000  0.5005730000000  0.3833960000000 1.0
C      1  0.5725460000000  0.5117060000000  0.5098610000000 1.0
C      1  0.5306200000000  0.5570390000000  0.5921070000000 1.0
C      1  0.4615850000000  0.5124660000000  0.4945340000000 1.0
C      1  0.5122920000000  0.4554780000000  0.5787060000000 1.0
C      1  0.5488020000000  0.4006430000000  0.5738060000000 1.0
C      1  0.5147060000000  0.4759050000000  0.5989170000000 1.0
C      1  0.5405490000000  0.4994250000000  0.4416450000000 1.0
C      1  0.4595950000000  0.5074560000000  0.6041150000000 1.0
C      1  0.5224570000000  0.4370440000000  0.4453830000000 1.0
C      1  0.5160150000000  0.6144120000000  0.4434620000000 1.0
C      1  0.4798300000000  0.4265730000000  0.5896550000000 1.0
C      1  0.4389870000000  0.4072580000000  0.4412550000000 1.0
C      1  0.4643390000000  0.4150630000000  0.5367100000000 1.0
C      1  0.5909720000000  0.4566410000000  0.5083490000000 1.0
C      1  0.5277050000000  0.5008090000000  0.5888940000000 1.0
C      1  0.4651710000000  0.5389900000000  0.4824960000000 1.0
C      1  0.4038350000000  0.4881590000000  0.5077550000000 1.0
C      1  0.6165850000000  0.5408260000000  0.4813510000000 1.0
C      1  0.5200160000000  0.5405050000000  0.4748010000000 1.0
C      1  0.5593440000000  0.5345990000000  0.5003420000000 1.0
C      1  0.5012160000000  0.5067030000000  0.3737700000000 1.0
C      1  0.4137410000000  0.4577380000000  0.5617400000000 1.0
C      1  0.4712550000000  0.6068910000000  0.5275280000000 1.0
C      1  0.6011270000000  0.5090910000000  0.5088920000000 1.0
C      1  0.4366300000000  0.4603050000000  0.4799570000000 1.0
C      1  0.5351220000000  0.5016050000000  0.5602880000000 1.0
C      1  0.4811150000000  0.4532930000000  0.3893800000000 1.0
C      1  0.4132300000000  0.6441760000000  0.4768110000000 1.0
C      1  0.5204080000000  0.4878130000000  0.3655350000000 1.0
C      1  0.4737290000000  0.4463090000000  0.6104960000000 1.0
C      1  0.5084000000000  0.5193740000000  0.5154170000000 1.0
C      1  0.4885860000000  0.4952930000000  0.4343070000000 1.0
C      1  0.4552900000000  0.5184960000000  0.5225370000000 1.0
C      1  0.4749070000000  0.5431400000000  0.4566950000000 1.0
C      1  0.5043950000000  0.4482220000000  0.4019130000000 1.0
C      1  0.4396710000000  0.4737710000000  0.4066790000000 1.0
C      1  0.4306760000000  0.4352680000000  0.4947480000000 1.0
C      1  0.3893340000000  0.4464690000000  0.4656660000000 1.0
C      1  0.5313920000000  0.5284720000000  0.5986140000000 1.0
C      1  0.4239450000000  0.4604260000000  0.6082680000000 1.0
C      1  0.5422400000000  0.4848200000000  0.4661550000000 1.0
C      1  0.5119290000000  0.5315790000000  0.3831180000000 1.0
C      1  0.5056650000000  0.6047570000000  0.4653450000000 1.0
C      1  0.4493680000000  0.4645720000000  0.4536790000000 1.0
C      1  0.4201640000000  0.4945970000000  0.4063180000000 1.0
C      1  0.3802860000000  0.5224840000000  0.4599520000000 1.0
C      1  0.5400180000000  0.5430240000000  0.4199010000000 1.0
C      1  0.5147740000000  0.5163190000000  0.4886020000000 1.0
C      1  0.4192050000000  0.5532800000000  0.4561240000000 1.0
C      1  0.4764340000000  0.5008320000000  0.3886970000000 1.0
C      1  0.5082560000000  0.4280850000000  0.5858360000000 1.0
C      1  0.5575240000000  0.4890860000000  0.5168610000000 1.0
C      1  0.5945340000000  0.4969120000000  0.5601560000000 1.0
C      1  0.5438710000000  0.4763740000000  0.3717700000000 1.0
C      1  0.4635200000000  0.4753790000000  0.3908520000000 1.0
C      1  0.4961660000000  0.5395160000000  0.4067490000000 1.0
C      1  0.6224510000000  0.4589950000000  0.5704240000000 1.0
C      1  0.4115640000000  0.5268950000000  0.5877180000000 1.0
C      1  0.4665440000000  0.5044460000000  0.6299310000000 1.0
C      1  0.4308500000000  0.5325220000000  0.4384330000000 1.0
C      1  0.4811140000000  0.4191800000000  0.4664710000000 1.0
C      1  0.4406600000000  0.4292300000000  0.5227570000000 1.0
C      1  0.4649950000000  0.5841980000000  0.5862440000000 1.0
C      1  0.4767090000000  0.5173090000000  0.4151670000000 1.0
C      1  0.4575670000000  0.4052910000000  0.4605500000000 1.0
C      1  0.5730630000000  0.5769010000000  0.5218880000000 1.0
C      1  0.5628750000000  0.4140370000000  0.5555100000000 1.0
C      1  0.5264500000000  0.4073410000000  0.5867720000000 1.0
C      1  0.5886200000000  0.4597860000000  0.4334060000000 1.0
C      1  0.5609100000000  0.5687140000000  0.5479810000000 1.0
C      1  0.4039200000000  0.4289870000000  0.4826220000000 1.0
C      1  0.5437170000000  0.4830400000000  0.5409510000000 1.0
C      1  0.4929660000000  0.5865570000000  0.5856830000000 1.0
C      1  0.4740570000000  0.4907240000000  0.4817240000000 1.0
C      1  0.5844480000000  0.5220730000000  0.5597090000000 1.0
C      1  0.5129130000000  0.5500340000000  0.4277040000000 1.0
C      1  0.4950090000000  0.5972780000000  0.4898150000000 1.0
C      1  0.4334680000000  0.5099280000000  0.5371820000000 1.0
C      1  0.5389000000000  0.5377800000000  0.3914090000000 1.0
C      1  0.4433500000000  0.5993510000000  0.4819530000000 1.0
C      1  0.4420020000000  0.5704520000000  0.5872210000000 1.0
C      1  0.5163510000000  0.4861230000000  0.4298850000000 1.0
C      1  0.5102310000000  0.5882900000000  0.5129860000000 1.0
C      1  0.4276190000000  0.6225790000000  0.4791900000000 1.0
C      1  0.6008250000000  0.5297010000000  0.4306110000000 1.0
C      1  0.5101390000000  0.5910740000000  0.5621360000000 1.0
C      1  0.5007580000000  0.4190120000000  0.4463590000000 1.0
C      1  0.4665860000000  0.5446790000000  0.5291780000000 1.0
C      1  0.5542780000000  0.3960410000000  0.4962160000000 1.0
C      1  0.4319350000000  0.4284810000000  0.4263510000000 1.0
C      1  0.4964660000000  0.4640190000000  0.5558560000000 1.0
C      1  0.4907310000000  0.4298950000000  0.4908690000000 1.0
C      1  0.5643570000000  0.4688900000000  0.3872830000000 1.0
C      1  0.5628070000000  0.4393050000000  0.5436220000000 1.0
C      1  0.4672650000000  0.6026280000000  0.4982130000000 1.0
C      1  0.4771480000000  0.4837540000000  0.5623980000000 1.0
C      1  0.5571960000000  0.4600520000000  0.4731280000000 1.0
C      1  0.6215220000000  0.5151820000000  0.4405340000000 1.0
C      1  0.4699230000000  0.4843320000000  0.4541730000000 1.0
C      1  0.5812020000000  0.5720110000000  0.4951840000000 1.0
C      1  0.4144780000000  0.4784720000000  0.4841090000000 1.0
C      1  0.5639190000000  0.4657300000000  0.5018400000000 1.0
C      1  0.3933070000000  0.4999850000000  0.4480410000000 1.0
C      1  0.6134450000000  0.4933010000000  0.4864010000000 1.0
C      1  0.4939240000000  0.4672440000000  0.6185330000000 1.0
C      1  0.4829210000000  0.5308900000000  0.5709540000000 1.0
C      1  0.4070840000000  0.5004790000000  0.5865270000000 1.0
C      1  0.5148860000000  0.5412750000000  0.5347410000000 1.0
C      1  0.5393700000000  0.4354880000000  0.4693160000000 1.0
C      1  0.4330460000000  0.5759200000000  0.4679320000000 1.0
C      1  0.4654800000000  0.4182220000000  0.5660910000000 1.0
C      1  0.4237220000000  0.4421980000000  0.5424290000000 1.0
C      1  0.5030300000000  0.5483100000000  0.4538240000000 1.0
C      1  0.5200310000000  0.4898810000000  0.4823900000000 1.0
C      1  0.4094790000000  0.5008170000000  0.5302820000000 1.0
C      1  0.6233790000000  0.5144120000000  0.4685930000000 1.0
C      1  0.4466760000000  0.4498410000000  0.6173850000000 1.0
C      1  0.4965580000000  0.4536980000000  0.5058480000000 1.0
C      1  0.6017280000000  0.4695230000000  0.5557750000000 1.0
C      1  0.5381990000000  0.4545510000000  0.5391660000000 1.0
C      1  0.5798120000000  0.4632870000000  0.4083840000000 1.0
C      1  0.4848790000000  0.4861230000000  0.6376570000000 1.0
C      1  0.5884340000000  0.4523400000000  0.5367470000000 1.0
C      1  0.5090480000000  0.4540790000000  0.5318850000000 1.0
C      1  0.5184750000000  0.4572810000000  0.4249490000000 1.0
C      1  0.4392740000000  0.4554690000000  0.4285550000000 1.0
C      1  0.5538790000000  0.5262030000000  0.4384240000000 1.0
C      1  0.4239500000000  0.5506630000000  0.5876840000000 1.0
C      1  0.5074160000000  0.4101550000000  0.5042880000000 1.0
C      1  0.5340040000000  0.4138180000000  0.4906440000000 1.0
C      1  0.5236940000000  0.5636960000000  0.5153960000000 1.0
C      1  0.4966640000000  0.4768330000000  0.4910000000000 1.0
C      1  0.4590790000000  0.5326260000000  0.4347930000000 1.0
C      1  0.4149770000000  0.5089430000000  0.4304580000000 1.0
C      1  0.5860220000000  0.4599640000000  0.4612980000000 1.0
C      1  0.4880820000000  0.5446150000000  0.5474310000000 1.0
C      1  0.5792680000000  0.5383800000000  0.4481390000000 1.0
END
