TITL C-599891-72-1210 3.81680175563864 125000 -426.820911672869 0 0 71 (C1) n - 1
REM
REM in /home/nfs/bkarasulu/CARBON/AIRSS/Generating-Clusters/TERSOFF/Only-C1/FIRE-HFTN
REM
REM
REM
REM
REM
REM ./C.cell (11c1c37f851c82e70ff6c80c92926a4b)
REM AIRSS Version 0.9.1 bugfix July 2018 build 013d7b7c2542+ Fri, 06 Jul 2018 19:26:36 +0100
REM compiler GCC version 9.2.1 20190827 (Red Hat 9.2.1-1)
REM options -cpp -mtune=generic -march=x86-64 -g -O0 -fpre-include=/usr/include/finclude/math-vector-fortran.h
REM seed 2023961520 -831408422 -946930990 -940273928 1592851845 317760923 14494510 -1450715684 1900464783 -2052478658 -2130306972 -317806856 1243387774 -1128376069 -957726563 1452249863 55490539 129895178 1639906929 -234570451 453920301 19036466 -618381456 -1300843679 1740688774 111319792 974138955 373156392 1167473322 837122293 -1039051312 1848886622 1110157606
REM
CELL 1.54180   50.00000   50.00000   50.00000   90.00000   90.00000   90.00000
LATT -1
SFAC C  
C      1  0.5018720000000  0.5032430000000  0.5335630000000 1.0
C      1  0.5347250000000  0.4989900000000  0.4083320000000 1.0
C      1  0.5298470000000  0.5661120000000  0.5212980000000 1.0
C      1  0.5116270000000  0.5483490000000  0.5341020000000 1.0
C      1  0.4678500000000  0.4573090000000  0.5320500000000 1.0
C      1  0.3624520000000  0.5049270000000  0.4766480000000 1.0
C      1  0.3762080000000  0.4886710000000  0.4601610000000 1.0
C      1  0.5275270000000  0.4824440000000  0.4955050000000 1.0
C      1  0.4682270000000  0.4758610000000  0.4896260000000 1.0
C      1  0.4799310000000  0.4431740000000  0.5742260000000 1.0
C      1  0.5707370000000  0.5348020000000  0.4534470000000 1.0
C      1  0.4528350000000  0.5254370000000  0.5616220000000 1.0
C      1  0.5153140000000  0.4787750000000  0.5719900000000 1.0
C      1  0.5176910000000  0.5440040000000  0.4503430000000 1.0
C      1  0.4258510000000  0.4989050000000  0.4665740000000 1.0
C      1  0.4980860000000  0.4547630000000  0.5316360000000 1.0
C      1  0.5608910000000  0.4343240000000  0.5241250000000 1.0
C      1  0.5968670000000  0.4501450000000  0.4799950000000 1.0
C      1  0.4788240000000  0.5005950000000  0.4799570000000 1.0
C      1  0.5568520000000  0.5635640000000  0.5242820000000 1.0
C      1  0.5944870000000  0.4977410000000  0.5329810000000 1.0
C      1  0.4560780000000  0.4760520000000  0.5147840000000 1.0
C      1  0.3997500000000  0.5222510000000  0.5004980000000 1.0
C      1  0.5877720000000  0.5366730000000  0.4756070000000 1.0
C      1  0.4458890000000  0.5055370000000  0.4465150000000 1.0
C      1  0.5722850000000  0.4526680000000  0.5405740000000 1.0
C      1  0.3549900000000  0.5399100000000  0.5103550000000 1.0
C      1  0.6112800000000  0.4675290000000  0.4944630000000 1.0
C      1  0.5151800000000  0.4416470000000  0.4620830000000 1.0
C      1  0.4382700000000  0.4980800000000  0.5179030000000 1.0
C      1  0.4545820000000  0.4324800000000  0.4608830000000 1.0
C      1  0.4383810000000  0.5178750000000  0.4232260000000 1.0
C      1  0.5454640000000  0.4983410000000  0.5093320000000 1.0
C      1  0.5288760000000  0.4842340000000  0.4676740000000 1.0
C      1  0.5681920000000  0.5428120000000  0.5408870000000 1.0
C      1  0.5208600000000  0.5401040000000  0.5614950000000 1.0
C      1  0.5945610000000  0.5343670000000  0.5013380000000 1.0
C      1  0.4026950000000  0.4856110000000  0.4566430000000 1.0
C      1  0.5482890000000  0.4929570000000  0.5366430000000 1.0
C      1  0.6122950000000  0.4845610000000  0.5152300000000 1.0
C      1  0.5022170000000  0.5265800000000  0.5795140000000 1.0
C      1  0.5070600000000  0.5346700000000  0.4254010000000 1.0
C      1  0.3389620000000  0.5561230000000  0.5238530000000 1.0
C      1  0.5499150000000  0.5377820000000  0.5627770000000 1.0
C      1  0.4232490000000  0.5073080000000  0.4947530000000 1.0
C      1  0.4733330000000  0.4996780000000  0.4515570000000 1.0
C      1  0.4952200000000  0.4880790000000  0.4362820000000 1.0
C      1  0.5014000000000  0.5426410000000  0.4731670000000 1.0
C      1  0.5234670000000  0.4923780000000  0.5485090000000 1.0
C      1  0.4400280000000  0.5134230000000  0.5414740000000 1.0
C      1  0.5039370000000  0.4542680000000  0.5622410000000 1.0
C      1  0.5752470000000  0.5170340000000  0.4320110000000 1.0
C      1  0.4587010000000  0.4460110000000  0.5568210000000 1.0
C      1  0.5149090000000  0.4583560000000  0.5077500000000 1.0
C      1  0.3231930000000  0.5720770000000  0.5371360000000 1.0
C      1  0.3718660000000  0.5229190000000  0.4962880000000 1.0
C      1  0.5605930000000  0.5033640000000  0.4141460000000 1.0
C      1  0.5879890000000  0.5258740000000  0.5277920000000 1.0
C      1  0.4983790000000  0.5271990000000  0.5193590000000 1.0
C      1  0.4745580000000  0.5316700000000  0.5759980000000 1.0
C      1  0.5120670000000  0.4685390000000  0.4505050000000 1.0
C      1  0.5253010000000  0.4374450000000  0.4895730000000 1.0
C      1  0.5086690000000  0.5001750000000  0.5898800000000 1.0
C      1  0.4639390000000  0.4531520000000  0.4737310000000 1.0
C      1  0.5101000000000  0.5065900000000  0.4198700000000 1.0
C      1  0.4908400000000  0.5242400000000  0.4917730000000 1.0
C      1  0.5730080000000  0.4810750000000  0.5425890000000 1.0
C      1  0.5528140000000  0.4311420000000  0.4967010000000 1.0
C      1  0.5454310000000  0.5472850000000  0.4535300000000 1.0
C      1  0.4949390000000  0.5515670000000  0.4076880000000 1.0
C      1  0.5742830000000  0.4355300000000  0.4787350000000 1.0
END
