TITL C-599893-4344-671 0.0131189763422831 125000 -435.558342297574 0 0 74 (C1) n - 1
REM
REM in /home/nfs/bkarasulu/CARBON/AIRSS/Generating-Clusters/TERSOFF/Only-C1/FIRE-HFTN
REM
REM
REM
REM
REM
REM ./C.cell (11c1c37f851c82e70ff6c80c92926a4b)
REM AIRSS Version 0.9.1 bugfix July 2018 build 013d7b7c2542+ Fri, 06 Jul 2018 19:26:36 +0100
REM compiler GCC version 9.2.1 20190827 (Red Hat 9.2.1-1)
REM options -cpp -mtune=generic -march=x86-64 -g -O0 -fpre-include=/usr/include/finclude/math-vector-fortran.h
REM seed -553590259 611714059 977023489 -1801090890 -784408102 54022361 91602726 1470230842 672611885 -75741340 1881438170 288746785 -735568726 349182491 -853545996 1475155678 -346421663 40338867 2037770001 1091480421 -419615730 2084204895 1866735470 -340531462 407097606 1891963652 -1372886147 1013028941 2045689931 1145208814 1910572835 -1906414961 2054667696
REM
CELL 1.54180   50.00000   50.00000   50.00000   90.00000   90.00000   90.00000
LATT -1
SFAC C  
C      1  0.4486110000000  0.5486610000000  0.4861320000000 1.0
C      1  0.5073420000000  0.4890320000000  0.4758930000000 1.0
C      1  0.5552950000000  0.5490320000000  0.4726710000000 1.0
C      1  0.4940730000000  0.4664710000000  0.4637930000000 1.0
C      1  0.4550580000000  0.4579940000000  0.4904650000000 1.0
C      1  0.4774220000000  0.6534510000000  0.5610890000000 1.0
C      1  0.5352020000000  0.4312140000000  0.4656860000000 1.0
C      1  0.5130340000000  0.4923680000000  0.4211830000000 1.0
C      1  0.4708570000000  0.4984790000000  0.5050880000000 1.0
C      1  0.4403440000000  0.5600900000000  0.4400440000000 1.0
C      1  0.4909880000000  0.4260620000000  0.5240670000000 1.0
C      1  0.4161930000000  0.5148670000000  0.5152760000000 1.0
C      1  0.4802470000000  0.4589070000000  0.5559730000000 1.0
C      1  0.5179690000000  0.5154050000000  0.4685330000000 1.0
C      1  0.5470370000000  0.5488410000000  0.5450850000000 1.0
C      1  0.5166250000000  0.4357990000000  0.5339840000000 1.0
C      1  0.5652590000000  0.5410720000000  0.5220650000000 1.0
C      1  0.5029350000000  0.5445380000000  0.5068890000000 1.0
C      1  0.5389560000000  0.4873640000000  0.5366110000000 1.0
C      1  0.5130850000000  0.4838840000000  0.3408740000000 1.0
C      1  0.4302350000000  0.5004250000000  0.5591140000000 1.0
C      1  0.4919420000000  0.5099320000000  0.4316860000000 1.0
C      1  0.4648130000000  0.5114260000000  0.5292870000000 1.0
C      1  0.5418320000000  0.5289100000000  0.4605000000000 1.0
C      1  0.5684850000000  0.4599730000000  0.4827730000000 1.0
C      1  0.4244660000000  0.4659410000000  0.5265050000000 1.0
C      1  0.5093320000000  0.4507310000000  0.5588180000000 1.0
C      1  0.5821270000000  0.4702400000000  0.5343510000000 1.0
C      1  0.5324750000000  0.4042150000000  0.4622420000000 1.0
C      1  0.5338530000000  0.4768030000000  0.4353560000000 1.0
C      1  0.4772890000000  0.4858450000000  0.5672160000000 1.0
C      1  0.5617850000000  0.5562970000000  0.4978930000000 1.0
C      1  0.5502300000000  0.5031550000000  0.5572720000000 1.0
C      1  0.5170810000000  0.4985010000000  0.5226360000000 1.0
C      1  0.4582980000000  0.5029690000000  0.5554810000000 1.0
C      1  0.5133070000000  0.4868760000000  0.3667710000000 1.0
C      1  0.4548890000000  0.5442430000000  0.4575780000000 1.0
C      1  0.4690560000000  0.4430700000000  0.5344000000000 1.0
C      1  0.4863020000000  0.6305730000000  0.5522940000000 1.0
C      1  0.4877130000000  0.4100810000000  0.5012920000000 1.0
C      1  0.4520720000000  0.4863880000000  0.4861620000000 1.0
C      1  0.4809280000000  0.4198400000000  0.4770390000000 1.0
C      1  0.5025730000000  0.4946400000000  0.5796740000000 1.0
C      1  0.5308860000000  0.4494010000000  0.4437670000000 1.0
C      1  0.4344890000000  0.4920380000000  0.4643990000000 1.0
C      1  0.5150360000000  0.5206940000000  0.5789640000000 1.0
C      1  0.5791170000000  0.5067250000000  0.4884610000000 1.0
C      1  0.4183010000000  0.4930260000000  0.5339310000000 1.0
C      1  0.5134680000000  0.4898580000000  0.3930940000000 1.0
C      1  0.4083610000000  0.4996580000000  0.4676410000000 1.0
C      1  0.4985390000000  0.4899300000000  0.5030620000000 1.0
C      1  0.5914850000000  0.4959960000000  0.5326450000000 1.0
C      1  0.5396850000000  0.4435130000000  0.5178720000000 1.0
C      1  0.5804510000000  0.5162390000000  0.5157900000000 1.0
C      1  0.4440740000000  0.4731970000000  0.4147830000000 1.0
C      1  0.5188410000000  0.4698730000000  0.5783840000000 1.0
C      1  0.4889880000000  0.5675320000000  0.5146610000000 1.0
C      1  0.5710210000000  0.4857040000000  0.4712350000000 1.0
C      1  0.5041640000000  0.5828020000000  0.5336470000000 1.0
C      1  0.5292430000000  0.5714100000000  0.5423020000000 1.0
C      1  0.5471110000000  0.4420670000000  0.4895350000000 1.0
C      1  0.5392390000000  0.5282430000000  0.5643800000000 1.0
C      1  0.5130560000000  0.5263280000000  0.5252250000000 1.0
C      1  0.4474810000000  0.4512820000000  0.5174120000000 1.0
C      1  0.4279630000000  0.5340750000000  0.4999640000000 1.0
C      1  0.5544820000000  0.4645050000000  0.5307030000000 1.0
C      1  0.4418160000000  0.4836700000000  0.4385550000000 1.0
C      1  0.4635140000000  0.5679390000000  0.5018740000000 1.0
C      1  0.5578880000000  0.4883630000000  0.4459870000000 1.0
C      1  0.4751730000000  0.4470580000000  0.4732810000000 1.0
C      1  0.4952770000000  0.6073150000000  0.5433260000000 1.0
C      1  0.4166720000000  0.5043880000000  0.5822910000000 1.0
C      1  0.4737870000000  0.5260590000000  0.4446930000000 1.0
C      1  0.5027760000000  0.5365060000000  0.4803990000000 1.0
END
