TITL C-599894-471-1196 51715.5231457406 125000 -955.019825648897 0 0 155 (C1) n - 1
REM
REM in /home/nfs/bkarasulu/CARBON/AIRSS/Generating-Clusters/TERSOFF/Only-C1/FIRE-HFTN
REM
REM
REM
REM
REM
REM ./C.cell (11c1c37f851c82e70ff6c80c92926a4b)
REM AIRSS Version 0.9.1 bugfix July 2018 build 013d7b7c2542+ Fri, 06 Jul 2018 19:26:36 +0100
REM compiler GCC version 9.2.1 20190827 (Red Hat 9.2.1-1)
REM options -cpp -mtune=generic -march=x86-64 -g -O0 -fpre-include=/usr/include/finclude/math-vector-fortran.h
REM seed 72943672 -983119899 -579730488 1067186089 2012351352 -929232476 1517018215 -26890941 -1965320101 955717280 1094884225 -2125676657 630490835 -2014426431 -1241528186 2089078211 -532045519 1627124385 -1707041923 736325383 307637157 256927388 1263359726 115496542 433618789 1460619837 299881334 2061930162 1216221272 425810596 -1188520060 -852724247 1485215422
REM
CELL 1.54180   50.00000   50.00000   50.00000   90.00000   90.00000   90.00000
LATT -1
SFAC C  
C      1  0.5565060000000  0.4846380000000  0.6009610000000 1.0
C      1  0.5134440000000  0.4316780000000  0.5785570000000 1.0
C      1  0.5683300000000  0.4603340000000  0.5291890000000 1.0
C      1  0.5705370000000  0.5407310000000  0.4750080000000 1.0
C      1  0.5414330000000  0.4218120000000  0.5079510000000 1.0
C      1  0.4449760000000  0.5195640000000  0.4106370000000 1.0
C      1  0.5716950000000  0.4237350000000  0.4473090000000 1.0
C      1  0.4503820000000  0.5734720000000  0.5237770000000 1.0
C      1  0.4522690000000  0.5481980000000  0.4085650000000 1.0
C      1  0.4380380000000  0.4411270000000  0.4292340000000 1.0
C      1  0.4770630000000  0.5628330000000  0.5288390000000 1.0
C      1  0.4977620000000  0.4223460000000  0.5568220000000 1.0
C      1  0.4463480000000  0.4953680000000  0.4704730000000 1.0
C      1  0.5630910000000  0.5288770000000  0.5823820000000 1.0
C      1  0.4960540000000  0.5878660000000  0.5888560000000 1.0
C      1  0.5030580000000  0.5161880000000  0.4507020000000 1.0
C      1  0.4967240000000  0.5049650000000  0.6096320000000 1.0
C      1  0.4932830000000  0.4307000000000  0.5301860000000 1.0
C      1  0.5380260000000  0.5263900000000  0.5105180000000 1.0
C      1  0.5571490000000  0.5833100000000  0.4933070000000 1.0
C      1  0.4924700000000  0.5387790000000  0.4685970000000 1.0
C      1  0.5159950000000  0.5768140000000  0.4123630000000 1.0
C      1  0.5120100000000  0.5664730000000  0.5880870000000 1.0
C      1  0.4905150000000  0.3727980000000  0.4839820000000 1.0
C      1  0.4517260000000  0.5066930000000  0.5921130000000 1.0
C      1  0.5205370000000  0.5194030000000  0.6033560000000 1.0
C      1  0.5401340000000  0.5375900000000  0.5383730000000 1.0
C      1  0.5940050000000  0.4616960000000  0.4261580000000 1.0
C      1  0.4840650000000  0.6267310000000  0.4961450000000 1.0
C      1  0.5115810000000  0.5865300000000  0.4722620000000 1.0
C      1  0.5480000000000  0.5115540000000  0.6002530000000 1.0
C      1  0.5398680000000  0.5855580000000  0.4710180000000 1.0
C      1  0.4494150000000  0.3985160000000  0.4857550000000 1.0
C      1  0.4225900000000  0.5881960000000  0.4050200000000 1.0
C      1  0.4200630000000  0.4580110000000  0.5720940000000 1.0
C      1  0.4854020000000  0.4367490000000  0.4197090000000 1.0
C      1  0.5152000000000  0.5120030000000  0.5037910000000 1.0
C      1  0.6157400000000  0.4466170000000  0.4959750000000 1.0
C      1  0.4909080000000  0.4777180000000  0.5985360000000 1.0
C      1  0.4166300000000  0.5158150000000  0.4133670000000 1.0
C      1  0.4447120000000  0.5544770000000  0.5889610000000 1.0
C      1  0.4971090000000  0.4589310000000  0.5272950000000 1.0
C      1  0.5795830000000  0.5645230000000  0.4882430000000 1.0
C      1  0.4449700000000  0.4510660000000  0.5004580000000 1.0
C      1  0.5159320000000  0.4881900000000  0.4473800000000 1.0
C      1  0.5545070000000  0.5825110000000  0.5225780000000 1.0
C      1  0.4331250000000  0.4061370000000  0.5077060000000 1.0
C      1  0.4912970000000  0.4983290000000  0.5023210000000 1.0
C      1  0.5813680000000  0.5088570000000  0.4266910000000 1.0
C      1  0.4977900000000  0.6077520000000  0.4837620000000 1.0
C      1  0.4304870000000  0.4324310000000  0.5131190000000 1.0
C      1  0.5347950000000  0.4602510000000  0.4091890000000 1.0
C      1  0.4482960000000  0.5793610000000  0.5751670000000 1.0
C      1  0.6225510000000  0.4942640000000  0.4873440000000 1.0
C      1  0.4765150000000  0.4941280000000  0.3789540000000 1.0
C      1  0.4723200000000  0.5387940000000  0.5429970000000 1.0
C      1  0.4347090000000  0.5282810000000  0.5794620000000 1.0
C      1  0.5401270000000  0.4198450000000  0.5832400000000 1.0
C      1  0.4789530000000  0.5483460000000  0.4186450000000 1.0
C      1  0.5602460000000  0.5218990000000  0.4932650000000 1.0
C      1  0.3837690000000  0.5557370000000  0.4708490000000 1.0
C      1  0.3933580000000  0.4831690000000  0.4735490000000 1.0
C      1  0.4863940000000  0.5215950000000  0.4275840000000 1.0
C      1  0.4010690000000  0.5460470000000  0.4501410000000 1.0
C      1  0.5071930000000  0.4211060000000  0.4109770000000 1.0
C      1  0.4342080000000  0.4672110000000  0.4148740000000 1.0
C      1  0.4071510000000  0.5433520000000  0.4220060000000 1.0
C      1  0.5391360000000  0.4619360000000  0.6039000000000 1.0
C      1  0.4400270000000  0.5843810000000  0.5482980000000 1.0
C      1  0.5608640000000  0.5461810000000  0.4484020000000 1.0
C      1  0.4317740000000  0.5594790000000  0.5056610000000 1.0
C      1  0.5974460000000  0.5627480000000  0.5110270000000 1.0
C      1  0.5934660000000  0.4410260000000  0.4463600000000 1.0
C      1  0.3767230000000  0.5186300000000  0.5018190000000 1.0
C      1  0.4880730000000  0.4641990000000  0.4108670000000 1.0
C      1  0.5801000000000  0.4354770000000  0.6102960000000 1.0
C      1  0.5504620000000  0.5727060000000  0.4476530000000 1.0
C      1  0.4678730000000  0.5134310000000  0.5027760000000 1.0
C      1  0.5979830000000  0.4108230000000  0.5325410000000 1.0
C      1  0.5529180000000  0.4781240000000  0.4789290000000 1.0
C      1  0.3939070000000  0.4962650000000  0.4988840000000 1.0
C      1  0.5325730000000  0.5672040000000  0.5328790000000 1.0
C      1  0.4704440000000  0.5945190000000  0.5843500000000 1.0
C      1  0.6094640000000  0.4830320000000  0.4637540000000 1.0
C      1  0.4199710000000  0.5291570000000  0.4640050000000 1.0
C      1  0.3800700000000  0.4597090000000  0.4696280000000 1.0
C      1  0.4945840000000  0.4168300000000  0.5041930000000 1.0
C      1  0.5453650000000  0.4255750000000  0.4517080000000 1.0
C      1  0.5009970000000  0.5068230000000  0.3786160000000 1.0
C      1  0.4614020000000  0.4865590000000  0.4496000000000 1.0
C      1  0.6173150000000  0.5431930000000  0.5090990000000 1.0
C      1  0.6097370000000  0.4251270000000  0.5129810000000 1.0
C      1  0.3849250000000  0.5456240000000  0.4980500000000 1.0
C      1  0.5572780000000  0.4055530000000  0.5659660000000 1.0
C      1  0.5794260000000  0.4035630000000  0.5507050000000 1.0
C      1  0.4272380000000  0.5621700000000  0.4112690000000 1.0
C      1  0.4719160000000  0.5201890000000  0.6101410000000 1.0
C      1  0.4259770000000  0.4181840000000  0.4412970000000 1.0
C      1  0.5800030000000  0.5037830000000  0.5452820000000 1.0
C      1  0.5972300000000  0.4883360000000  0.4374360000000 1.0
C      1  0.4696710000000  0.4602480000000  0.4585790000000 1.0
C      1  0.5610790000000  0.5285680000000  0.4256070000000 1.0
C      1  0.4438530000000  0.5042390000000  0.5150370000000 1.0
C      1  0.4017870000000  0.5485500000000  0.5453090000000 1.0
C      1  0.4952820000000  0.5683670000000  0.4295670000000 1.0
C      1  0.5293950000000  0.4692960000000  0.4658820000000 1.0
C      1  0.5957880000000  0.4566110000000  0.6036880000000 1.0
C      1  0.4453300000000  0.4590970000000  0.5809710000000 1.0
C      1  0.4770850000000  0.5136890000000  0.5503280000000 1.0
C      1  0.5193220000000  0.5270620000000  0.5573030000000 1.0
C      1  0.5820480000000  0.5764740000000  0.5315420000000 1.0
C      1  0.5924840000000  0.4907030000000  0.5674950000000 1.0
C      1  0.5162870000000  0.5394560000000  0.5829280000000 1.0
C      1  0.4983270000000  0.5656630000000  0.4582630000000 1.0
C      1  0.5652200000000  0.5272910000000  0.5533490000000 1.0
C      1  0.4688310000000  0.4578920000000  0.4870370000000 1.0
C      1  0.4778190000000  0.3967410000000  0.4914570000000 1.0
C      1  0.5527980000000  0.4359490000000  0.6034950000000 1.0
C      1  0.4123770000000  0.5266400000000  0.5613190000000 1.0
C      1  0.6246930000000  0.5204650000000  0.4968640000000 1.0
C      1  0.4633920000000  0.5050420000000  0.4278880000000 1.0
C      1  0.5033890000000  0.3515010000000  0.4762500000000 1.0
C      1  0.5262590000000  0.4398740000000  0.4672230000000 1.0
C      1  0.5041910000000  0.5720020000000  0.5287940000000 1.0
C      1  0.5131430000000  0.4756590000000  0.4204020000000 1.0
C      1  0.5191130000000  0.4250430000000  0.4909410000000 1.0
C      1  0.4011600000000  0.4756960000000  0.5652250000000 1.0
C      1  0.6062800000000  0.4530140000000  0.4692880000000 1.0
C      1  0.4630620000000  0.5474370000000  0.6107140000000 1.0
C      1  0.5838250000000  0.4793450000000  0.5918460000000 1.0
C      1  0.4149300000000  0.4894060000000  0.4260630000000 1.0
C      1  0.5113480000000  0.4579440000000  0.5938680000000 1.0
C      1  0.3848050000000  0.5660730000000  0.5583200000000 1.0
C      1  0.4398380000000  0.5438450000000  0.4814950000000 1.0
C      1  0.4672520000000  0.5344150000000  0.4833180000000 1.0
C      1  0.6279450000000  0.4715210000000  0.5047390000000 1.0
C      1  0.4700810000000  0.6439290000000  0.5098650000000 1.0
C      1  0.5348610000000  0.5613170000000  0.4007570000000 1.0
C      1  0.4366190000000  0.4016570000000  0.4603300000000 1.0
C      1  0.5419430000000  0.5337670000000  0.4037950000000 1.0
C      1  0.4655280000000  0.4398020000000  0.4394370000000 1.0
C      1  0.3984950000000  0.5020500000000  0.5615410000000 1.0
C      1  0.4074390000000  0.4965400000000  0.4534260000000 1.0
C      1  0.4182980000000  0.4961820000000  0.5132380000000 1.0
C      1  0.4626010000000  0.4793120000000  0.5895690000000 1.0
C      1  0.4881540000000  0.4705850000000  0.5033420000000 1.0
C      1  0.5081190000000  0.4772690000000  0.5457480000000 1.0
C      1  0.5033320000000  0.5040200000000  0.5524730000000 1.0
C      1  0.5738870000000  0.4869750000000  0.5229830000000 1.0
C      1  0.5306420000000  0.4335660000000  0.4039340000000 1.0
C      1  0.4646370000000  0.4747690000000  0.3971680000000 1.0
C      1  0.4057170000000  0.5532490000000  0.5167760000000 1.0
C      1  0.5246000000000  0.5161170000000  0.3888850000000 1.0
C      1  0.5671500000000  0.4948520000000  0.4963190000000 1.0
C      1  0.5562690000000  0.4377180000000  0.5230310000000 1.0
END
