TITL C-599890-3321-99 36764.4410396955 125000 -1185.96526619972 0 0 193 (C1) n - 1
REM
REM in /home/nfs/bkarasulu/CARBON/AIRSS/Generating-Clusters/TERSOFF/Only-C1/FIRE-HFTN
REM
REM
REM
REM
REM
REM ./C.cell (11c1c37f851c82e70ff6c80c92926a4b)
REM AIRSS Version 0.9.1 bugfix July 2018 build 013d7b7c2542+ Fri, 06 Jul 2018 19:26:36 +0100
REM compiler GCC version 9.2.1 20190827 (Red Hat 9.2.1-1)
REM options -cpp -mtune=generic -march=x86-64 -g -O0 -fpre-include=/usr/include/finclude/math-vector-fortran.h
REM seed -2107780034 1797979718 -1057522126 -2065434835 2029675828 -176743384 817443820 1063139097 -172638176 -585691121 -191015713 -1879715549 -423705852 -225669509 -1172161731 793841489 1970909843 -1178408973 -1024077422 2052715378 -1238261608 93229272 -1324285702 292785833 1591367021 1107069902 -2080645890 1016379632 300156189 449890811 642615642 1930641944 -1959793623
REM
CELL 1.54180   50.00000   50.00000   50.00000   90.00000   90.00000   90.00000
LATT -1
SFAC C  
C      1  0.3865870000000  0.5059630000000  0.4584580000000 1.0
C      1  0.4680840000000  0.5062490000000  0.3929420000000 1.0
C      1  0.4770390000000  0.5919920000000  0.4646520000000 1.0
C      1  0.5371600000000  0.5397380000000  0.3983810000000 1.0
C      1  0.6021820000000  0.4149930000000  0.4732550000000 1.0
C      1  0.4528410000000  0.5036350000000  0.6011270000000 1.0
C      1  0.5481300000000  0.5982660000000  0.4433310000000 1.0
C      1  0.4399990000000  0.6137590000000  0.5857320000000 1.0
C      1  0.4319450000000  0.5324570000000  0.4147220000000 1.0
C      1  0.4789480000000  0.4057330000000  0.4178970000000 1.0
C      1  0.5002430000000  0.4778500000000  0.5079880000000 1.0
C      1  0.5215470000000  0.5927570000000  0.5248190000000 1.0
C      1  0.5284110000000  0.5427850000000  0.4495820000000 1.0
C      1  0.4911900000000  0.5675350000000  0.4725170000000 1.0
C      1  0.4006780000000  0.5522790000000  0.5291230000000 1.0
C      1  0.4483770000000  0.4128170000000  0.5006720000000 1.0
C      1  0.5205020000000  0.5971460000000  0.4517660000000 1.0
C      1  0.4763950000000  0.5557540000000  0.4003910000000 1.0
C      1  0.5455630000000  0.4351760000000  0.4194840000000 1.0
C      1  0.4809360000000  0.3713790000000  0.4531430000000 1.0
C      1  0.5625390000000  0.4292530000000  0.5746550000000 1.0
C      1  0.4632080000000  0.4736950000000  0.4742510000000 1.0
C      1  0.5187520000000  0.5631380000000  0.5172760000000 1.0
C      1  0.4782990000000  0.5010050000000  0.6162290000000 1.0
C      1  0.5527640000000  0.5830720000000  0.4184720000000 1.0
C      1  0.4600780000000  0.4272790000000  0.4111970000000 1.0
C      1  0.4932550000000  0.4182990000000  0.4823470000000 1.0
C      1  0.5389380000000  0.5981260000000  0.5478900000000 1.0
C      1  0.5166420000000  0.5233600000000  0.3284960000000 1.0
C      1  0.4654700000000  0.5524000000000  0.5092230000000 1.0
C      1  0.4913800000000  0.5182050000000  0.4627490000000 1.0
C      1  0.5619310000000  0.4157730000000  0.5466220000000 1.0
C      1  0.4997820000000  0.6218710000000  0.4940690000000 1.0
C      1  0.5853780000000  0.5524670000000  0.5251370000000 1.0
C      1  0.4894510000000  0.4668760000000  0.4847890000000 1.0
C      1  0.5237880000000  0.3867800000000  0.4384030000000 1.0
C      1  0.5986880000000  0.5212070000000  0.4367910000000 1.0
C      1  0.5640870000000  0.5919130000000  0.4673540000000 1.0
C      1  0.4965710000000  0.5083240000000  0.3953360000000 1.0
C      1  0.4856960000000  0.5019720000000  0.4413090000000 1.0
C      1  0.6123430000000  0.5178000000000  0.4631100000000 1.0
C      1  0.5614140000000  0.5290840000000  0.3831270000000 1.0
C      1  0.5328880000000  0.5053640000000  0.4833070000000 1.0
C      1  0.5466280000000  0.3854640000000  0.4537220000000 1.0
C      1  0.4250760000000  0.5108560000000  0.6017770000000 1.0
C      1  0.5650790000000  0.5125480000000  0.5707880000000 1.0
C      1  0.4838180000000  0.4590980000000  0.4308690000000 1.0
C      1  0.5631470000000  0.5111720000000  0.5228730000000 1.0
C      1  0.5048080000000  0.4467540000000  0.4447800000000 1.0
C      1  0.4759260000000  0.5372080000000  0.5596800000000 1.0
C      1  0.5467990000000  0.5344660000000  0.4284600000000 1.0
C      1  0.4552480000000  0.5921360000000  0.4475370000000 1.0
C      1  0.4970310000000  0.4432900000000  0.4716650000000 1.0
C      1  0.4770640000000  0.3638120000000  0.4785990000000 1.0
C      1  0.5141320000000  0.5283270000000  0.3544090000000 1.0
C      1  0.5352640000000  0.4014800000000  0.5427350000000 1.0
C      1  0.5207370000000  0.5144430000000  0.3043400000000 1.0
C      1  0.5134860000000  0.4048540000000  0.4929070000000 1.0
C      1  0.5829160000000  0.4226630000000  0.5187530000000 1.0
C      1  0.5183230000000  0.5229480000000  0.4671780000000 1.0
C      1  0.5797420000000  0.4885000000000  0.5714610000000 1.0
C      1  0.6033040000000  0.4430860000000  0.4760250000000 1.0
C      1  0.4321620000000  0.4147830000000  0.4498060000000 1.0
C      1  0.4038320000000  0.5256330000000  0.4654220000000 1.0
C      1  0.4153460000000  0.5570570000000  0.5018270000000 1.0
C      1  0.5996570000000  0.4506640000000  0.5040110000000 1.0
C      1  0.5368400000000  0.5039160000000  0.5323220000000 1.0
C      1  0.5505920000000  0.5189910000000  0.6208900000000 1.0
C      1  0.3843910000000  0.5045220000000  0.5189330000000 1.0
C      1  0.5452470000000  0.4865200000000  0.6073420000000 1.0
C      1  0.4385370000000  0.5127230000000  0.5012630000000 1.0
C      1  0.5730550000000  0.5685750000000  0.5443660000000 1.0
C      1  0.5607100000000  0.5024910000000  0.4748560000000 1.0
C      1  0.5328430000000  0.4464230000000  0.4415480000000 1.0
C      1  0.5607870000000  0.5389210000000  0.5786090000000 1.0
C      1  0.4229880000000  0.5547140000000  0.4310970000000 1.0
C      1  0.5473450000000  0.5442540000000  0.6039120000000 1.0
C      1  0.4439000000000  0.4646570000000  0.4936660000000 1.0
C      1  0.4077940000000  0.4907530000000  0.6119960000000 1.0
C      1  0.5282230000000  0.4569560000000  0.5591000000000 1.0
C      1  0.3708540000000  0.4365060000000  0.5090810000000 1.0
C      1  0.6020780000000  0.4805130000000  0.5050820000000 1.0
C      1  0.4517870000000  0.4406820000000  0.5075610000000 1.0
C      1  0.5315300000000  0.4883430000000  0.4190650000000 1.0
C      1  0.3952320000000  0.4548560000000  0.4373000000000 1.0
C      1  0.5802070000000  0.6031060000000  0.5123210000000 1.0
C      1  0.4194720000000  0.4548140000000  0.4228060000000 1.0
C      1  0.5140740000000  0.5674600000000  0.4540980000000 1.0
C      1  0.5039390000000  0.5344830000000  0.5546050000000 1.0
C      1  0.4788890000000  0.3707580000000  0.5057010000000 1.0
C      1  0.5656880000000  0.5368920000000  0.5092850000000 1.0
C      1  0.4905880000000  0.4649620000000  0.5307370000000 1.0
C      1  0.5427690000000  0.5549650000000  0.5016840000000 1.0
C      1  0.4485470000000  0.5942750000000  0.6023880000000 1.0
C      1  0.5363150000000  0.4417920000000  0.5819060000000 1.0
C      1  0.5145490000000  0.5258090000000  0.3823030000000 1.0
C      1  0.4998250000000  0.4990510000000  0.5952030000000 1.0
C      1  0.3825380000000  0.4543100000000  0.5849200000000 1.0
C      1  0.4990900000000  0.6113400000000  0.4673780000000 1.0
C      1  0.4365580000000  0.4079560000000  0.4754150000000 1.0
C      1  0.5928060000000  0.4632490000000  0.4586510000000 1.0
C      1  0.5297390000000  0.5697910000000  0.4025700000000 1.0
C      1  0.5263900000000  0.4971340000000  0.5869940000000 1.0
C      1  0.5314920000000  0.5697580000000  0.5964610000000 1.0
C      1  0.4337920000000  0.6114230000000  0.5583010000000 1.0
C      1  0.5774940000000  0.5668810000000  0.4197430000000 1.0
C      1  0.4416440000000  0.4867050000000  0.5399620000000 1.0
C      1  0.4028100000000  0.5699620000000  0.4764550000000 1.0
C      1  0.3928960000000  0.4701360000000  0.6037070000000 1.0
C      1  0.5537490000000  0.4870800000000  0.4039410000000 1.0
C      1  0.4010000000000  0.4844860000000  0.5114220000000 1.0
C      1  0.5999720000000  0.5398970000000  0.4770820000000 1.0
C      1  0.4382100000000  0.5784150000000  0.4322620000000 1.0
C      1  0.4122410000000  0.5283790000000  0.5828740000000 1.0
C      1  0.4306620000000  0.4852540000000  0.5110460000000 1.0
C      1  0.5830850000000  0.4021120000000  0.4900810000000 1.0
C      1  0.4949870000000  0.3879120000000  0.4346350000000 1.0
C      1  0.4869510000000  0.4836610000000  0.5745140000000 1.0
C      1  0.5693740000000  0.5017780000000  0.3855170000000 1.0
C      1  0.4451010000000  0.5967900000000  0.5142900000000 1.0
C      1  0.5899990000000  0.4910310000000  0.3713880000000 1.0
C      1  0.5252360000000  0.5496280000000  0.5443340000000 1.0
C      1  0.4699130000000  0.4792410000000  0.4468800000000 1.0
C      1  0.4550860000000  0.4419810000000  0.5718090000000 1.0
C      1  0.5442260000000  0.4418550000000  0.4892020000000 1.0
C      1  0.3898330000000  0.5258840000000  0.5364530000000 1.0
C      1  0.4641320000000  0.3936520000000  0.5165200000000 1.0
C      1  0.3762480000000  0.4438060000000  0.5612700000000 1.0
C      1  0.4446420000000  0.4690000000000  0.5625980000000 1.0
C      1  0.4592950000000  0.4860380000000  0.5796140000000 1.0
C      1  0.5578760000000  0.3965970000000  0.4778750000000 1.0
C      1  0.5806540000000  0.4453880000000  0.5909030000000 1.0
C      1  0.4540600000000  0.6086170000000  0.5384200000000 1.0
C      1  0.4659020000000  0.4407420000000  0.5989700000000 1.0
C      1  0.4600950000000  0.5706340000000  0.5961900000000 1.0
C      1  0.4099920000000  0.5970820000000  0.5521790000000 1.0
C      1  0.4778810000000  0.4768700000000  0.6317500000000 1.0
C      1  0.4685160000000  0.4276650000000  0.5508930000000 1.0
C      1  0.6033400000000  0.5682300000000  0.4814650000000 1.0
C      1  0.5668870000000  0.5955740000000  0.5374470000000 1.0
C      1  0.4999860000000  0.6105660000000  0.5203780000000 1.0
C      1  0.5759200000000  0.4748580000000  0.5463530000000 1.0
C      1  0.5483530000000  0.5721250000000  0.4806810000000 1.0
C      1  0.5103130000000  0.4424480000000  0.6236310000000 1.0
C      1  0.4353070000000  0.4301800000000  0.4261010000000 1.0
C      1  0.5391850000000  0.4140580000000  0.4895070000000 1.0
C      1  0.5219740000000  0.5877920000000  0.5724610000000 1.0
C      1  0.4794380000000  0.4031810000000  0.5410540000000 1.0
C      1  0.5000660000000  0.5701770000000  0.4011490000000 1.0
C      1  0.5758200000000  0.4736490000000  0.5946710000000 1.0
C      1  0.4922880000000  0.5865190000000  0.5640690000000 1.0
C      1  0.5503750000000  0.4611880000000  0.5406160000000 1.0
C      1  0.5472180000000  0.4558600000000  0.4644620000000 1.0
C      1  0.5459760000000  0.4542330000000  0.5138690000000 1.0
C      1  0.5160380000000  0.4237080000000  0.6427290000000 1.0
C      1  0.5517760000000  0.5544710000000  0.5569150000000 1.0
C      1  0.5022090000000  0.4684400000000  0.5559480000000 1.0
C      1  0.4292560000000  0.4794330000000  0.4101630000000 1.0
C      1  0.5765390000000  0.5391490000000  0.4291700000000 1.0
C      1  0.4426220000000  0.5698850000000  0.5067610000000 1.0
C      1  0.3803070000000  0.4482390000000  0.4583930000000 1.0
C      1  0.4746730000000  0.5640050000000  0.5728490000000 1.0
C      1  0.4582240000000  0.5263250000000  0.5164610000000 1.0
C      1  0.4593030000000  0.5182950000000  0.5434570000000 1.0
C      1  0.5025930000000  0.3679620000000  0.5225120000000 1.0
C      1  0.3723750000000  0.4376770000000  0.5356480000000 1.0
C      1  0.5675820000000  0.4762710000000  0.4634200000000 1.0
C      1  0.3729170000000  0.4407560000000  0.4828660000000 1.0
C      1  0.4558410000000  0.4787390000000  0.3977810000000 1.0
C      1  0.4147360000000  0.5556980000000  0.5762860000000 1.0
C      1  0.5580140000000  0.4246850000000  0.3991240000000 1.0
C      1  0.4574030000000  0.5331460000000  0.4007260000000 1.0
C      1  0.5379300000000  0.5040380000000  0.5615970000000 1.0
C      1  0.4916960000000  0.5593740000000  0.5002470000000 1.0
C      1  0.4189140000000  0.5284790000000  0.4895990000000 1.0
C      1  0.5840270000000  0.4915470000000  0.5240580000000 1.0
C      1  0.3941700000000  0.5176050000000  0.5634890000000 1.0
C      1  0.5305710000000  0.4533490000000  0.6075940000000 1.0
C      1  0.5214040000000  0.4966530000000  0.5087160000000 1.0
C      1  0.4706410000000  0.4542970000000  0.4061800000000 1.0
C      1  0.4831990000000  0.4512170000000  0.6198040000000 1.0
C      1  0.5076770000000  0.3914230000000  0.5399800000000 1.0
C      1  0.4048170000000  0.5517910000000  0.4529760000000 1.0
C      1  0.5750140000000  0.5273060000000  0.4832100000000 1.0
C      1  0.4819920000000  0.6055590000000  0.5430910000000 1.0
C      1  0.6719590000000  0.4827410000000  0.4849500000000 1.0
C      1  0.6465960000000  0.4884450000000  0.4831700000000 1.0
C      1  0.4705260000000  0.4454570000000  0.5283580000000 1.0
C      1  0.5055320000000  0.4990230000000  0.4203440000000 1.0
C      1  0.6191460000000  0.4957420000000  0.4831250000000 1.0
C      1  0.4068030000000  0.5691540000000  0.5521760000000 1.0
C      1  0.5871050000000  0.5924950000000  0.4852800000000 1.0
C      1  0.4200420000000  0.5062100000000  0.4146900000000 1.0
END
