TITL C-599897-7526-42 -4216.15547898723 125000 -426.48376115627 0 0 74 (C1) n - 1
REM
REM in /home/nfs/bkarasulu/CARBON/AIRSS/Generating-Clusters/TERSOFF/Only-C1/FIRE-HFTN
REM
REM
REM
REM
REM
REM ./C.cell (11c1c37f851c82e70ff6c80c92926a4b)
REM AIRSS Version 0.9.1 bugfix July 2018 build 013d7b7c2542+ Fri, 06 Jul 2018 19:26:36 +0100
REM compiler GCC version 9.2.1 20190827 (Red Hat 9.2.1-1)
REM options -cpp -mtune=generic -march=x86-64 -g -O0 -fpre-include=/usr/include/finclude/math-vector-fortran.h
REM seed -1512111159 213370675 -1933097212 -609477202 -347292122 -1463042986 -1256669646 1012308283 -214694979 1614812714 1986205342 -1488550620 948137958 -316647417 269324459 -1723551602 1608069437 -1654280568 1134099703 276098271 698662458 -559423206 2046448412 -1251114855 -969820270 1903567221 1826319292 1998472620 -1641252016 -1774246779 622864553 1095378430 2012623283
REM
CELL 1.54180   50.00000   50.00000   50.00000   90.00000   90.00000   90.00000
LATT -1
SFAC C  
C      1  0.4923510000000  0.4346220000000  0.5019900000000 1.0
C      1  0.4347000000000  0.4756230000000  0.4575330000000 1.0
C      1  0.5864620000000  0.5091930000000  0.4993440000000 1.0
C      1  0.5223190000000  0.5049380000000  0.4682660000000 1.0
C      1  0.4983780000000  0.4832190000000  0.5816350000000 1.0
C      1  0.5009640000000  0.4589400000000  0.4453510000000 1.0
C      1  0.5593970000000  0.5470900000000  0.4829570000000 1.0
C      1  0.4025210000000  0.4810980000000  0.5510970000000 1.0
C      1  0.4982850000000  0.4622000000000  0.5015820000000 1.0
C      1  0.4366300000000  0.5523060000000  0.4632870000000 1.0
C      1  0.4521370000000  0.4535630000000  0.4547650000000 1.0
C      1  0.4592110000000  0.5364310000000  0.4566230000000 1.0
C      1  0.5117760000000  0.5183100000000  0.5104970000000 1.0
C      1  0.5057720000000  0.5433930000000  0.5771560000000 1.0
C      1  0.5339310000000  0.4706390000000  0.5343750000000 1.0
C      1  0.5069270000000  0.5308410000000  0.4364170000000 1.0
C      1  0.5492550000000  0.5095850000000  0.5461380000000 1.0
C      1  0.5731470000000  0.5482420000000  0.5309440000000 1.0
C      1  0.4804410000000  0.4898510000000  0.5332310000000 1.0
C      1  0.4760740000000  0.5726980000000  0.5379960000000 1.0
C      1  0.4735850000000  0.5266960000000  0.4794460000000 1.0
C      1  0.5811730000000  0.5284940000000  0.4784170000000 1.0
C      1  0.4725050000000  0.3719050000000  0.4700280000000 1.0
C      1  0.5061450000000  0.4749180000000  0.5265590000000 1.0
C      1  0.5293870000000  0.5546900000000  0.5607820000000 1.0
C      1  0.4603570000000  0.5160490000000  0.4367680000000 1.0
C      1  0.5572900000000  0.4736660000000  0.5191480000000 1.0
C      1  0.5653910000000  0.4676180000000  0.4739250000000 1.0
C      1  0.5726290000000  0.4826300000000  0.4968580000000 1.0
C      1  0.4951660000000  0.4809200000000  0.4260740000000 1.0
C      1  0.4966760000000  0.5677490000000  0.4857870000000 1.0
C      1  0.4484870000000  0.5218870000000  0.5495090000000 1.0
C      1  0.4822610000000  0.5609830000000  0.5639910000000 1.0
C      1  0.5429550000000  0.4386880000000  0.4834750000000 1.0
C      1  0.5894190000000  0.5224530000000  0.5265080000000 1.0
C      1  0.5154910000000  0.5551000000000  0.5355350000000 1.0
C      1  0.5777580000000  0.5060130000000  0.5469740000000 1.0
C      1  0.5386200000000  0.5203210000000  0.5199100000000 1.0
C      1  0.4638040000000  0.4905650000000  0.5080710000000 1.0
C      1  0.4762890000000  0.5168590000000  0.5431860000000 1.0
C      1  0.4014320000000  0.4867470000000  0.5024600000000 1.0
C      1  0.4988320000000  0.5092680000000  0.4846360000000 1.0
C      1  0.4786600000000  0.4438540000000  0.4567510000000 1.0
C      1  0.5088670000000  0.5123750000000  0.5807570000000 1.0
C      1  0.5585250000000  0.5565170000000  0.5559230000000 1.0
C      1  0.5281240000000  0.4536700000000  0.4543560000000 1.0
C      1  0.4184710000000  0.4793250000000  0.4807030000000 1.0
C      1  0.5400350000000  0.5000760000000  0.4463320000000 1.0
C      1  0.5084170000000  0.4560990000000  0.5705430000000 1.0
C      1  0.5503940000000  0.5467820000000  0.4362660000000 1.0
C      1  0.4831050000000  0.4241580000000  0.4774050000000 1.0
C      1  0.5355670000000  0.4617150000000  0.5612610000000 1.0
C      1  0.4235260000000  0.5495520000000  0.4871260000000 1.0
C      1  0.5497950000000  0.4740390000000  0.4505040000000 1.0
C      1  0.5527590000000  0.5443200000000  0.5101680000000 1.0
C      1  0.4968820000000  0.4737680000000  0.3992930000000 1.0
C      1  0.4876430000000  0.5091450000000  0.4310800000000 1.0
C      1  0.4256220000000  0.5194710000000  0.5317590000000 1.0
C      1  0.4834510000000  0.5740110000000  0.5102080000000 1.0
C      1  0.5101570000000  0.4247440000000  0.5229790000000 1.0
C      1  0.5353730000000  0.5233630000000  0.4296360000000 1.0
C      1  0.3742660000000  0.4858120000000  0.4977170000000 1.0
C      1  0.5018960000000  0.4330720000000  0.5512870000000 1.0
C      1  0.5124560000000  0.5552770000000  0.4633580000000 1.0
C      1  0.4318840000000  0.5308650000000  0.5064150000000 1.0
C      1  0.5422320000000  0.5563910000000  0.4623430000000 1.0
C      1  0.4783500000000  0.3970990000000  0.4732180000000 1.0
C      1  0.4096650000000  0.4956300000000  0.5289650000000 1.0
C      1  0.5359380000000  0.5084690000000  0.5705590000000 1.0
C      1  0.4547670000000  0.5158850000000  0.4985800000000 1.0
C      1  0.4967290000000  0.5330580000000  0.5298700000000 1.0
C      1  0.5358720000000  0.4253280000000  0.5077500000000 1.0
C      1  0.4843100000000  0.4825190000000  0.4885590000000 1.0
C      1  0.4399370000000  0.4966100000000  0.4390960000000 1.0
END
