TITL C-599891-72-683 2236.93993164194 125000 -1184.78218064406 0 0 193 (C1) n - 1
REM
REM in /home/nfs/bkarasulu/CARBON/AIRSS/Generating-Clusters/TERSOFF/Only-C1/FIRE-HFTN
REM
REM
REM
REM
REM
REM ./C.cell (11c1c37f851c82e70ff6c80c92926a4b)
REM AIRSS Version 0.9.1 bugfix July 2018 build 013d7b7c2542+ Fri, 06 Jul 2018 19:26:36 +0100
REM compiler GCC version 9.2.1 20190827 (Red Hat 9.2.1-1)
REM options -cpp -mtune=generic -march=x86-64 -g -O0 -fpre-include=/usr/include/finclude/math-vector-fortran.h
REM seed 64858190 -2106117976 345987773 -1259384651 1597149253 315503351 -1880601562 -1732947273 1821080394 -295309582 1580691113 -887220434 665222475 1054369341 -448029774 1706989698 -1280230970 12065841 1358836313 -43795033 1785885379 466558750 1950200288 1766830038 -2111870757 -683534210 338676338 -702172758 -2038438433 -623529815 883865184 -472734339 -1570770224
REM
CELL 1.54180   50.00000   50.00000   50.00000   90.00000   90.00000   90.00000
LATT -1
SFAC C  
C      1  0.5600150000000  0.4148590000000  0.4582060000000 1.0
C      1  0.5264810000000  0.3842060000000  0.5191980000000 1.0
C      1  0.4779830000000  0.4814080000000  0.4939000000000 1.0
C      1  0.5266340000000  0.5159120000000  0.4708890000000 1.0
C      1  0.5280140000000  0.5340420000000  0.5545820000000 1.0
C      1  0.5717090000000  0.5706900000000  0.5571390000000 1.0
C      1  0.4022760000000  0.5928840000000  0.4835230000000 1.0
C      1  0.3807650000000  0.5469500000000  0.4805500000000 1.0
C      1  0.3759550000000  0.4589930000000  0.5161760000000 1.0
C      1  0.5554960000000  0.5763370000000  0.4442390000000 1.0
C      1  0.5076240000000  0.5224860000000  0.3873090000000 1.0
C      1  0.4807100000000  0.6182390000000  0.4614950000000 1.0
C      1  0.4090970000000  0.4689220000000  0.4764990000000 1.0
C      1  0.4152320000000  0.4529710000000  0.5790700000000 1.0
C      1  0.4968100000000  0.4055280000000  0.4241200000000 1.0
C      1  0.5142680000000  0.4011340000000  0.5694980000000 1.0
C      1  0.4041330000000  0.4253950000000  0.5408010000000 1.0
C      1  0.5119620000000  0.6199920000000  0.4279070000000 1.0
C      1  0.4274840000000  0.4275750000000  0.4952470000000 1.0
C      1  0.4877190000000  0.4779860000000  0.4177510000000 1.0
C      1  0.5227330000000  0.5045600000000  0.4438510000000 1.0
C      1  0.5767420000000  0.4985310000000  0.4912040000000 1.0
C      1  0.5540150000000  0.5249710000000  0.4074120000000 1.0
C      1  0.5733640000000  0.4491380000000  0.4837570000000 1.0
C      1  0.5986850000000  0.5905220000000  0.5246350000000 1.0
C      1  0.4462560000000  0.4874310000000  0.5389960000000 1.0
C      1  0.3906360000000  0.4626690000000  0.5659710000000 1.0
C      1  0.3886810000000  0.5273200000000  0.4640100000000 1.0
C      1  0.5289320000000  0.3853400000000  0.4892500000000 1.0
C      1  0.4538340000000  0.3901340000000  0.5020060000000 1.0
C      1  0.5952810000000  0.4637310000000  0.5206450000000 1.0
C      1  0.5831140000000  0.5955050000000  0.5470110000000 1.0
C      1  0.4346240000000  0.4625180000000  0.3860810000000 1.0
C      1  0.5089250000000  0.4222870000000  0.4743390000000 1.0
C      1  0.5297420000000  0.5806700000000  0.5808970000000 1.0
C      1  0.4903980000000  0.5076340000000  0.5714500000000 1.0
C      1  0.5478220000000  0.5120420000000  0.5446270000000 1.0
C      1  0.5457170000000  0.4535470000000  0.3930150000000 1.0
C      1  0.4189280000000  0.5707960000000  0.4408110000000 1.0
C      1  0.5838340000000  0.5713250000000  0.4498070000000 1.0
C      1  0.4865330000000  0.5965860000000  0.5629430000000 1.0
C      1  0.6059810000000  0.4804290000000  0.5835680000000 1.0
C      1  0.4267240000000  0.4788580000000  0.5203890000000 1.0
C      1  0.4212260000000  0.6047110000000  0.5023240000000 1.0
C      1  0.5782610000000  0.5207610000000  0.5394370000000 1.0
C      1  0.4412260000000  0.5381310000000  0.4711570000000 1.0
C      1  0.5307640000000  0.6058220000000  0.5655770000000 1.0
C      1  0.4838500000000  0.5511690000000  0.5924240000000 1.0
C      1  0.5957250000000  0.4378880000000  0.5327010000000 1.0
C      1  0.4034750000000  0.4644080000000  0.4233150000000 1.0
C      1  0.4629040000000  0.3995910000000  0.5711710000000 1.0
C      1  0.3856480000000  0.5711460000000  0.4915020000000 1.0
C      1  0.5085780000000  0.6094890000000  0.5476880000000 1.0
C      1  0.4970880000000  0.5487610000000  0.4258300000000 1.0
C      1  0.5454240000000  0.6499450000000  0.4758940000000 1.0
C      1  0.4206520000000  0.4270540000000  0.5649320000000 1.0
C      1  0.5819920000000  0.5491620000000  0.5387340000000 1.0
C      1  0.4531200000000  0.4686810000000  0.5582600000000 1.0
C      1  0.4834680000000  0.5624700000000  0.5010350000000 1.0
C      1  0.6140300000000  0.4974620000000  0.5643210000000 1.0
C      1  0.5255570000000  0.6094830000000  0.4943620000000 1.0
C      1  0.4762160000000  0.5960240000000  0.4432930000000 1.0
C      1  0.4594060000000  0.4748400000000  0.6045480000000 1.0
C      1  0.5286440000000  0.4671120000000  0.5273390000000 1.0
C      1  0.5066080000000  0.5022010000000  0.3680460000000 1.0
C      1  0.5075150000000  0.5535580000000  0.4532170000000 1.0
C      1  0.4212650000000  0.5222580000000  0.4257070000000 1.0
C      1  0.4492430000000  0.5986210000000  0.4980980000000 1.0
C      1  0.3745800000000  0.4823200000000  0.5758940000000 1.0
C      1  0.4427030000000  0.5597890000000  0.5286250000000 1.0
C      1  0.5546280000000  0.3977000000000  0.4819660000000 1.0
C      1  0.5471420000000  0.5363840000000  0.4728860000000 1.0
C      1  0.6040400000000  0.5046860000000  0.5384870000000 1.0
C      1  0.4697290000000  0.4992640000000  0.4738910000000 1.0
C      1  0.5728680000000  0.5212380000000  0.5992020000000 1.0
C      1  0.4830390000000  0.5192030000000  0.5462320000000 1.0
C      1  0.5528760000000  0.4266780000000  0.5766980000000 1.0
C      1  0.5251630000000  0.4224510000000  0.5876300000000 1.0
C      1  0.4483130000000  0.4213540000000  0.5619880000000 1.0
C      1  0.4233240000000  0.4923220000000  0.4637600000000 1.0
C      1  0.5264870000000  0.6303270000000  0.4750170000000 1.0
C      1  0.5934930000000  0.5527600000000  0.4315580000000 1.0
C      1  0.5250920000000  0.5186670000000  0.6088080000000 1.0
C      1  0.6236460000000  0.4816420000000  0.4880280000000 1.0
C      1  0.6181010000000  0.4302840000000  0.5467710000000 1.0
C      1  0.5343970000000  0.4720910000000  0.4827640000000 1.0
C      1  0.4625380000000  0.4338020000000  0.4387270000000 1.0
C      1  0.4150100000000  0.4130400000000  0.5178990000000 1.0
C      1  0.5606150000000  0.4936190000000  0.5936850000000 1.0
C      1  0.4567400000000  0.5137060000000  0.5368040000000 1.0
C      1  0.5046120000000  0.5551640000000  0.5180220000000 1.0
C      1  0.4721070000000  0.4418770000000  0.5234700000000 1.0
C      1  0.4618050000000  0.4103560000000  0.4563440000000 1.0
C      1  0.5984640000000  0.5633330000000  0.5192240000000 1.0
C      1  0.5038930000000  0.5368860000000  0.5386530000000 1.0
C      1  0.6457680000000  0.5089250000000  0.4075630000000 1.0
C      1  0.6102520000000  0.4391160000000  0.4606120000000 1.0
C      1  0.4466420000000  0.4094690000000  0.4804940000000 1.0
C      1  0.5559140000000  0.5671680000000  0.5807100000000 1.0
C      1  0.5093500000000  0.4481430000000  0.5982030000000 1.0
C      1  0.5340110000000  0.4958230000000  0.5220780000000 1.0
C      1  0.5285000000000  0.4549280000000  0.4417530000000 1.0
C      1  0.4058070000000  0.5922700000000  0.4545330000000 1.0
C      1  0.4306100000000  0.5740140000000  0.5496570000000 1.0
C      1  0.4503820000000  0.4853980000000  0.4580100000000 1.0
C      1  0.4632580000000  0.4584770000000  0.5019350000000 1.0
C      1  0.5049740000000  0.5725560000000  0.4104790000000 1.0
C      1  0.5295290000000  0.5660300000000  0.5116120000000 1.0
C      1  0.5830480000000  0.4314830000000  0.4642640000000 1.0
C      1  0.4048400000000  0.4964780000000  0.5140690000000 1.0
C      1  0.4016120000000  0.4547430000000  0.4508310000000 1.0
C      1  0.6143070000000  0.4859570000000  0.5173150000000 1.0
C      1  0.5255360000000  0.5329550000000  0.5846490000000 1.0
C      1  0.5313850000000  0.3965780000000  0.5453620000000 1.0
C      1  0.4343560000000  0.6020210000000  0.5508440000000 1.0
C      1  0.4117810000000  0.5229650000000  0.5194490000000 1.0
C      1  0.5476630000000  0.4696090000000  0.4579000000000 1.0
C      1  0.5838730000000  0.4741580000000  0.4247960000000 1.0
C      1  0.4615290000000  0.4432350000000  0.5491250000000 1.0
C      1  0.5773180000000  0.4706940000000  0.4999090000000 1.0
C      1  0.4325970000000  0.4580380000000  0.4977420000000 1.0
C      1  0.5173520000000  0.4529100000000  0.5481620000000 1.0
C      1  0.4782440000000  0.5215500000000  0.5936300000000 1.0
C      1  0.4400950000000  0.4681960000000  0.5839910000000 1.0
C      1  0.6291270000000  0.4941330000000  0.4211050000000 1.0
C      1  0.4845170000000  0.5537820000000  0.4722910000000 1.0
C      1  0.4803200000000  0.4545870000000  0.6087150000000 1.0
C      1  0.4533780000000  0.5130830000000  0.6354200000000 1.0
C      1  0.4192390000000  0.6145820000000  0.5295860000000 1.0
C      1  0.5138300000000  0.6144220000000  0.5203340000000 1.0
C      1  0.4884140000000  0.5259760000000  0.4092470000000 1.0
C      1  0.5070890000000  0.3938850000000  0.4705750000000 1.0
C      1  0.5319000000000  0.5366100000000  0.3918610000000 1.0
C      1  0.5106330000000  0.4321340000000  0.4997500000000 1.0
C      1  0.4404660000000  0.5622070000000  0.4566740000000 1.0
C      1  0.5067370000000  0.6293320000000  0.4548970000000 1.0
C      1  0.5708090000000  0.4453380000000  0.5876640000000 1.0
C      1  0.4603070000000  0.6077230000000  0.5611600000000 1.0
C      1  0.5710460000000  0.4038410000000  0.5051460000000 1.0
C      1  0.3882000000000  0.4779180000000  0.4983630000000 1.0
C      1  0.4679960000000  0.5272840000000  0.4737160000000 1.0
C      1  0.4347380000000  0.5320880000000  0.6807410000000 1.0
C      1  0.3573490000000  0.4621320000000  0.3948200000000 1.0
C      1  0.5173700000000  0.4564330000000  0.3861200000000 1.0
C      1  0.4820470000000  0.4297780000000  0.4169580000000 1.0
C      1  0.5534490000000  0.5701000000000  0.4153720000000 1.0
C      1  0.5745020000000  0.4183290000000  0.5296570000000 1.0
C      1  0.4399220000000  0.5020980000000  0.4141380000000 1.0
C      1  0.5376440000000  0.4926000000000  0.6143150000000 1.0
C      1  0.5301210000000  0.5653350000000  0.3992630000000 1.0
C      1  0.6106590000000  0.4788790000000  0.4354240000000 1.0
C      1  0.5728980000000  0.5465440000000  0.4124000000000 1.0
C      1  0.4090280000000  0.5129820000000  0.4506190000000 1.0
C      1  0.3794740000000  0.4628340000000  0.4085710000000 1.0
C      1  0.5669970000000  0.5476520000000  0.5981960000000 1.0
C      1  0.4985780000000  0.5747330000000  0.5813820000000 1.0
C      1  0.5707110000000  0.4598070000000  0.4030610000000 1.0
C      1  0.4555140000000  0.4595810000000  0.4473450000000 1.0
C      1  0.3858240000000  0.4480450000000  0.5407080000000 1.0
C      1  0.4590110000000  0.5741200000000  0.5098140000000 1.0
C      1  0.5135010000000  0.4904560000000  0.5729060000000 1.0
C      1  0.4299710000000  0.3881690000000  0.5182060000000 1.0
C      1  0.4708790000000  0.5025220000000  0.4137040000000 1.0
C      1  0.5431420000000  0.4941570000000  0.5685970000000 1.0
C      1  0.4374850000000  0.5325630000000  0.5273730000000 1.0
C      1  0.4658520000000  0.5731950000000  0.4556490000000 1.0
C      1  0.5260110000000  0.4664860000000  0.6170730000000 1.0
C      1  0.4439770000000  0.5226390000000  0.6582700000000 1.0
C      1  0.4787790000000  0.3959940000000  0.5139100000000 1.0
C      1  0.5709350000000  0.5239240000000  0.4827670000000 1.0
C      1  0.5249290000000  0.4084270000000  0.4229400000000 1.0
C      1  0.5478920000000  0.5070880000000  0.4284860000000 1.0
C      1  0.5094970000000  0.4786720000000  0.4366820000000 1.0
C      1  0.4864110000000  0.3936470000000  0.4496900000000 1.0
C      1  0.5124400000000  0.4760480000000  0.3660220000000 1.0
C      1  0.4636500000000  0.5033770000000  0.6112670000000 1.0
C      1  0.5275830000000  0.4535090000000  0.5027310000000 1.0
C      1  0.4902120000000  0.4220200000000  0.5163510000000 1.0
C      1  0.5284700000000  0.4984920000000  0.4929490000000 1.0
C      1  0.4654910000000  0.6173120000000  0.4848000000000 1.0
C      1  0.4153820000000  0.5502220000000  0.4207810000000 1.0
C      1  0.5359800000000  0.5640540000000  0.4639230000000 1.0
C      1  0.5803930000000  0.4715790000000  0.5915040000000 1.0
C      1  0.4958380000000  0.5968150000000  0.4213160000000 1.0
C      1  0.5637480000000  0.4863140000000  0.4405880000000 1.0
C      1  0.4263260000000  0.4761780000000  0.4087300000000 1.0
C      1  0.5083590000000  0.4630210000000  0.5720230000000 1.0
C      1  0.5392500000000  0.4264730000000  0.4397120000000 1.0
C      1  0.5328880000000  0.5821320000000  0.4885880000000 1.0
C      1  0.4882750000000  0.3915920000000  0.5730520000000 1.0
C      1  0.5555200000000  0.4133160000000  0.5506060000000 1.0
C      1  0.4934340000000  0.4527270000000  0.4034510000000 1.0
C      1  0.6179650000000  0.4673470000000  0.4615540000000 1.0
END
