TITL C-599895-9959-147 0.561243064952047 125000 -1091.43037438339 0 0 178 (C1) n - 1
REM
REM in /home/nfs/bkarasulu/CARBON/AIRSS/Generating-Clusters/TERSOFF/Only-C1/FIRE-HFTN
REM
REM
REM
REM
REM
REM ./C.cell (11c1c37f851c82e70ff6c80c92926a4b)
REM AIRSS Version 0.9.1 bugfix July 2018 build 013d7b7c2542+ Fri, 06 Jul 2018 19:26:36 +0100
REM compiler GCC version 9.2.1 20190827 (Red Hat 9.2.1-1)
REM options -cpp -mtune=generic -march=x86-64 -g -O0 -fpre-include=/usr/include/finclude/math-vector-fortran.h
REM seed -1224369616 -720728062 2102279978 693415505 -1485991309 497289275 -1688897307 1132481976 1733082991 -1820447490 1308050853 -1154262414 -1101570278 -1617776681 1111352407 2105635500 1525679260 -1618421501 -2052688026 689142894 314375880 358641913 1169531689 1202792811 -720609190 568854516 380940747 -1165968258 1486177051 -878954554 -729817557 -1310506802 -701789387
REM
CELL 1.54180   50.00000   50.00000   50.00000   90.00000   90.00000   90.00000
LATT -1
SFAC C  
C      1  0.4698370000000  0.5881320000000  0.3768970000000 1.0
C      1  0.5655860000000  0.4789320000000  0.3882820000000 1.0
C      1  0.5530140000000  0.5612030000000  0.5990900000000 1.0
C      1  0.5820890000000  0.5582960000000  0.4192640000000 1.0
C      1  0.4479530000000  0.5390550000000  0.5972340000000 1.0
C      1  0.4463250000000  0.4269070000000  0.5712810000000 1.0
C      1  0.5306590000000  0.4109950000000  0.4884240000000 1.0
C      1  0.4894750000000  0.5979760000000  0.3620720000000 1.0
C      1  0.4441000000000  0.5797000000000  0.5695540000000 1.0
C      1  0.5538910000000  0.5329840000000  0.4494350000000 1.0
C      1  0.4476110000000  0.5615320000000  0.5006920000000 1.0
C      1  0.4252270000000  0.4641700000000  0.4349870000000 1.0
C      1  0.4827120000000  0.6045150000000  0.5455340000000 1.0
C      1  0.5278900000000  0.4199520000000  0.5872410000000 1.0
C      1  0.4049980000000  0.5336700000000  0.4531070000000 1.0
C      1  0.6199660000000  0.4835890000000  0.5373730000000 1.0
C      1  0.4977960000000  0.5312680000000  0.6033730000000 1.0
C      1  0.6287460000000  0.5068880000000  0.5271620000000 1.0
C      1  0.5714600000000  0.5784150000000  0.4618170000000 1.0
C      1  0.5202780000000  0.4956320000000  0.6251460000000 1.0
C      1  0.3855800000000  0.4488940000000  0.4995290000000 1.0
C      1  0.5502670000000  0.4316620000000  0.5996330000000 1.0
C      1  0.5412490000000  0.4926980000000  0.4265530000000 1.0
C      1  0.4505330000000  0.5553620000000  0.4382080000000 1.0
C      1  0.5266570000000  0.5157930000000  0.5678440000000 1.0
C      1  0.5106390000000  0.4514880000000  0.5284540000000 1.0
C      1  0.5475720000000  0.5910820000000  0.4698600000000 1.0
C      1  0.5120770000000  0.4711400000000  0.3800800000000 1.0
C      1  0.5239740000000  0.5157350000000  0.4203000000000 1.0
C      1  0.6270200000000  0.5182110000000  0.3960050000000 1.0
C      1  0.4347450000000  0.4902980000000  0.4428390000000 1.0
C      1  0.6095160000000  0.5001050000000  0.3857910000000 1.0
C      1  0.5998810000000  0.5436180000000  0.5390500000000 1.0
C      1  0.5936190000000  0.5761120000000  0.3431430000000 1.0
C      1  0.5254430000000  0.5884110000000  0.4872500000000 1.0
C      1  0.4855800000000  0.4664020000000  0.3862100000000 1.0
C      1  0.4895340000000  0.5556750000000  0.5294460000000 1.0
C      1  0.4690640000000  0.3827110000000  0.5251160000000 1.0
C      1  0.4477690000000  0.5071760000000  0.5142410000000 1.0
C      1  0.4996860000000  0.3862670000000  0.5225290000000 1.0
C      1  0.4606040000000  0.3851320000000  0.5526640000000 1.0
C      1  0.4612270000000  0.4032570000000  0.5748730000000 1.0
C      1  0.5074080000000  0.5051840000000  0.5174480000000 1.0
C      1  0.5142540000000  0.3923740000000  0.5468310000000 1.0
C      1  0.4146500000000  0.4664770000000  0.5905660000000 1.0
C      1  0.5105140000000  0.6066050000000  0.3484500000000 1.0
C      1  0.4962310000000  0.5522130000000  0.5569560000000 1.0
C      1  0.4508990000000  0.5058770000000  0.4256570000000 1.0
C      1  0.5440520000000  0.6043140000000  0.6303290000000 1.0
C      1  0.5005650000000  0.4945750000000  0.5406520000000 1.0
C      1  0.3953430000000  0.4941260000000  0.4897620000000 1.0
C      1  0.4671470000000  0.4942080000000  0.5949560000000 1.0
C      1  0.6011810000000  0.4837430000000  0.4306770000000 1.0
C      1  0.5901730000000  0.5709680000000  0.3684660000000 1.0
C      1  0.3864890000000  0.5700480000000  0.4885120000000 1.0
C      1  0.4414790000000  0.5410130000000  0.4821960000000 1.0
C      1  0.4562520000000  0.4726410000000  0.5486580000000 1.0
C      1  0.4230410000000  0.5344910000000  0.5783370000000 1.0
C      1  0.6094100000000  0.5167700000000  0.4686130000000 1.0
C      1  0.3923580000000  0.5218740000000  0.4773890000000 1.0
C      1  0.4122660000000  0.4497990000000  0.4584750000000 1.0
C      1  0.4390570000000  0.5619020000000  0.4126840000000 1.0
C      1  0.6118330000000  0.5277340000000  0.5184150000000 1.0
C      1  0.6283530000000  0.5231000000000  0.4226900000000 1.0
C      1  0.4022980000000  0.4457220000000  0.5227530000000 1.0
C      1  0.4126510000000  0.5514970000000  0.4087820000000 1.0
C      1  0.4710260000000  0.4534660000000  0.4542430000000 1.0
C      1  0.4741440000000  0.4265610000000  0.5098900000000 1.0
C      1  0.3957410000000  0.4659340000000  0.4781750000000 1.0
C      1  0.5017290000000  0.4282390000000  0.5959600000000 1.0
C      1  0.5633400000000  0.4537290000000  0.5920640000000 1.0
C      1  0.5620370000000  0.4367610000000  0.5336050000000 1.0
C      1  0.5977590000000  0.5226240000000  0.4937690000000 1.0
C      1  0.5394410000000  0.4753170000000  0.3796660000000 1.0
C      1  0.5099940000000  0.5521210000000  0.5102730000000 1.0
C      1  0.3962450000000  0.5170350000000  0.5374030000000 1.0
C      1  0.5037980000000  0.5509120000000  0.4553620000000 1.0
C      1  0.5380570000000  0.5261180000000  0.5441130000000 1.0
C      1  0.4500370000000  0.4313420000000  0.5256440000000 1.0
C      1  0.5548510000000  0.5917070000000  0.5276330000000 1.0
C      1  0.5830500000000  0.5423580000000  0.5619980000000 1.0
C      1  0.5217010000000  0.5237560000000  0.6189270000000 1.0
C      1  0.5047180000000  0.4694630000000  0.5487700000000 1.0
C      1  0.4762580000000  0.4178710000000  0.4203060000000 1.0
C      1  0.4773800000000  0.5438170000000  0.4427740000000 1.0
C      1  0.4912160000000  0.4682930000000  0.4416360000000 1.0
C      1  0.4602400000000  0.3945610000000  0.4757180000000 1.0
C      1  0.4553220000000  0.5970520000000  0.5493970000000 1.0
C      1  0.5277120000000  0.5965730000000  0.5625920000000 1.0
C      1  0.5577350000000  0.4844340000000  0.4713630000000 1.0
C      1  0.5699300000000  0.5177610000000  0.6018050000000 1.0
C      1  0.4212700000000  0.5615170000000  0.5650330000000 1.0
C      1  0.5370760000000  0.4457900000000  0.5248750000000 1.0
C      1  0.5581250000000  0.4446240000000  0.4225890000000 1.0
C      1  0.5384710000000  0.4643140000000  0.4254840000000 1.0
C      1  0.5170580000000  0.3873370000000  0.4986260000000 1.0
C      1  0.5604760000000  0.4569460000000  0.4801710000000 1.0
C      1  0.5067580000000  0.5025540000000  0.4708240000000 1.0
C      1  0.4602810000000  0.4684940000000  0.4760760000000 1.0
C      1  0.4902710000000  0.4493600000000  0.5098740000000 1.0
C      1  0.4571170000000  0.4594550000000  0.3875960000000 1.0
C      1  0.4604970000000  0.4935640000000  0.5675860000000 1.0
C      1  0.3837620000000  0.5380640000000  0.5239910000000 1.0
C      1  0.4701390000000  0.5211460000000  0.6047700000000 1.0
C      1  0.4588930000000  0.5190840000000  0.5569290000000 1.0
C      1  0.3919480000000  0.4574990000000  0.6035490000000 1.0
C      1  0.5432160000000  0.4337100000000  0.4796600000000 1.0
C      1  0.5486030000000  0.5837930000000  0.6149260000000 1.0
C      1  0.4680880000000  0.4675490000000  0.6052040000000 1.0
C      1  0.4385130000000  0.4564410000000  0.4100980000000 1.0
C      1  0.5647520000000  0.5636410000000  0.5719980000000 1.0
C      1  0.4037970000000  0.4702400000000  0.5380260000000 1.0
C      1  0.4344900000000  0.4504070000000  0.3390490000000 1.0
C      1  0.4922660000000  0.4959830000000  0.4479960000000 1.0
C      1  0.5868160000000  0.5650650000000  0.3940860000000 1.0
C      1  0.4442960000000  0.3875580000000  0.4991680000000 1.0
C      1  0.4821420000000  0.4077390000000  0.5932230000000 1.0
C      1  0.6057460000000  0.4618770000000  0.4485350000000 1.0
C      1  0.4527540000000  0.5278240000000  0.5319890000000 1.0
C      1  0.5127560000000  0.4553590000000  0.4304770000000 1.0
C      1  0.5219050000000  0.5040460000000  0.4941030000000 1.0
C      1  0.6062530000000  0.4540860000000  0.4746940000000 1.0
C      1  0.4953950000000  0.4563900000000  0.6028830000000 1.0
C      1  0.4804580000000  0.4096980000000  0.4881280000000 1.0
C      1  0.4437360000000  0.5132530000000  0.4875350000000 1.0
C      1  0.5335780000000  0.4062130000000  0.5624010000000 1.0
C      1  0.4517080000000  0.4448340000000  0.5506440000000 1.0
C      1  0.5934820000000  0.4747100000000  0.5419920000000 1.0
C      1  0.4219830000000  0.4223730000000  0.4686130000000 1.0
C      1  0.5707060000000  0.5554870000000  0.4447460000000 1.0
C      1  0.5259410000000  0.5374190000000  0.4405920000000 1.0
C      1  0.4400460000000  0.4597630000000  0.6033120000000 1.0
C      1  0.4391090000000  0.6011490000000  0.5264620000000 1.0
C      1  0.4758590000000  0.5155000000000  0.4353130000000 1.0
C      1  0.5097340000000  0.5636050000000  0.4829640000000 1.0
C      1  0.4639260000000  0.4282520000000  0.4424870000000 1.0
C      1  0.5834880000000  0.4535030000000  0.5241520000000 1.0
C      1  0.4089150000000  0.5123060000000  0.5642570000000 1.0
C      1  0.5316220000000  0.6147240000000  0.3354820000000 1.0
C      1  0.5784790000000  0.4896740000000  0.5624670000000 1.0
C      1  0.4100620000000  0.4815330000000  0.5658610000000 1.0
C      1  0.4527090000000  0.5764840000000  0.3934110000000 1.0
C      1  0.4308430000000  0.5465640000000  0.4573960000000 1.0
C      1  0.5481900000000  0.5347690000000  0.6100170000000 1.0
C      1  0.4438310000000  0.4911980000000  0.4696820000000 1.0
C      1  0.5575590000000  0.5026050000000  0.4483190000000 1.0
C      1  0.3835270000000  0.5429730000000  0.4960320000000 1.0
C      1  0.3967090000000  0.5378950000000  0.4263380000000 1.0
C      1  0.4452890000000  0.4547640000000  0.3623640000000 1.0
C      1  0.5812400000000  0.5162440000000  0.5750590000000 1.0
C      1  0.4232130000000  0.4270190000000  0.5177680000000 1.0
C      1  0.5282820000000  0.5979040000000  0.5150120000000 1.0
C      1  0.5163370000000  0.4778020000000  0.6027410000000 1.0
C      1  0.3979690000000  0.4935110000000  0.5204390000000 1.0
C      1  0.5213260000000  0.3635780000000  0.4852230000000 1.0
C      1  0.5695360000000  0.5226830000000  0.4968420000000 1.0
C      1  0.4221460000000  0.4084370000000  0.4961940000000 1.0
C      1  0.5533650000000  0.5844950000000  0.5557560000000 1.0
C      1  0.5062750000000  0.5345720000000  0.5764200000000 1.0
C      1  0.4557350000000  0.5674770000000  0.5930530000000 1.0
C      1  0.5502920000000  0.5021060000000  0.4922540000000 1.0
C      1  0.4069270000000  0.5871350000000  0.4921360000000 1.0
C      1  0.5955860000000  0.5880700000000  0.4705080000000 1.0
C      1  0.4572960000000  0.4820800000000  0.5214860000000 1.0
C      1  0.4721440000000  0.4692080000000  0.5014130000000 1.0
C      1  0.5586320000000  0.4138620000000  0.5499620000000 1.0
C      1  0.4464480000000  0.4113450000000  0.4568290000000 1.0
C      1  0.5319400000000  0.4889570000000  0.5799610000000 1.0
C      1  0.5909350000000  0.4851440000000  0.4020050000000 1.0
C      1  0.5573580000000  0.4758780000000  0.5759220000000 1.0
C      1  0.4321590000000  0.5852910000000  0.5043270000000 1.0
C      1  0.5580150000000  0.5460780000000  0.5064900000000 1.0
C      1  0.6127870000000  0.5087260000000  0.4416110000000 1.0
C      1  0.5711490000000  0.4223940000000  0.4184930000000 1.0
C      1  0.5103850000000  0.6024550000000  0.5395040000000 1.0
C      1  0.4629820000000  0.5517160000000  0.5219930000000 1.0
C      1  0.5859310000000  0.4535360000000  0.4947720000000 1.0
C      1  0.5349760000000  0.5434970000000  0.5218520000000 1.0
END
