TITL C-599893-4344-1498 -0.0928341901455645 125000 -456.758282744971 0 0 76 (C1) n - 1
REM
REM in /home/nfs/bkarasulu/CARBON/AIRSS/Generating-Clusters/TERSOFF/Only-C1/FIRE-HFTN
REM
REM
REM
REM
REM
REM ./C.cell (11c1c37f851c82e70ff6c80c92926a4b)
REM AIRSS Version 0.9.1 bugfix July 2018 build 013d7b7c2542+ Fri, 06 Jul 2018 19:26:36 +0100
REM compiler GCC version 9.2.1 20190827 (Red Hat 9.2.1-1)
REM options -cpp -mtune=generic -march=x86-64 -g -O0 -fpre-include=/usr/include/finclude/math-vector-fortran.h
REM seed -334115766 -1339523688 -1287283538 1656013146 487323173 -216739860 783328204 -51572062 1696333165 171911176 -422865507 618577515 -971455494 -1653459718 -170275961 -1331233405 603564749 -290271032 -882217911 494987010 2006506693 922150365 -1984695687 53538829 1539537001 -1520964213 -40888128 -2018136637 -436028886 976156422 411823319 1289369745 -203483676
REM
CELL 1.54180   50.00000   50.00000   50.00000   90.00000   90.00000   90.00000
LATT -1
SFAC C  
C      1  0.4687870000000  0.4669820000000  0.6078810000000 1.0
C      1  0.3732470000000  0.5561410000000  0.4388500000000 1.0
C      1  0.5699510000000  0.5481910000000  0.5058880000000 1.0
C      1  0.5084820000000  0.5163130000000  0.5948340000000 1.0
C      1  0.5272610000000  0.4333610000000  0.4664270000000 1.0
C      1  0.4967170000000  0.4679160000000  0.6124880000000 1.0
C      1  0.5000580000000  0.5245190000000  0.5096330000000 1.0
C      1  0.5893110000000  0.5796870000000  0.4039270000000 1.0
C      1  0.4844710000000  0.5235850000000  0.5802290000000 1.0
C      1  0.5071330000000  0.4459880000000  0.5589940000000 1.0
C      1  0.6145780000000  0.5606230000000  0.4803450000000 1.0
C      1  0.5109500000000  0.4559800000000  0.5331640000000 1.0
C      1  0.5929900000000  0.5546010000000  0.4944980000000 1.0
C      1  0.5498050000000  0.4381750000000  0.5101090000000 1.0
C      1  0.3942180000000  0.4252190000000  0.4276610000000 1.0
C      1  0.4624280000000  0.4546050000000  0.5132390000000 1.0
C      1  0.5524580000000  0.4847280000000  0.4540590000000 1.0
C      1  0.4356110000000  0.4536180000000  0.5213820000000 1.0
C      1  0.4354470000000  0.4703020000000  0.5720400000000 1.0
C      1  0.4132390000000  0.5490430000000  0.4986430000000 1.0
C      1  0.5127980000000  0.4456340000000  0.6058870000000 1.0
C      1  0.4632940000000  0.5424160000000  0.4087650000000 1.0
C      1  0.5150190000000  0.4536140000000  0.4502700000000 1.0
C      1  0.5119580000000  0.4097930000000  0.4686160000000 1.0
C      1  0.4863050000000  0.4081720000000  0.4599490000000 1.0
C      1  0.4527860000000  0.4823050000000  0.5903070000000 1.0
C      1  0.5075750000000  0.4939960000000  0.6121940000000 1.0
C      1  0.4786680000000  0.4812030000000  0.4430550000000 1.0
C      1  0.4743520000000  0.5743160000000  0.5243190000000 1.0
C      1  0.4877500000000  0.5662670000000  0.4739910000000 1.0
C      1  0.5668820000000  0.5658270000000  0.4066500000000 1.0
C      1  0.5442860000000  0.5408880000000  0.5130060000000 1.0
C      1  0.4158710000000  0.4460600000000  0.5040960000000 1.0
C      1  0.5255630000000  0.4805470000000  0.4459900000000 1.0
C      1  0.4855990000000  0.5377430000000  0.5554090000000 1.0
C      1  0.4787190000000  0.5782620000000  0.4980780000000 1.0
C      1  0.4764390000000  0.5136260000000  0.5002220000000 1.0
C      1  0.4717700000000  0.4292910000000  0.4477090000000 1.0
C      1  0.5342900000000  0.5350620000000  0.5394960000000 1.0
C      1  0.4388160000000  0.5489960000000  0.5431640000000 1.0
C      1  0.4298200000000  0.4607760000000  0.5478760000000 1.0
C      1  0.5573840000000  0.4160790000000  0.5259620000000 1.0
C      1  0.4886220000000  0.4576730000000  0.5165990000000 1.0
C      1  0.5338380000000  0.5246700000000  0.5858160000000 1.0
C      1  0.5494750000000  0.4418940000000  0.4820590000000 1.0
C      1  0.5469260000000  0.5221310000000  0.5610490000000 1.0
C      1  0.5452190000000  0.5513330000000  0.4114370000000 1.0
C      1  0.4695920000000  0.5555800000000  0.4547680000000 1.0
C      1  0.5548790000000  0.4777100000000  0.5382430000000 1.0
C      1  0.5219910000000  0.5372160000000  0.4949030000000 1.0
C      1  0.4164190000000  0.5537850000000  0.4711820000000 1.0
C      1  0.4199680000000  0.5469180000000  0.5243150000000 1.0
C      1  0.4580650000000  0.4916030000000  0.4588520000000 1.0
C      1  0.6353330000000  0.5664010000000  0.4656660000000 1.0
C      1  0.4197000000000  0.4256040000000  0.4331520000000 1.0
C      1  0.5250080000000  0.5363970000000  0.4198240000000 1.0
C      1  0.4454340000000  0.4264380000000  0.4393870000000 1.0
C      1  0.3940010000000  0.5550670000000  0.4545780000000 1.0
C      1  0.5028010000000  0.4975990000000  0.4391500000000 1.0
C      1  0.4420480000000  0.5571370000000  0.4602960000000 1.0
C      1  0.5138590000000  0.5554050000000  0.4752440000000 1.0
C      1  0.5603110000000  0.4984720000000  0.5541020000000 1.0
C      1  0.5021240000000  0.5247170000000  0.4310190000000 1.0
C      1  0.6114690000000  0.5932300000000  0.4016430000000 1.0
C      1  0.4611080000000  0.5089890000000  0.5864100000000 1.0
C      1  0.5405660000000  0.4162990000000  0.5742740000000 1.0
C      1  0.5380870000000  0.4594080000000  0.5253650000000 1.0
C      1  0.5537440000000  0.4092050000000  0.5518210000000 1.0
C      1  0.4783310000000  0.5408280000000  0.4317580000000 1.0
C      1  0.4590780000000  0.5037060000000  0.4826860000000 1.0
C      1  0.5201100000000  0.4344690000000  0.5811430000000 1.0
C      1  0.5058380000000  0.5302350000000  0.5372630000000 1.0
C      1  0.5675550000000  0.5061710000000  0.4467440000000 1.0
C      1  0.4661270000000  0.5556290000000  0.5442020000000 1.0
C      1  0.5629970000000  0.4641690000000  0.4706700000000 1.0
C      1  0.4862930000000  0.4534610000000  0.4450790000000 1.0
END
