TITL C-599895-9959-751 0.0340427861598264 125000 -796.062917046961 0 0 132 (C1) n - 1
REM
REM in /home/nfs/bkarasulu/CARBON/AIRSS/Generating-Clusters/TERSOFF/Only-C1/FIRE-HFTN
REM
REM
REM
REM
REM
REM ./C.cell (11c1c37f851c82e70ff6c80c92926a4b)
REM AIRSS Version 0.9.1 bugfix July 2018 build 013d7b7c2542+ Fri, 06 Jul 2018 19:26:36 +0100
REM compiler GCC version 9.2.1 20190827 (Red Hat 9.2.1-1)
REM options -cpp -mtune=generic -march=x86-64 -g -O0 -fpre-include=/usr/include/finclude/math-vector-fortran.h
REM seed -1169217543 616219417 -641826822 -438452160 -1766567530 1482177034 1849486992 -702901932 -1400772025 -847514651 1898197725 -1001678655 1315082240 1881668952 1770015814 1673475862 -925466577 468085188 -312316030 1090633540 219877351 -1620610624 -1410116821 -330993340 586890419 1185185814 150384109 -322423303 -1536326562 -760723011 757435641 -2012163115 -1441979855
REM
CELL 1.54180   50.00000   50.00000   50.00000   90.00000   90.00000   90.00000
LATT -1
SFAC C  
C      1  0.4866220000000  0.4319390000000  0.5717100000000 1.0
C      1  0.4446320000000  0.5728000000000  0.5522590000000 1.0
C      1  0.3945940000000  0.5632200000000  0.4777070000000 1.0
C      1  0.4697700000000  0.4070820000000  0.4450600000000 1.0
C      1  0.5317360000000  0.5043590000000  0.4287260000000 1.0
C      1  0.5328230000000  0.5056230000000  0.4574520000000 1.0
C      1  0.4621490000000  0.5267750000000  0.4479170000000 1.0
C      1  0.3713700000000  0.6247570000000  0.5186750000000 1.0
C      1  0.4659870000000  0.4092880000000  0.5000370000000 1.0
C      1  0.4909050000000  0.5176510000000  0.5355150000000 1.0
C      1  0.6019270000000  0.4456900000000  0.4961700000000 1.0
C      1  0.4909110000000  0.5171920000000  0.4068910000000 1.0
C      1  0.4354820000000  0.6397460000000  0.4806550000000 1.0
C      1  0.4031430000000  0.5173660000000  0.5240640000000 1.0
C      1  0.5696330000000  0.5180980000000  0.5086430000000 1.0
C      1  0.5484010000000  0.5594930000000  0.4759280000000 1.0
C      1  0.5325010000000  0.4579660000000  0.4174820000000 1.0
C      1  0.3961980000000  0.5447170000000  0.4580860000000 1.0
C      1  0.4395860000000  0.5127610000000  0.4876740000000 1.0
C      1  0.4261520000000  0.4289520000000  0.4787940000000 1.0
C      1  0.3961210000000  0.5662470000000  0.5059150000000 1.0
C      1  0.5040860000000  0.6138200000000  0.5132200000000 1.0
C      1  0.4646710000000  0.4805310000000  0.5503220000000 1.0
C      1  0.5491050000000  0.5256040000000  0.5262930000000 1.0
C      1  0.3964260000000  0.6151730000000  0.5110250000000 1.0
C      1  0.5647630000000  0.4187780000000  0.4374630000000 1.0
C      1  0.4201260000000  0.4752150000000  0.5868340000000 1.0
C      1  0.4674540000000  0.5235680000000  0.4947870000000 1.0
C      1  0.5264040000000  0.5450350000000  0.4882920000000 1.0
C      1  0.4856080000000  0.4636790000000  0.4016720000000 1.0
C      1  0.4969090000000  0.4500210000000  0.4961600000000 1.0
C      1  0.4366830000000  0.5196250000000  0.4593250000000 1.0
C      1  0.4701440000000  0.4719710000000  0.6002300000000 1.0
C      1  0.5308010000000  0.4834070000000  0.5393700000000 1.0
C      1  0.5109300000000  0.4484130000000  0.4697630000000 1.0
C      1  0.4834100000000  0.5275670000000  0.4682640000000 1.0
C      1  0.5178890000000  0.4638470000000  0.5969860000000 1.0
C      1  0.4867650000000  0.4057540000000  0.5212430000000 1.0
C      1  0.4131580000000  0.6303020000000  0.4945770000000 1.0
C      1  0.4240560000000  0.5888530000000  0.5416820000000 1.0
C      1  0.5888110000000  0.5478920000000  0.5419450000000 1.0
C      1  0.5469140000000  0.4336250000000  0.5121170000000 1.0
C      1  0.4828090000000  0.6205820000000  0.4989410000000 1.0
C      1  0.5820400000000  0.4420520000000  0.4760340000000 1.0
C      1  0.4607750000000  0.6301240000000  0.4877440000000 1.0
C      1  0.5823990000000  0.5619220000000  0.5190130000000 1.0
C      1  0.4166350000000  0.5038130000000  0.5029330000000 1.0
C      1  0.5401090000000  0.4794070000000  0.5974260000000 1.0
C      1  0.5247690000000  0.6106480000000  0.5294890000000 1.0
C      1  0.6520580000000  0.5024440000000  0.5025080000000 1.0
C      1  0.5707840000000  0.4823960000000  0.3734480000000 1.0
C      1  0.5395960000000  0.4077410000000  0.5030970000000 1.0
C      1  0.4713970000000  0.4028770000000  0.4720020000000 1.0
C      1  0.4053680000000  0.5896840000000  0.5199840000000 1.0
C      1  0.5032020000000  0.5548950000000  0.5615520000000 1.0
C      1  0.4059440000000  0.4780280000000  0.4976840000000 1.0
C      1  0.4809300000000  0.5484250000000  0.5788620000000 1.0
C      1  0.4933260000000  0.4570560000000  0.4484840000000 1.0
C      1  0.5742980000000  0.5489660000000  0.4352790000000 1.0
C      1  0.6069400000000  0.4162900000000  0.5658040000000 1.0
C      1  0.4597720000000  0.5474870000000  0.5114670000000 1.0
C      1  0.5737220000000  0.4159420000000  0.4647680000000 1.0
C      1  0.6205200000000  0.4666200000000  0.4949580000000 1.0
C      1  0.5043730000000  0.4592230000000  0.4225270000000 1.0
C      1  0.4090970000000  0.4920440000000  0.5690890000000 1.0
C      1  0.5739890000000  0.5081040000000  0.4843050000000 1.0
C      1  0.4855450000000  0.4914340000000  0.3943510000000 1.0
C      1  0.5804870000000  0.4778390000000  0.5671720000000 1.0
C      1  0.3965080000000  0.4944960000000  0.4533390000000 1.0
C      1  0.5132620000000  0.5255390000000  0.4704550000000 1.0
C      1  0.4774080000000  0.5190610000000  0.5818710000000 1.0
C      1  0.5310020000000  0.4812690000000  0.5108250000000 1.0
C      1  0.4701530000000  0.4390090000000  0.4018670000000 1.0
C      1  0.4914160000000  0.4543430000000  0.5904860000000 1.0
C      1  0.5136540000000  0.3988210000000  0.5117930000000 1.0
C      1  0.4689800000000  0.5281960000000  0.4209360000000 1.0
C      1  0.3910880000000  0.5422960000000  0.5199230000000 1.0
C      1  0.4367670000000  0.4718890000000  0.4215430000000 1.0
C      1  0.5274020000000  0.5420360000000  0.5172340000000 1.0
C      1  0.5053800000000  0.4480980000000  0.5240610000000 1.0
C      1  0.4841320000000  0.4156970000000  0.5492600000000 1.0
C      1  0.4326520000000  0.6580080000000  0.4605130000000 1.0
C      1  0.4207970000000  0.4512900000000  0.4618200000000 1.0
C      1  0.5479890000000  0.4603290000000  0.5028080000000 1.0
C      1  0.5738030000000  0.4510310000000  0.5594020000000 1.0
C      1  0.4596670000000  0.5681900000000  0.5765630000000 1.0
C      1  0.4091450000000  0.5202590000000  0.4518460000000 1.0
C      1  0.4868310000000  0.5073050000000  0.5098980000000 1.0
C      1  0.4710700000000  0.4609480000000  0.4877540000000 1.0
C      1  0.5991220000000  0.4333810000000  0.5214180000000 1.0
C      1  0.5585710000000  0.4625800000000  0.4750950000000 1.0
C      1  0.4103150000000  0.4581600000000  0.5171720000000 1.0
C      1  0.5267570000000  0.5510050000000  0.4285030000000 1.0
C      1  0.5168730000000  0.5257930000000  0.4172590000000 1.0
C      1  0.4347810000000  0.4447020000000  0.5230580000000 1.0
C      1  0.5460460000000  0.4433780000000  0.5584110000000 1.0
C      1  0.5239130000000  0.4563690000000  0.5460280000000 1.0
C      1  0.5373290000000  0.4474880000000  0.4606920000000 1.0
C      1  0.4423900000000  0.4612580000000  0.4460820000000 1.0
C      1  0.5564900000000  0.4922560000000  0.4689460000000 1.0
C      1  0.5416190000000  0.5076500000000  0.5469260000000 1.0
C      1  0.4778530000000  0.5048660000000  0.5565640000000 1.0
C      1  0.4416760000000  0.4250330000000  0.5030750000000 1.0
C      1  0.5970760000000  0.4977580000000  0.5531640000000 1.0
C      1  0.5935540000000  0.4332480000000  0.5490240000000 1.0
C      1  0.5899030000000  0.5026620000000  0.4131800000000 1.0
C      1  0.6306150000000  0.4876450000000  0.5106200000000 1.0
C      1  0.5065540000000  0.5416150000000  0.5368170000000 1.0
C      1  0.5866170000000  0.5289710000000  0.4225660000000 1.0
C      1  0.5684190000000  0.4892680000000  0.3998460000000 1.0
C      1  0.5695220000000  0.5664980000000  0.4949730000000 1.0
C      1  0.4673480000000  0.4626710000000  0.4590100000000 1.0
C      1  0.5711320000000  0.5201200000000  0.5836350000000 1.0
C      1  0.4759080000000  0.5002890000000  0.6031160000000 1.0
C      1  0.5081650000000  0.4925990000000  0.4994290000000 1.0
C      1  0.4138790000000  0.5116390000000  0.5498240000000 1.0
C      1  0.5441290000000  0.6090170000000  0.5468720000000 1.0
C      1  0.5494600000000  0.5568920000000  0.4464740000000 1.0
C      1  0.4477280000000  0.5489960000000  0.5368690000000 1.0
C      1  0.5634190000000  0.4918740000000  0.5870760000000 1.0
C      1  0.6175260000000  0.4928750000000  0.5349090000000 1.0
C      1  0.5452160000000  0.4388910000000  0.4341850000000 1.0
C      1  0.6135140000000  0.4894550000000  0.4174810000000 1.0
C      1  0.4425720000000  0.4659550000000  0.5983580000000 1.0
C      1  0.4676350000000  0.4188160000000  0.4204800000000 1.0
C      1  0.4524000000000  0.4592420000000  0.5395670000000 1.0
C      1  0.5575860000000  0.3992880000000  0.4823360000000 1.0
C      1  0.5883030000000  0.5254050000000  0.5601400000000 1.0
C      1  0.4372790000000  0.5269770000000  0.5507870000000 1.0
C      1  0.5445160000000  0.4837000000000  0.4139890000000 1.0
C      1  0.4027420000000  0.4719480000000  0.4700950000000 1.0
C      1  0.3478050000000  0.6332160000000  0.5259060000000 1.0
END
