TITL C-599897-7526-771 56.0317979725908 125000 -1003.35141900032 0 0 162 (C1) n - 1
REM
REM in /home/nfs/bkarasulu/CARBON/AIRSS/Generating-Clusters/TERSOFF/Only-C1/FIRE-HFTN
REM
REM
REM
REM
REM
REM ./C.cell (11c1c37f851c82e70ff6c80c92926a4b)
REM AIRSS Version 0.9.1 bugfix July 2018 build 013d7b7c2542+ Fri, 06 Jul 2018 19:26:36 +0100
REM compiler GCC version 9.2.1 20190827 (Red Hat 9.2.1-1)
REM options -cpp -mtune=generic -march=x86-64 -g -O0 -fpre-include=/usr/include/finclude/math-vector-fortran.h
REM seed -1834197411 1399417035 319881574 1814350503 -1855696987 -536093795 1334478415 2018352019 -216483956 -722760075 -1163046247 -1625275813 -1383909829 995374530 142857507 -1716787532 1220864902 1919010059 1030563772 82575223 -1467104120 -2127118191 -1423762156 1192864360 -1031243858 231168781 2082857178 -1031140471 -1576550601 1995271707 -1077233632 -562601408 1098175328
REM
CELL 1.54180   50.00000   50.00000   50.00000   90.00000   90.00000   90.00000
LATT -1
SFAC C  
C      1  0.5411980000000  0.3861030000000  0.4431120000000 1.0
C      1  0.5315560000000  0.4612980000000  0.4298560000000 1.0
C      1  0.5256390000000  0.4649940000000  0.5290120000000 1.0
C      1  0.4972260000000  0.3778580000000  0.4611750000000 1.0
C      1  0.4336110000000  0.5799920000000  0.5815140000000 1.0
C      1  0.5161040000000  0.4852810000000  0.4405760000000 1.0
C      1  0.4139340000000  0.4570050000000  0.4692540000000 1.0
C      1  0.4303350000000  0.4695390000000  0.5160260000000 1.0
C      1  0.5155730000000  0.5378540000000  0.4724110000000 1.0
C      1  0.4264000000000  0.5052100000000  0.5601090000000 1.0
C      1  0.5763050000000  0.4332070000000  0.5361270000000 1.0
C      1  0.4889430000000  0.5557360000000  0.3999450000000 1.0
C      1  0.4659330000000  0.5016280000000  0.3891820000000 1.0
C      1  0.5178980000000  0.5244030000000  0.6066360000000 1.0
C      1  0.4356400000000  0.4842190000000  0.5782350000000 1.0
C      1  0.4875740000000  0.6123210000000  0.5161710000000 1.0
C      1  0.3911410000000  0.4917310000000  0.4972950000000 1.0
C      1  0.4184930000000  0.4043460000000  0.4751190000000 1.0
C      1  0.4722650000000  0.4165210000000  0.4204500000000 1.0
C      1  0.5571320000000  0.5888960000000  0.5309530000000 1.0
C      1  0.5073230000000  0.4783350000000  0.5692930000000 1.0
C      1  0.4787200000000  0.5695290000000  0.5572430000000 1.0
C      1  0.4821590000000  0.4416540000000  0.4836660000000 1.0
C      1  0.4352880000000  0.5473450000000  0.5106740000000 1.0
C      1  0.5849770000000  0.5446410000000  0.5210420000000 1.0
C      1  0.4796450000000  0.4825990000000  0.4998650000000 1.0
C      1  0.5402140000000  0.4505730000000  0.4563710000000 1.0
C      1  0.5837040000000  0.4319460000000  0.4858510000000 1.0
C      1  0.5346610000000  0.5050650000000  0.4479000000000 1.0
C      1  0.4891500000000  0.4610050000000  0.4039960000000 1.0
C      1  0.5033390000000  0.5640500000000  0.4775510000000 1.0
C      1  0.5201030000000  0.6113260000000  0.5018140000000 1.0
C      1  0.5095750000000  0.5778720000000  0.5919900000000 1.0
C      1  0.5808080000000  0.4468940000000  0.5111240000000 1.0
C      1  0.4662860000000  0.5216800000000  0.4787970000000 1.0
C      1  0.5946130000000  0.4694630000000  0.4459260000000 1.0
C      1  0.4991280000000  0.5878600000000  0.5662520000000 1.0
C      1  0.5966750000000  0.5571790000000  0.4774330000000 1.0
C      1  0.5298240000000  0.5457540000000  0.4228360000000 1.0
C      1  0.3854080000000  0.4918190000000  0.5273710000000 1.0
C      1  0.6079280000000  0.5430000000000  0.5015510000000 1.0
C      1  0.5065940000000  0.4093640000000  0.5535030000000 1.0
C      1  0.5446980000000  0.5097160000000  0.6072370000000 1.0
C      1  0.5355560000000  0.4250610000000  0.4938010000000 1.0
C      1  0.5138640000000  0.4918580000000  0.5264270000000 1.0
C      1  0.4670480000000  0.4457250000000  0.4156090000000 1.0
C      1  0.4759440000000  0.5495310000000  0.4410600000000 1.0
C      1  0.5190050000000  0.5501700000000  0.5915280000000 1.0
C      1  0.4992350000000  0.5907510000000  0.4384860000000 1.0
C      1  0.4488680000000  0.4866300000000  0.4392020000000 1.0
C      1  0.5434530000000  0.4420320000000  0.5673530000000 1.0
C      1  0.5502020000000  0.5002510000000  0.4048180000000 1.0
C      1  0.4543140000000  0.5367680000000  0.6275350000000 1.0
C      1  0.4342400000000  0.4161500000000  0.4548110000000 1.0
C      1  0.5756530000000  0.5433480000000  0.4292530000000 1.0
C      1  0.5251320000000  0.5506340000000  0.5173570000000 1.0
C      1  0.4117450000000  0.5678140000000  0.4774590000000 1.0
C      1  0.4952490000000  0.4795660000000  0.6135300000000 1.0
C      1  0.4915980000000  0.4896430000000  0.3951410000000 1.0
C      1  0.5507720000000  0.4976280000000  0.4690660000000 1.0
C      1  0.4834710000000  0.5728000000000  0.4577830000000 1.0
C      1  0.4204840000000  0.5720270000000  0.5061970000000 1.0
C      1  0.4944880000000  0.4844700000000  0.4567050000000 1.0
C      1  0.5616750000000  0.5979120000000  0.4791150000000 1.0
C      1  0.5120930000000  0.5375110000000  0.4017220000000 1.0
C      1  0.4586100000000  0.5731550000000  0.4737460000000 1.0
C      1  0.5782250000000  0.5773240000000  0.4886230000000 1.0
C      1  0.4298680000000  0.4439610000000  0.4501290000000 1.0
C      1  0.4471900000000  0.4954910000000  0.6022140000000 1.0
C      1  0.5717360000000  0.4472660000000  0.5617520000000 1.0
C      1  0.4521320000000  0.5753200000000  0.5629520000000 1.0
C      1  0.4378460000000  0.4973530000000  0.5136180000000 1.0
C      1  0.4898100000000  0.4379080000000  0.5106780000000 1.0
C      1  0.5349020000000  0.4159590000000  0.5571980000000 1.0
C      1  0.3997440000000  0.3740000000000  0.5069720000000 1.0
C      1  0.4198570000000  0.5352570000000  0.4385940000000 1.0
C      1  0.4804970000000  0.4008420000000  0.4620290000000 1.0
C      1  0.4173810000000  0.5036600000000  0.3828300000000 1.0
C      1  0.5982940000000  0.5082660000000  0.5502360000000 1.0
C      1  0.5534910000000  0.5614050000000  0.4241380000000 1.0
C      1  0.5341100000000  0.5463740000000  0.5670590000000 1.0
C      1  0.5255900000000  0.5988820000000  0.4483340000000 1.0
C      1  0.5231160000000  0.4304220000000  0.4677040000000 1.0
C      1  0.4042570000000  0.5110060000000  0.5408500000000 1.0
C      1  0.6070690000000  0.5172840000000  0.4507150000000 1.0
C      1  0.5507640000000  0.4938950000000  0.6289060000000 1.0
C      1  0.4564880000000  0.5480110000000  0.4899330000000 1.0
C      1  0.5514750000000  0.4728500000000  0.4108350000000 1.0
C      1  0.5357350000000  0.5350150000000  0.4955530000000 1.0
C      1  0.4655460000000  0.5466970000000  0.4153290000000 1.0
C      1  0.4651720000000  0.5145320000000  0.6146560000000 1.0
C      1  0.4513850000000  0.5188840000000  0.5547580000000 1.0
C      1  0.4025910000000  0.5182210000000  0.4895790000000 1.0
C      1  0.5273030000000  0.4624760000000  0.5578050000000 1.0
C      1  0.4396920000000  0.5335200000000  0.4150160000000 1.0
C      1  0.5853490000000  0.4968270000000  0.5734640000000 1.0
C      1  0.4477940000000  0.4608410000000  0.5656770000000 1.0
C      1  0.4332800000000  0.5816750000000  0.4637250000000 1.0
C      1  0.5186040000000  0.5457870000000  0.5438080000000 1.0
C      1  0.4463840000000  0.4542670000000  0.5359200000000 1.0
C      1  0.4096350000000  0.4684790000000  0.4943790000000 1.0
C      1  0.4079690000000  0.5392760000000  0.4673550000000 1.0
C      1  0.5476110000000  0.5880980000000  0.4321820000000 1.0
C      1  0.5338750000000  0.6055660000000  0.4761040000000 1.0
C      1  0.4951630000000  0.5831280000000  0.4103280000000 1.0
C      1  0.5535460000000  0.5139230000000  0.4918740000000 1.0
C      1  0.5614710000000  0.4132800000000  0.4840700000000 1.0
C      1  0.4541250000000  0.5085000000000  0.4540580000000 1.0
C      1  0.5028950000000  0.3672260000000  0.4866930000000 1.0
C      1  0.5165650000000  0.5087460000000  0.3962860000000 1.0
C      1  0.3775230000000  0.4660200000000  0.5365800000000 1.0
C      1  0.5026140000000  0.4999030000000  0.5025480000000 1.0
C      1  0.4601290000000  0.6076120000000  0.5153120000000 1.0
C      1  0.5192170000000  0.4412410000000  0.5136050000000 1.0
C      1  0.5648190000000  0.5133470000000  0.5860880000000 1.0
C      1  0.5020200000000  0.3869150000000  0.5360850000000 1.0
C      1  0.4974400000000  0.3999380000000  0.4175390000000 1.0
C      1  0.4915070000000  0.4661590000000  0.5890560000000 1.0
C      1  0.5940340000000  0.4475770000000  0.4629270000000 1.0
C      1  0.4585570000000  0.4061550000000  0.4445190000000 1.0
C      1  0.5101310000000  0.5932930000000  0.6145410000000 1.0
C      1  0.4594290000000  0.5012630000000  0.4989550000000 1.0
C      1  0.5725840000000  0.5142480000000  0.4189090000000 1.0
C      1  0.4711380000000  0.4373600000000  0.5319150000000 1.0
C      1  0.4968170000000  0.5160830000000  0.4778880000000 1.0
C      1  0.4956020000000  0.4241290000000  0.4673520000000 1.0
C      1  0.5134820000000  0.4481820000000  0.4108810000000 1.0
C      1  0.5266750000000  0.5315610000000  0.4465430000000 1.0
C      1  0.5029080000000  0.3728740000000  0.5131060000000 1.0
C      1  0.5947510000000  0.5436210000000  0.4522320000000 1.0
C      1  0.5133530000000  0.3837610000000  0.4371810000000 1.0
C      1  0.5922050000000  0.4967840000000  0.4359630000000 1.0
C      1  0.6242960000000  0.5132670000000  0.5385380000000 1.0
C      1  0.4836300000000  0.4282230000000  0.5574220000000 1.0
C      1  0.5795910000000  0.5178030000000  0.5305670000000 1.0
C      1  0.4823320000000  0.4681200000000  0.4756870000000 1.0
C      1  0.3809180000000  0.4402800000000  0.5290150000000 1.0
C      1  0.5577250000000  0.4098750000000  0.5392420000000 1.0
C      1  0.4985480000000  0.4984430000000  0.5508170000000 1.0
C      1  0.4286430000000  0.5746900000000  0.6072160000000 1.0
C      1  0.4793020000000  0.5194830000000  0.5519340000000 1.0
C      1  0.5845430000000  0.4687150000000  0.5740790000000 1.0
C      1  0.4385090000000  0.5581350000000  0.6257120000000 1.0
C      1  0.5095160000000  0.6039660000000  0.5451800000000 1.0
C      1  0.4400650000000  0.5124390000000  0.3952110000000 1.0
C      1  0.4030370000000  0.3999160000000  0.4984740000000 1.0
C      1  0.4355620000000  0.5955930000000  0.5138850000000 1.0
C      1  0.4936380000000  0.5085710000000  0.6141440000000 1.0
C      1  0.4200880000000  0.5220010000000  0.5158180000000 1.0
C      1  0.6280530000000  0.5272720000000  0.5148140000000 1.0
C      1  0.5538240000000  0.4696250000000  0.4756440000000 1.0
C      1  0.4902480000000  0.5450830000000  0.5489280000000 1.0
C      1  0.5597770000000  0.5370460000000  0.5714120000000 1.0
C      1  0.5075680000000  0.5693330000000  0.5045790000000 1.0
C      1  0.5730280000000  0.5704740000000  0.5168160000000 1.0
C      1  0.4725890000000  0.4480700000000  0.5770390000000 1.0
C      1  0.5581780000000  0.3944310000000  0.4626770000000 1.0
C      1  0.5678190000000  0.4997910000000  0.5122640000000 1.0
C      1  0.4473370000000  0.4589680000000  0.4328230000000 1.0
C      1  0.5337500000000  0.6042550000000  0.5286840000000 1.0
C      1  0.5681740000000  0.4716330000000  0.5029000000000 1.0
C      1  0.3908280000000  0.4205300000000  0.5136810000000 1.0
END
