TITL C-599893-4344-1052 1.56920511052485 125000 -558.739621921354 0 0 94 (C1) n - 1
REM
REM in /home/nfs/bkarasulu/CARBON/AIRSS/Generating-Clusters/TERSOFF/Only-C1/FIRE-HFTN
REM
REM
REM
REM
REM
REM ./C.cell (11c1c37f851c82e70ff6c80c92926a4b)
REM AIRSS Version 0.9.1 bugfix July 2018 build 013d7b7c2542+ Fri, 06 Jul 2018 19:26:36 +0100
REM compiler GCC version 9.2.1 20190827 (Red Hat 9.2.1-1)
REM options -cpp -mtune=generic -march=x86-64 -g -O0 -fpre-include=/usr/include/finclude/math-vector-fortran.h
REM seed -1655925739 2143056839 2043273743 -2040561765 -1280662285 -1242836758 130471003 198489118 142619840 521536982 646442609 -1292880135 -1547294144 1118308038 1269399482 -1453772644 1977366722 156704498 -754572364 966769788 -1921275320 -84436876 -133137502 -1291882056 1996904639 -278761821 1698616708 -478630361 -1413258531 -1718111303 -1464292495 1552061087 1102817679
REM
CELL 1.54180   50.00000   50.00000   50.00000   90.00000   90.00000   90.00000
LATT -1
SFAC C  
C      1  0.5728120000000  0.5148460000000  0.4602740000000 1.0
C      1  0.5121440000000  0.5616510000000  0.4125610000000 1.0
C      1  0.4875350000000  0.4391390000000  0.5808630000000 1.0
C      1  0.4868390000000  0.4967800000000  0.4398290000000 1.0
C      1  0.5080190000000  0.4129620000000  0.4770090000000 1.0
C      1  0.5183630000000  0.4241910000000  0.4110070000000 1.0
C      1  0.5113930000000  0.4525780000000  0.5738300000000 1.0
C      1  0.4669140000000  0.4874020000000  0.4224170000000 1.0
C      1  0.4458110000000  0.4497900000000  0.5518550000000 1.0
C      1  0.4250640000000  0.5502970000000  0.4590040000000 1.0
C      1  0.4409500000000  0.4929930000000  0.4186030000000 1.0
C      1  0.4330190000000  0.5564330000000  0.5048700000000 1.0
C      1  0.4516330000000  0.5460190000000  0.5791490000000 1.0
C      1  0.4859390000000  0.4700300000000  0.5255420000000 1.0
C      1  0.5102640000000  0.4566160000000  0.5229290000000 1.0
C      1  0.4296610000000  0.5556780000000  0.5327080000000 1.0
C      1  0.5202770000000  0.4463860000000  0.5474350000000 1.0
C      1  0.4634900000000  0.4357700000000  0.5692540000000 1.0
C      1  0.5474460000000  0.4674780000000  0.4565710000000 1.0
C      1  0.5491620000000  0.5638500000000  0.5251700000000 1.0
C      1  0.5440760000000  0.4854200000000  0.5118030000000 1.0
C      1  0.4926160000000  0.5646800000000  0.5386620000000 1.0
C      1  0.4885800000000  0.5369120000000  0.5261090000000 1.0
C      1  0.5827660000000  0.4620300000000  0.5529370000000 1.0
C      1  0.4472380000000  0.3956020000000  0.4560950000000 1.0
C      1  0.5756320000000  0.4371620000000  0.5090790000000 1.0
C      1  0.4911190000000  0.5178090000000  0.5903220000000 1.0
C      1  0.5683040000000  0.5124440000000  0.5672100000000 1.0
C      1  0.5341900000000  0.4255630000000  0.4807270000000 1.0
C      1  0.4444500000000  0.4430680000000  0.4587530000000 1.0
C      1  0.4896770000000  0.4181680000000  0.4547400000000 1.0
C      1  0.5316220000000  0.6451180000000  0.3656150000000 1.0
C      1  0.4801270000000  0.5440690000000  0.5826040000000 1.0
C      1  0.4815010000000  0.5408790000000  0.4963720000000 1.0
C      1  0.4516490000000  0.4175320000000  0.5161230000000 1.0
C      1  0.4171670000000  0.5096150000000  0.4842610000000 1.0
C      1  0.5766540000000  0.5556110000000  0.5323120000000 1.0
C      1  0.4426030000000  0.5729500000000  0.4616890000000 1.0
C      1  0.5976860000000  0.5729880000000  0.5292090000000 1.0
C      1  0.5409610000000  0.6036880000000  0.4969170000000 1.0
C      1  0.5496670000000  0.4562070000000  0.4310560000000 1.0
C      1  0.5340230000000  0.5440040000000  0.5384410000000 1.0
C      1  0.4348720000000  0.5513560000000  0.5586690000000 1.0
C      1  0.5885390000000  0.4579050000000  0.5245420000000 1.0
C      1  0.5190090000000  0.4770500000000  0.5862050000000 1.0
C      1  0.5601320000000  0.4920710000000  0.4607710000000 1.0
C      1  0.4719980000000  0.4007870000000  0.5111710000000 1.0
C      1  0.4607250000000  0.4197010000000  0.4571820000000 1.0
C      1  0.5010970000000  0.5798180000000  0.5146940000000 1.0
C      1  0.4213610000000  0.5378010000000  0.4855410000000 1.0
C      1  0.5645910000000  0.3905210000000  0.4976610000000 1.0
C      1  0.4553190000000  0.5861130000000  0.4408240000000 1.0
C      1  0.4484890000000  0.4859120000000  0.5841960000000 1.0
C      1  0.4993550000000  0.5864560000000  0.4102340000000 1.0
C      1  0.5194930000000  0.5182170000000  0.4956360000000 1.0
C      1  0.4798130000000  0.5704560000000  0.4947940000000 1.0
C      1  0.4929310000000  0.5640390000000  0.5668540000000 1.0
C      1  0.4806810000000  0.4911300000000  0.5424780000000 1.0
C      1  0.4735110000000  0.5165530000000  0.5396270000000 1.0
C      1  0.4275330000000  0.4638310000000  0.4627930000000 1.0
C      1  0.4085620000000  0.4810190000000  0.5567960000000 1.0
C      1  0.5473740000000  0.4874480000000  0.5379680000000 1.0
C      1  0.5071510000000  0.5126120000000  0.4286310000000 1.0
C      1  0.4956560000000  0.3995710000000  0.4986260000000 1.0
C      1  0.5394620000000  0.4405180000000  0.4121320000000 1.0
C      1  0.5980870000000  0.4839280000000  0.5154120000000 1.0
C      1  0.5211670000000  0.6261090000000  0.3800720000000 1.0
C      1  0.4647180000000  0.4638160000000  0.5078130000000 1.0
C      1  0.5308520000000  0.5829960000000  0.5119120000000 1.0
C      1  0.5581240000000  0.4176930000000  0.4958430000000 1.0
C      1  0.4751440000000  0.5904960000000  0.4237190000000 1.0
C      1  0.4231370000000  0.5049500000000  0.4367220000000 1.0
C      1  0.5664900000000  0.4846340000000  0.5585750000000 1.0
C      1  0.5151640000000  0.5360690000000  0.4190180000000 1.0
C      1  0.5186140000000  0.5057670000000  0.5879700000000 1.0
C      1  0.4699340000000  0.4986290000000  0.5942660000000 1.0
C      1  0.4683160000000  0.4781880000000  0.4834750000000 1.0
C      1  0.4485310000000  0.4447290000000  0.5231330000000 1.0
C      1  0.5105420000000  0.6067910000000  0.3947650000000 1.0
C      1  0.4943620000000  0.5197900000000  0.4816190000000 1.0
C      1  0.4826180000000  0.4977540000000  0.4681660000000 1.0
C      1  0.4198950000000  0.5331280000000  0.4373350000000 1.0
C      1  0.4334510000000  0.4725130000000  0.5641070000000 1.0
C      1  0.5425430000000  0.5209210000000  0.5797900000000 1.0
C      1  0.5955170000000  0.5094940000000  0.5251550000000 1.0
C      1  0.4516970000000  0.5744620000000  0.4894940000000 1.0
C      1  0.5336590000000  0.4538790000000  0.4775520000000 1.0
C      1  0.4997940000000  0.4168060000000  0.4285870000000 1.0
C      1  0.5353410000000  0.5445300000000  0.5662880000000 1.0
C      1  0.5814740000000  0.5278760000000  0.5434660000000 1.0
C      1  0.4200280000000  0.4913440000000  0.4622190000000 1.0
C      1  0.5175780000000  0.5283230000000  0.5224720000000 1.0
C      1  0.5269810000000  0.4661070000000  0.5018660000000 1.0
C      1  0.5695410000000  0.3649850000000  0.4992480000000 1.0
END
