TITL C-599893-4344-1413 3.51930078369057 125000 -874.405121613033 0 0 141 (C1) n - 1
REM
REM in /home/nfs/bkarasulu/CARBON/AIRSS/Generating-Clusters/TERSOFF/Only-C1/FIRE-HFTN
REM
REM
REM
REM
REM
REM ./C.cell (11c1c37f851c82e70ff6c80c92926a4b)
REM AIRSS Version 0.9.1 bugfix July 2018 build 013d7b7c2542+ Fri, 06 Jul 2018 19:26:36 +0100
REM compiler GCC version 9.2.1 20190827 (Red Hat 9.2.1-1)
REM options -cpp -mtune=generic -march=x86-64 -g -O0 -fpre-include=/usr/include/finclude/math-vector-fortran.h
REM seed -668544394 -804352871 699754647 -776835370 1521621995 1453603048 24066911 -678174852 291006987 -672668805 -1482183306 -1929754750 1504245388 -689194034 -1891194875 -2025430372 -329454057 -801016547 2137665507 -1116663109 571916770 1138628785 634751524 -1561321308 513902527 -1900213713 997791472 881374359 592661965 -248904321 -1433582938 190373838 -2120363239
REM
CELL 1.54180   50.00000   50.00000   50.00000   90.00000   90.00000   90.00000
LATT -1
SFAC C  
C      1  0.4660120000000  0.5788740000000  0.4395680000000 1.0
C      1  0.5304910000000  0.5616960000000  0.5831660000000 1.0
C      1  0.4952130000000  0.4311600000000  0.5865630000000 1.0
C      1  0.4850570000000  0.6077780000000  0.3405050000000 1.0
C      1  0.4771790000000  0.6138880000000  0.3159520000000 1.0
C      1  0.5809490000000  0.5631410000000  0.5758430000000 1.0
C      1  0.5016380000000  0.4474310000000  0.4229140000000 1.0
C      1  0.4935110000000  0.3925940000000  0.5013150000000 1.0
C      1  0.4735610000000  0.6065040000000  0.5004540000000 1.0
C      1  0.4693000000000  0.6199990000000  0.2913920000000 1.0
C      1  0.4936670000000  0.4690840000000  0.5594780000000 1.0
C      1  0.5128030000000  0.4868170000000  0.4485980000000 1.0
C      1  0.4405500000000  0.5137620000000  0.4604590000000 1.0
C      1  0.5408240000000  0.5405130000000  0.4787710000000 1.0
C      1  0.3963240000000  0.4448200000000  0.5067280000000 1.0
C      1  0.6183750000000  0.4639910000000  0.4860730000000 1.0
C      1  0.4642860000000  0.4754130000000  0.4292330000000 1.0
C      1  0.5840350000000  0.5289580000000  0.4272070000000 1.0
C      1  0.5558700000000  0.5701060000000  0.5819220000000 1.0
C      1  0.5538820000000  0.5629370000000  0.4664790000000 1.0
C      1  0.4101050000000  0.5416550000000  0.5100180000000 1.0
C      1  0.5261820000000  0.5224680000000  0.5289280000000 1.0
C      1  0.5546420000000  0.5172060000000  0.4867150000000 1.0
C      1  0.5204290000000  0.4241470000000  0.5724240000000 1.0
C      1  0.4917760000000  0.5062800000000  0.4542840000000 1.0
C      1  0.5016790000000  0.6014750000000  0.5539040000000 1.0
C      1  0.5487170000000  0.5133580000000  0.3998670000000 1.0
C      1  0.4937720000000  0.4820100000000  0.6053490000000 1.0
C      1  0.5779390000000  0.4615020000000  0.4644480000000 1.0
C      1  0.4489920000000  0.4793980000000  0.5471710000000 1.0
C      1  0.4743240000000  0.4887200000000  0.5535590000000 1.0
C      1  0.5170040000000  0.4279870000000  0.5438540000000 1.0
C      1  0.5098200000000  0.5853230000000  0.4618590000000 1.0
C      1  0.4009310000000  0.4184770000000  0.5033060000000 1.0
C      1  0.4384780000000  0.4523620000000  0.4703530000000 1.0
C      1  0.5201010000000  0.4034250000000  0.4996800000000 1.0
C      1  0.5122470000000  0.5437490000000  0.4822850000000 1.0
C      1  0.5148470000000  0.4747290000000  0.4201570000000 1.0
C      1  0.5291890000000  0.5142480000000  0.5864740000000 1.0
C      1  0.4479550000000  0.4078910000000  0.4989290000000 1.0
C      1  0.4879150000000  0.4611720000000  0.4964800000000 1.0
C      1  0.5295240000000  0.4029310000000  0.4729750000000 1.0
C      1  0.4214760000000  0.5496450000000  0.4868960000000 1.0
C      1  0.5968130000000  0.5435250000000  0.5669490000000 1.0
C      1  0.4851170000000  0.5084040000000  0.5003000000000 1.0
C      1  0.5585190000000  0.4296110000000  0.5217040000000 1.0
C      1  0.4476190000000  0.5612430000000  0.4472400000000 1.0
C      1  0.5152880000000  0.4653860000000  0.4929660000000 1.0
C      1  0.4112510000000  0.4229070000000  0.4362600000000 1.0
C      1  0.5021550000000  0.4921200000000  0.3995970000000 1.0
C      1  0.5962290000000  0.5168420000000  0.5576470000000 1.0
C      1  0.5368740000000  0.5801100000000  0.4516130000000 1.0
C      1  0.4090130000000  0.4684510000000  0.5151190000000 1.0
C      1  0.5218560000000  0.5104350000000  0.3902970000000 1.0
C      1  0.5533250000000  0.3914700000000  0.4661570000000 1.0
C      1  0.4949920000000  0.5220430000000  0.4775340000000 1.0
C      1  0.4683290000000  0.5467760000000  0.6176830000000 1.0
C      1  0.4714700000000  0.4834730000000  0.4940500000000 1.0
C      1  0.5325500000000  0.4169800000000  0.5220090000000 1.0
C      1  0.4365860000000  0.3898640000000  0.5571330000000 1.0
C      1  0.5445020000000  0.4677290000000  0.4162490000000 1.0
C      1  0.5105670000000  0.4562380000000  0.5404500000000 1.0
C      1  0.4708420000000  0.4976920000000  0.6116060000000 1.0
C      1  0.4968910000000  0.6051630000000  0.5802380000000 1.0
C      1  0.4740860000000  0.4856820000000  0.4027700000000 1.0
C      1  0.5147720000000  0.5385400000000  0.5795180000000 1.0
C      1  0.5779930000000  0.4995190000000  0.5721950000000 1.0
C      1  0.5813890000000  0.5006780000000  0.4337970000000 1.0
C      1  0.4639150000000  0.4997500000000  0.4467460000000 1.0
C      1  0.5471650000000  0.4341250000000  0.5788940000000 1.0
C      1  0.4044070000000  0.5108640000000  0.5507490000000 1.0
C      1  0.4780240000000  0.4423480000000  0.5138910000000 1.0
C      1  0.4764050000000  0.4476320000000  0.4373330000000 1.0
C      1  0.4615500000000  0.6260100000000  0.2672370000000 1.0
C      1  0.4905010000000  0.5844240000000  0.5078970000000 1.0
C      1  0.4688230000000  0.4182860000000  0.5828720000000 1.0
C      1  0.5461570000000  0.4440030000000  0.4334850000000 1.0
C      1  0.4879920000000  0.3784140000000  0.5250110000000 1.0
C      1  0.5514430000000  0.4797500000000  0.5249430000000 1.0
C      1  0.5648600000000  0.4540610000000  0.5363380000000 1.0
C      1  0.5815740000000  0.4719760000000  0.5778400000000 1.0
C      1  0.4825770000000  0.3818120000000  0.5510490000000 1.0
C      1  0.4927040000000  0.5808260000000  0.5365350000000 1.0
C      1  0.4779970000000  0.5609610000000  0.5511810000000 1.0
C      1  0.4359790000000  0.5419030000000  0.4636710000000 1.0
C      1  0.5510650000000  0.4560600000000  0.4592890000000 1.0
C      1  0.4046610000000  0.4656400000000  0.5778230000000 1.0
C      1  0.5089440000000  0.5881570000000  0.4149730000000 1.0
C      1  0.5030980000000  0.5708940000000  0.4857090000000 1.0
C      1  0.4933470000000  0.4601780000000  0.5868670000000 1.0
C      1  0.4052880000000  0.5164590000000  0.5220250000000 1.0
C      1  0.5008070000000  0.5954670000000  0.3895730000000 1.0
C      1  0.4825620000000  0.4193420000000  0.4594260000000 1.0
C      1  0.5610160000000  0.4951770000000  0.5010440000000 1.0
C      1  0.4772890000000  0.5718590000000  0.6150470000000 1.0
C      1  0.4088760000000  0.4947480000000  0.5031590000000 1.0
C      1  0.4929340000000  0.6016660000000  0.3650570000000 1.0
C      1  0.5355920000000  0.5796780000000  0.4225270000000 1.0
C      1  0.5277420000000  0.4710040000000  0.4684820000000 1.0
C      1  0.4464320000000  0.4759320000000  0.4831260000000 1.0
C      1  0.4232330000000  0.4484980000000  0.5872530000000 1.0
C      1  0.5358620000000  0.5480930000000  0.5276460000000 1.0
C      1  0.4988390000000  0.5151230000000  0.5241470000000 1.0
C      1  0.5215770000000  0.4288020000000  0.4322720000000 1.0
C      1  0.5112820000000  0.4135230000000  0.4537150000000 1.0
C      1  0.4194550000000  0.5260990000000  0.5692600000000 1.0
C      1  0.5503070000000  0.5063680000000  0.5689470000000 1.0
C      1  0.4923610000000  0.5878410000000  0.4387700000000 1.0
C      1  0.4219040000000  0.4000120000000  0.5083450000000 1.0
C      1  0.4572610000000  0.4267930000000  0.5182560000000 1.0
C      1  0.4574230000000  0.5225150000000  0.6080770000000 1.0
C      1  0.4853660000000  0.6311750000000  0.4945830000000 1.0
C      1  0.5248960000000  0.4680720000000  0.5189790000000 1.0
C      1  0.4722630000000  0.4033690000000  0.4829290000000 1.0
C      1  0.6062130000000  0.5113360000000  0.5314270000000 1.0
C      1  0.5610040000000  0.4905910000000  0.4144890000000 1.0
C      1  0.4296790000000  0.4663560000000  0.5343030000000 1.0
C      1  0.4975310000000  0.6533930000000  0.4884650000000 1.0
C      1  0.3956520000000  0.4862550000000  0.5626910000000 1.0
C      1  0.4631120000000  0.3953310000000  0.5662400000000 1.0
C      1  0.4903860000000  0.5380130000000  0.5633250000000 1.0
C      1  0.4845410000000  0.5142310000000  0.5484950000000 1.0
C      1  0.4870670000000  0.5932200000000  0.6021860000000 1.0
C      1  0.5521520000000  0.5625530000000  0.4079140000000 1.0
C      1  0.5181140000000  0.4966010000000  0.6053030000000 1.0
C      1  0.6101010000000  0.4918130000000  0.4813150000000 1.0
C      1  0.5985350000000  0.4466960000000  0.4777830000000 1.0
C      1  0.4351750000000  0.5247500000000  0.5908860000000 1.0
C      1  0.4276550000000  0.4971790000000  0.4810910000000 1.0
C      1  0.4456130000000  0.4337620000000  0.5899940000000 1.0
C      1  0.5425440000000  0.5031410000000  0.5421310000000 1.0
C      1  0.5632020000000  0.5368420000000  0.4082130000000 1.0
C      1  0.4244690000000  0.4371310000000  0.4536540000000 1.0
C      1  0.5952000000000  0.5477620000000  0.4446660000000 1.0
C      1  0.5816370000000  0.5627390000000  0.4624390000000 1.0
C      1  0.5896380000000  0.4884320000000  0.4584390000000 1.0
C      1  0.4463740000000  0.6035810000000  0.4997750000000 1.0
C      1  0.4224290000000  0.3878740000000  0.5341870000000 1.0
C      1  0.6100990000000  0.5078940000000  0.5048270000000 1.0
C      1  0.4509820000000  0.5650850000000  0.5536720000000 1.0
C      1  0.5665400000000  0.4512510000000  0.5654990000000 1.0
END
