TITL C-599896-8500-695 21454.7719644791 125000 -1142.21569322446 0 0 187 (C1) n - 1
REM
REM in /home/nfs/bkarasulu/CARBON/AIRSS/Generating-Clusters/TERSOFF/Only-C1/FIRE-HFTN
REM
REM
REM
REM
REM
REM ./C.cell (11c1c37f851c82e70ff6c80c92926a4b)
REM AIRSS Version 0.9.1 bugfix July 2018 build 013d7b7c2542+ Fri, 06 Jul 2018 19:26:36 +0100
REM compiler GCC version 9.2.1 20190827 (Red Hat 9.2.1-1)
REM options -cpp -mtune=generic -march=x86-64 -g -O0 -fpre-include=/usr/include/finclude/math-vector-fortran.h
REM seed -1321946540 -216310520 -1919295184 684255884 -1552685931 -685547091 -233812004 1908173509 1326723089 -1199186062 207674408 -1857570618 1051027476 -1278638487 1518704689 1362950411 778537948 202127440 -1932728027 -326935323 -249891297 150503435 1924046802 535648720 46319451 389502672 46075140 -1256914045 977934214 222852254 -115739375 -92067430 596672575
REM
CELL 1.54180   50.00000   50.00000   50.00000   90.00000   90.00000   90.00000
LATT -1
SFAC C  
C      1  0.5014610000000  0.4429950000000  0.4354190000000 1.0
C      1  0.5265510000000  0.4067650000000  0.5617330000000 1.0
C      1  0.5039580000000  0.3924910000000  0.5198910000000 1.0
C      1  0.5382920000000  0.6175400000000  0.5233450000000 1.0
C      1  0.5485020000000  0.5692670000000  0.5850950000000 1.0
C      1  0.4668760000000  0.5574390000000  0.6531110000000 1.0
C      1  0.5284750000000  0.6024990000000  0.5471450000000 1.0
C      1  0.4888610000000  0.4759710000000  0.6118660000000 1.0
C      1  0.4378040000000  0.5269810000000  0.4728300000000 1.0
C      1  0.5270030000000  0.4619910000000  0.5513660000000 1.0
C      1  0.5800460000000  0.4367130000000  0.4038830000000 1.0
C      1  0.6227080000000  0.5402990000000  0.4410600000000 1.0
C      1  0.4337620000000  0.4710150000000  0.5236320000000 1.0
C      1  0.4829790000000  0.3645630000000  0.4164470000000 1.0
C      1  0.4813230000000  0.4170430000000  0.4814010000000 1.0
C      1  0.5656840000000  0.6157140000000  0.5149000000000 1.0
C      1  0.5290550000000  0.4415030000000  0.4272340000000 1.0
C      1  0.3917330000000  0.5540970000000  0.4588070000000 1.0
C      1  0.5485420000000  0.4175950000000  0.5456030000000 1.0
C      1  0.4440750000000  0.5904300000000  0.3956650000000 1.0
C      1  0.4620120000000  0.3527130000000  0.4280950000000 1.0
C      1  0.5169880000000  0.5156710000000  0.5564890000000 1.0
C      1  0.5027390000000  0.5647010000000  0.5510370000000 1.0
C      1  0.4182580000000  0.5100730000000  0.5992390000000 1.0
C      1  0.4311650000000  0.5615440000000  0.5093830000000 1.0
C      1  0.5613140000000  0.4533310000000  0.3908370000000 1.0
C      1  0.5004060000000  0.4256150000000  0.6023920000000 1.0
C      1  0.5647950000000  0.4856310000000  0.4916990000000 1.0
C      1  0.5985690000000  0.4584640000000  0.5244340000000 1.0
C      1  0.6141130000000  0.5288380000000  0.5127630000000 1.0
C      1  0.5704510000000  0.5720520000000  0.4537980000000 1.0
C      1  0.5160510000000  0.5212330000000  0.6099750000000 1.0
C      1  0.5497860000000  0.4465860000000  0.5459360000000 1.0
C      1  0.4856530000000  0.5541320000000  0.4530930000000 1.0
C      1  0.3850810000000  0.4652740000000  0.4369000000000 1.0
C      1  0.4408050000000  0.5700990000000  0.4144550000000 1.0
C      1  0.4093240000000  0.5733740000000  0.4511450000000 1.0
C      1  0.4789570000000  0.3906960000000  0.6374900000000 1.0
C      1  0.5763910000000  0.5439740000000  0.4563760000000 1.0
C      1  0.5599440000000  0.5395970000000  0.6242850000000 1.0
C      1  0.5128290000000  0.4890280000000  0.5723570000000 1.0
C      1  0.5125790000000  0.5133900000000  0.5035990000000 1.0
C      1  0.5811580000000  0.5884460000000  0.4755530000000 1.0
C      1  0.6128490000000  0.5202700000000  0.4842790000000 1.0
C      1  0.5035960000000  0.5571930000000  0.4078010000000 1.0
C      1  0.4925510000000  0.4837920000000  0.5322250000000 1.0
C      1  0.4600210000000  0.3992610000000  0.4766940000000 1.0
C      1  0.3953950000000  0.5397220000000  0.5638120000000 1.0
C      1  0.5213310000000  0.6253230000000  0.5013970000000 1.0
C      1  0.5247940000000  0.5613180000000  0.5086090000000 1.0
C      1  0.5692680000000  0.4587110000000  0.5292120000000 1.0
C      1  0.6398940000000  0.5453710000000  0.4221390000000 1.0
C      1  0.4580070000000  0.4989340000000  0.5618550000000 1.0
C      1  0.4821170000000  0.5362210000000  0.5836150000000 1.0
C      1  0.4632430000000  0.4876350000000  0.6183510000000 1.0
C      1  0.4290020000000  0.4142620000000  0.5529380000000 1.0
C      1  0.3835780000000  0.4942320000000  0.5356060000000 1.0
C      1  0.6138640000000  0.5047850000000  0.5299510000000 1.0
C      1  0.5682330000000  0.5060490000000  0.5355340000000 1.0
C      1  0.5483420000000  0.4299830000000  0.5995940000000 1.0
C      1  0.5476630000000  0.5814440000000  0.5584510000000 1.0
C      1  0.4613900000000  0.5333980000000  0.3884920000000 1.0
C      1  0.4266350000000  0.5072440000000  0.4926000000000 1.0
C      1  0.5218060000000  0.5685800000000  0.4816960000000 1.0
C      1  0.4581980000000  0.5714130000000  0.4649890000000 1.0
C      1  0.5247240000000  0.4187930000000  0.5884940000000 1.0
C      1  0.4273500000000  0.4779140000000  0.4977170000000 1.0
C      1  0.4336250000000  0.4701410000000  0.4389790000000 1.0
C      1  0.4896530000000  0.4078320000000  0.6210260000000 1.0
C      1  0.4070300000000  0.4816600000000  0.4382340000000 1.0
C      1  0.4571900000000  0.4119440000000  0.5554510000000 1.0
C      1  0.4882250000000  0.5133620000000  0.4254800000000 1.0
C      1  0.5972430000000  0.4195200000000  0.5464540000000 1.0
C      1  0.4634260000000  0.4744100000000  0.4425480000000 1.0
C      1  0.4887690000000  0.5040760000000  0.3273160000000 1.0
C      1  0.4391040000000  0.4986910000000  0.6124720000000 1.0
C      1  0.4385200000000  0.4840850000000  0.5470470000000 1.0
C      1  0.5041150000000  0.5405450000000  0.5656160000000 1.0
C      1  0.4483280000000  0.6091420000000  0.3780330000000 1.0
C      1  0.5675100000000  0.4485040000000  0.6015630000000 1.0
C      1  0.4660140000000  0.5087420000000  0.3716660000000 1.0
C      1  0.5018610000000  0.4780550000000  0.4739020000000 1.0
C      1  0.5107820000000  0.5060950000000  0.5298700000000 1.0
C      1  0.4590980000000  0.5265830000000  0.5700060000000 1.0
C      1  0.5114980000000  0.3702700000000  0.5060020000000 1.0
C      1  0.4873690000000  0.5502230000000  0.3842050000000 1.0
C      1  0.5729790000000  0.4099690000000  0.5304120000000 1.0
C      1  0.4770220000000  0.4643850000000  0.4674340000000 1.0
C      1  0.5820030000000  0.4360480000000  0.4873610000000 1.0
C      1  0.5750350000000  0.5624250000000  0.6235000000000 1.0
C      1  0.4696090000000  0.4542420000000  0.3789740000000 1.0
C      1  0.4904630000000  0.5416440000000  0.4279170000000 1.0
C      1  0.4034640000000  0.5106810000000  0.4389130000000 1.0
C      1  0.4450850000000  0.5148920000000  0.5145380000000 1.0
C      1  0.5682710000000  0.5791900000000  0.6029300000000 1.0
C      1  0.4057450000000  0.4307670000000  0.5520720000000 1.0
C      1  0.4974450000000  0.5420010000000  0.3583360000000 1.0
C      1  0.5634440000000  0.5685860000000  0.5377050000000 1.0
C      1  0.4515350000000  0.5583290000000  0.5298090000000 1.0
C      1  0.4790690000000  0.5472180000000  0.6324740000000 1.0
C      1  0.5386410000000  0.4603940000000  0.4070100000000 1.0
C      1  0.5528240000000  0.3982120000000  0.4803580000000 1.0
C      1  0.5442640000000  0.5803500000000  0.4416800000000 1.0
C      1  0.4468080000000  0.3585820000000  0.4493480000000 1.0
C      1  0.6167340000000  0.4911890000000  0.4858500000000 1.0
C      1  0.4874410000000  0.4505130000000  0.5972840000000 1.0
C      1  0.4909070000000  0.5355930000000  0.6104110000000 1.0
C      1  0.5270820000000  0.4864090000000  0.4044510000000 1.0
C      1  0.4776090000000  0.4547950000000  0.5707330000000 1.0
C      1  0.3919530000000  0.5254560000000  0.4631300000000 1.0
C      1  0.5172920000000  0.3884030000000  0.4408700000000 1.0
C      1  0.4924680000000  0.4161500000000  0.5081140000000 1.0
C      1  0.3930710000000  0.4428220000000  0.5292180000000 1.0
C      1  0.5639620000000  0.4606160000000  0.3646990000000 1.0
C      1  0.3876250000000  0.5195560000000  0.5196150000000 1.0
C      1  0.5985290000000  0.4720860000000  0.5670540000000 1.0
C      1  0.4994210000000  0.5941040000000  0.5505060000000 1.0
C      1  0.6038070000000  0.5347590000000  0.4610390000000 1.0
C      1  0.5392770000000  0.4011020000000  0.4543860000000 1.0
C      1  0.3828790000000  0.4677550000000  0.5240840000000 1.0
C      1  0.4189830000000  0.5913020000000  0.5414350000000 1.0
C      1  0.4695920000000  0.5257580000000  0.5073570000000 1.0
C      1  0.4404940000000  0.5536950000000  0.4832510000000 1.0
C      1  0.3871160000000  0.4685190000000  0.5783790000000 1.0
C      1  0.4892710000000  0.5164050000000  0.4920310000000 1.0
C      1  0.5144670000000  0.5002050000000  0.4642300000000 1.0
C      1  0.4869920000000  0.4367560000000  0.4612800000000 1.0
C      1  0.4082400000000  0.5682310000000  0.5257580000000 1.0
C      1  0.5821570000000  0.5952920000000  0.5035480000000 1.0
C      1  0.4909690000000  0.4096760000000  0.4011480000000 1.0
C      1  0.5611210000000  0.5266600000000  0.5157330000000 1.0
C      1  0.4267230000000  0.5248310000000  0.4265530000000 1.0
C      1  0.5159560000000  0.5556100000000  0.3438300000000 1.0
C      1  0.5301120000000  0.5903160000000  0.4652960000000 1.0
C      1  0.4865570000000  0.4658960000000  0.4232340000000 1.0
C      1  0.5608270000000  0.4830100000000  0.5200460000000 1.0
C      1  0.5622010000000  0.5138820000000  0.4891340000000 1.0
C      1  0.5878560000000  0.5750490000000  0.5233640000000 1.0
C      1  0.5411870000000  0.5072800000000  0.3938470000000 1.0
C      1  0.3968800000000  0.4435050000000  0.5759040000000 1.0
C      1  0.5009740000000  0.5589910000000  0.5233350000000 1.0
C      1  0.5551610000000  0.5270310000000  0.4654680000000 1.0
C      1  0.3972360000000  0.5165640000000  0.4918150000000 1.0
C      1  0.4890410000000  0.4370240000000  0.5273120000000 1.0
C      1  0.5392910000000  0.4496770000000  0.4794080000000 1.0
C      1  0.5010040000000  0.4899190000000  0.4144100000000 1.0
C      1  0.5740180000000  0.4230310000000  0.4263390000000 1.0
C      1  0.3997630000000  0.5155780000000  0.5780350000000 1.0
C      1  0.5708960000000  0.4116550000000  0.4996740000000 1.0
C      1  0.4794570000000  0.4302560000000  0.3874600000000 1.0
C      1  0.5268380000000  0.5247750000000  0.4602470000000 1.0
C      1  0.4664900000000  0.5038610000000  0.4408660000000 1.0
C      1  0.5291320000000  0.6161910000000  0.4756880000000 1.0
C      1  0.5177330000000  0.4614250000000  0.4896920000000 1.0
C      1  0.4727190000000  0.6026750000000  0.5370000000000 1.0
C      1  0.4462220000000  0.5466520000000  0.5549840000000 1.0
C      1  0.3876990000000  0.4932980000000  0.5647400000000 1.0
C      1  0.4458060000000  0.5203330000000  0.4474330000000 1.0
C      1  0.4754580000000  0.5507020000000  0.5178290000000 1.0
C      1  0.6077710000000  0.5551750000000  0.5207010000000 1.0
C      1  0.4751430000000  0.6092510000000  0.5082660000000 1.0
C      1  0.5850450000000  0.4658120000000  0.5910650000000 1.0
C      1  0.6063580000000  0.4478560000000  0.5501600000000 1.0
C      1  0.4663990000000  0.5946300000000  0.4847010000000 1.0
C      1  0.5275060000000  0.5714370000000  0.4185040000000 1.0
C      1  0.5391260000000  0.5382750000000  0.6051980000000 1.0
C      1  0.4469140000000  0.3779160000000  0.4677810000000 1.0
C      1  0.4397670000000  0.5420040000000  0.4065220000000 1.0
C      1  0.4832030000000  0.4830230000000  0.5613850000000 1.0
C      1  0.5040040000000  0.3931430000000  0.5489180000000 1.0
C      1  0.4939650000000  0.6298850000000  0.5041500000000 1.0
C      1  0.3937710000000  0.5445460000000  0.5354060000000 1.0
C      1  0.5658020000000  0.4589670000000  0.4804770000000 1.0
C      1  0.4368580000000  0.5763200000000  0.4422850000000 1.0
C      1  0.4984430000000  0.3880810000000  0.4188520000000 1.0
C      1  0.5102720000000  0.5483010000000  0.4662880000000 1.0
C      1  0.4716610000000  0.4358610000000  0.5502930000000 1.0
C      1  0.5935140000000  0.4990110000000  0.5507320000000 1.0
C      1  0.5483180000000  0.4227120000000  0.4378920000000 1.0
C      1  0.6137360000000  0.4799920000000  0.5125120000000 1.0
C      1  0.4769810000000  0.3913770000000  0.5596550000000 1.0
C      1  0.5065930000000  0.4588970000000  0.5298440000000 1.0
C      1  0.4846130000000  0.5174080000000  0.3506830000000 1.0
C      1  0.5110310000000  0.4933120000000  0.6021300000000 1.0
C      1  0.5485470000000  0.5511450000000  0.5207340000000 1.0
C      1  0.4447250000000  0.6012230000000  0.5459040000000 1.0
C      1  0.4632590000000  0.4805930000000  0.3759650000000 1.0
END
