TITL C-599891-72-63 3.94751979153872 125000 -972.818326607672 0 0 160 (C1) n - 1
REM
REM in /home/nfs/bkarasulu/CARBON/AIRSS/Generating-Clusters/TERSOFF/Only-C1/FIRE-HFTN
REM
REM
REM
REM
REM
REM ./C.cell (11c1c37f851c82e70ff6c80c92926a4b)
REM AIRSS Version 0.9.1 bugfix July 2018 build 013d7b7c2542+ Fri, 06 Jul 2018 19:26:36 +0100
REM compiler GCC version 9.2.1 20190827 (Red Hat 9.2.1-1)
REM options -cpp -mtune=generic -march=x86-64 -g -O0 -fpre-include=/usr/include/finclude/math-vector-fortran.h
REM seed -2125992488 1672884230 1423759764 836367245 621531276 -1589660007 1419574160 -1021942856 1535615870 -882494996 -1139696919 820538445 -538048400 -1125367748 -776138456 1803084994 841750393 904691267 1190442450 -2008762107 559348348 1707176206 1289277023 -1168911846 2111946500 -1526009386 1443886604 -774600163 -1114039020 -1361637642 920919390 -1642556360 1185169368
REM
CELL 1.54180   50.00000   50.00000   50.00000   90.00000   90.00000   90.00000
LATT -1
SFAC C  
C      1  0.4846140000000  0.4683840000000  0.4928270000000 1.0
C      1  0.5401890000000  0.5947640000000  0.4640800000000 1.0
C      1  0.5056320000000  0.5178910000000  0.4549280000000 1.0
C      1  0.5450550000000  0.5039920000000  0.4238820000000 1.0
C      1  0.4423120000000  0.6060310000000  0.5551860000000 1.0
C      1  0.4111280000000  0.3744090000000  0.5003130000000 1.0
C      1  0.5898540000000  0.4984950000000  0.5495550000000 1.0
C      1  0.4588230000000  0.5145750000000  0.4592180000000 1.0
C      1  0.4515320000000  0.4172630000000  0.5854260000000 1.0
C      1  0.4855280000000  0.4006220000000  0.4901380000000 1.0
C      1  0.4662160000000  0.5597160000000  0.6111540000000 1.0
C      1  0.3593940000000  0.4985380000000  0.5352640000000 1.0
C      1  0.5561370000000  0.5864790000000  0.4389300000000 1.0
C      1  0.4386290000000  0.5187540000000  0.5479970000000 1.0
C      1  0.4654530000000  0.5641450000000  0.5496070000000 1.0
C      1  0.5995390000000  0.5683050000000  0.5726570000000 1.0
C      1  0.5438640000000  0.4682400000000  0.5953190000000 1.0
C      1  0.4817510000000  0.4794930000000  0.4298880000000 1.0
C      1  0.4119410000000  0.4646310000000  0.5136080000000 1.0
C      1  0.5286050000000  0.4265230000000  0.5734770000000 1.0
C      1  0.4839610000000  0.5104220000000  0.4736180000000 1.0
C      1  0.6145940000000  0.5349940000000  0.5300340000000 1.0
C      1  0.4082370000000  0.5580840000000  0.4438750000000 1.0
C      1  0.4195200000000  0.5183550000000  0.4137130000000 1.0
C      1  0.5551380000000  0.4108310000000  0.5188850000000 1.0
C      1  0.4826890000000  0.5372800000000  0.4005910000000 1.0
C      1  0.3979090000000  0.5329700000000  0.4832950000000 1.0
C      1  0.4368170000000  0.4460890000000  0.4286590000000 1.0
C      1  0.4874810000000  0.5237000000000  0.5688730000000 1.0
C      1  0.5093720000000  0.5741060000000  0.4158770000000 1.0
C      1  0.5867870000000  0.4915750000000  0.4428270000000 1.0
C      1  0.5336370000000  0.4928040000000  0.6085040000000 1.0
C      1  0.5259280000000  0.4303200000000  0.4140370000000 1.0
C      1  0.5090270000000  0.5457500000000  0.5682900000000 1.0
C      1  0.5467670000000  0.5081510000000  0.5669560000000 1.0
C      1  0.4102210000000  0.4451070000000  0.5341920000000 1.0
C      1  0.6209150000000  0.4426590000000  0.5012130000000 1.0
C      1  0.5250280000000  0.4955850000000  0.5549100000000 1.0
C      1  0.6313410000000  0.4862150000000  0.5288600000000 1.0
C      1  0.4465270000000  0.6033000000000  0.5832560000000 1.0
C      1  0.4438680000000  0.4363910000000  0.5673410000000 1.0
C      1  0.6152070000000  0.5070160000000  0.5393200000000 1.0
C      1  0.5186490000000  0.4972980000000  0.5084480000000 1.0
C      1  0.5401060000000  0.5163730000000  0.5933990000000 1.0
C      1  0.4845910000000  0.5310880000000  0.4276820000000 1.0
C      1  0.5206980000000  0.5389580000000  0.4683590000000 1.0
C      1  0.5120660000000  0.4293400000000  0.5230450000000 1.0
C      1  0.4513040000000  0.4508860000000  0.4038470000000 1.0
C      1  0.5706020000000  0.5175920000000  0.5572400000000 1.0
C      1  0.4277610000000  0.3905700000000  0.5121980000000 1.0
C      1  0.5090920000000  0.4960110000000  0.3848280000000 1.0
C      1  0.6030870000000  0.5472410000000  0.4117070000000 1.0
C      1  0.4752170000000  0.4031530000000  0.4628760000000 1.0
C      1  0.4575970000000  0.4840040000000  0.5760090000000 1.0
C      1  0.5215110000000  0.5573000000000  0.5435940000000 1.0
C      1  0.4213300000000  0.5860000000000  0.5113680000000 1.0
C      1  0.4008870000000  0.5715570000000  0.5245930000000 1.0
C      1  0.5627810000000  0.4553090000000  0.5454250000000 1.0
C      1  0.4946490000000  0.4849280000000  0.4049470000000 1.0
C      1  0.5114560000000  0.4974390000000  0.6256370000000 1.0
C      1  0.5222150000000  0.4113310000000  0.4572690000000 1.0
C      1  0.4679530000000  0.5220550000000  0.3814340000000 1.0
C      1  0.4677270000000  0.5676960000000  0.4515180000000 1.0
C      1  0.5202420000000  0.4814110000000  0.5314210000000 1.0
C      1  0.5735050000000  0.4696830000000  0.4270170000000 1.0
C      1  0.4569710000000  0.5725820000000  0.4777990000000 1.0
C      1  0.5886950000000  0.4953380000000  0.4897300000000 1.0
C      1  0.5867720000000  0.3692050000000  0.5304830000000 1.0
C      1  0.4154650000000  0.5345370000000  0.5531420000000 1.0
C      1  0.4456530000000  0.4087570000000  0.5239650000000 1.0
C      1  0.4529570000000  0.4904890000000  0.4409740000000 1.0
C      1  0.4926810000000  0.5818750000000  0.4405960000000 1.0
C      1  0.5823020000000  0.5777670000000  0.4755820000000 1.0
C      1  0.5664700000000  0.4445060000000  0.4431330000000 1.0
C      1  0.4461700000000  0.4787700000000  0.3939460000000 1.0
C      1  0.4951570000000  0.4101840000000  0.4430740000000 1.0
C      1  0.4973690000000  0.4235020000000  0.4173470000000 1.0
C      1  0.5930200000000  0.5212010000000  0.4513290000000 1.0
C      1  0.4563520000000  0.5799070000000  0.5962860000000 1.0
C      1  0.4738910000000  0.4048100000000  0.5181720000000 1.0
C      1  0.5502210000000  0.4519710000000  0.4982490000000 1.0
C      1  0.5482650000000  0.4423650000000  0.3664910000000 1.0
C      1  0.6115370000000  0.5368070000000  0.5013190000000 1.0
C      1  0.4937300000000  0.4525850000000  0.5600060000000 1.0
C      1  0.4921210000000  0.5162170000000  0.6286110000000 1.0
C      1  0.4754630000000  0.4348820000000  0.4025420000000 1.0
C      1  0.5436580000000  0.5333960000000  0.4879530000000 1.0
C      1  0.4103770000000  0.5565790000000  0.4720950000000 1.0
C      1  0.5416540000000  0.4278150000000  0.4396330000000 1.0
C      1  0.4399970000000  0.5024810000000  0.5249080000000 1.0
C      1  0.5113580000000  0.5959390000000  0.4592750000000 1.0
C      1  0.4585790000000  0.5131040000000  0.5677730000000 1.0
C      1  0.4656920000000  0.5603720000000  0.5239970000000 1.0
C      1  0.3968560000000  0.4815430000000  0.5986340000000 1.0
C      1  0.5677470000000  0.4935530000000  0.5086340000000 1.0
C      1  0.4776460000000  0.5382090000000  0.6227170000000 1.0
C      1  0.5896990000000  0.4770270000000  0.4685450000000 1.0
C      1  0.4934640000000  0.4955510000000  0.4952250000000 1.0
C      1  0.4377350000000  0.4636090000000  0.5763340000000 1.0
C      1  0.3911480000000  0.5271580000000  0.5108030000000 1.0
C      1  0.3846900000000  0.4925420000000  0.6188880000000 1.0
C      1  0.3905830000000  0.4794310000000  0.5021940000000 1.0
C      1  0.5216950000000  0.5437250000000  0.3767080000000 1.0
C      1  0.5288050000000  0.4115820000000  0.5082490000000 1.0
C      1  0.4395160000000  0.4643260000000  0.4491970000000 1.0
C      1  0.3934300000000  0.5105610000000  0.4660460000000 1.0
C      1  0.5024970000000  0.4571240000000  0.4738020000000 1.0
C      1  0.4340510000000  0.4292910000000  0.5409410000000 1.0
C      1  0.5777950000000  0.5703880000000  0.5897810000000 1.0
C      1  0.5190250000000  0.5609900000000  0.5149100000000 1.0
C      1  0.5305720000000  0.5439270000000  0.5907150000000 1.0
C      1  0.4574820000000  0.4974670000000  0.3752620000000 1.0
C      1  0.5606500000000  0.4385930000000  0.5216360000000 1.0
C      1  0.4094280000000  0.4676630000000  0.5782300000000 1.0
C      1  0.4291110000000  0.5743810000000  0.4857080000000 1.0
C      1  0.6032360000000  0.4341270000000  0.4825530000000 1.0
C      1  0.5504630000000  0.5119870000000  0.3987780000000 1.0
C      1  0.5086060000000  0.4559500000000  0.5343940000000 1.0
C      1  0.5710050000000  0.3891950000000  0.5249320000000 1.0
C      1  0.5475300000000  0.4495820000000  0.5721580000000 1.0
C      1  0.5289660000000  0.5163160000000  0.3810660000000 1.0
C      1  0.4107620000000  0.5419750000000  0.4226070000000 1.0
C      1  0.4591640000000  0.4634600000000  0.5020630000000 1.0
C      1  0.3957160000000  0.4540010000000  0.5573080000000 1.0
C      1  0.4373540000000  0.4774620000000  0.5122900000000 1.0
C      1  0.5518040000000  0.5633480000000  0.5954010000000 1.0
C      1  0.5854490000000  0.4483750000000  0.4659930000000 1.0
C      1  0.5364680000000  0.5696990000000  0.4258260000000 1.0
C      1  0.5353810000000  0.5486660000000  0.4446240000000 1.0
C      1  0.5996340000000  0.5531060000000  0.5479030000000 1.0
C      1  0.4406050000000  0.6250130000000  0.5990720000000 1.0
C      1  0.5723830000000  0.5437510000000  0.5476950000000 1.0
C      1  0.5296430000000  0.4552720000000  0.4813500000000 1.0
C      1  0.3797420000000  0.5015000000000  0.5173230000000 1.0
C      1  0.4848310000000  0.4754530000000  0.5730720000000 1.0
C      1  0.4933290000000  0.4126980000000  0.5389550000000 1.0
C      1  0.5742350000000  0.4801900000000  0.5342460000000 1.0
C      1  0.4353860000000  0.6031020000000  0.5292050000000 1.0
C      1  0.5451620000000  0.5599340000000  0.5009290000000 1.0
C      1  0.5920970000000  0.5466810000000  0.4370000000000 1.0
C      1  0.5812330000000  0.5717090000000  0.4472710000000 1.0
C      1  0.4368290000000  0.4964610000000  0.4157100000000 1.0
C      1  0.3900770000000  0.4849060000000  0.4743490000000 1.0
C      1  0.5374510000000  0.4365390000000  0.3894740000000 1.0
C      1  0.4636390000000  0.5398600000000  0.4440350000000 1.0
C      1  0.5155630000000  0.4031360000000  0.4850630000000 1.0
C      1  0.5500000000000  0.5601560000000  0.5472400000000 1.0
C      1  0.5008340000000  0.5560990000000  0.4931990000000 1.0
C      1  0.5014180000000  0.4981230000000  0.5696910000000 1.0
C      1  0.4745140000000  0.5630390000000  0.4978820000000 1.0
C      1  0.4948000000000  0.4620220000000  0.4474980000000 1.0
C      1  0.5001040000000  0.4242640000000  0.5655630000000 1.0
C      1  0.5256730000000  0.5009840000000  0.4420450000000 1.0
C      1  0.4003210000000  0.5443630000000  0.5311270000000 1.0
C      1  0.6313050000000  0.4624060000000  0.5162540000000 1.0
C      1  0.5438870000000  0.5083140000000  0.5011840000000 1.0
C      1  0.5557580000000  0.5819560000000  0.4863400000000 1.0
C      1  0.4076300000000  0.5402600000000  0.5787260000000 1.0
C      1  0.5991280000000  0.5211880000000  0.4809950000000 1.0
C      1  0.5024890000000  0.5566140000000  0.3936040000000 1.0
END
