TITL C-599890-3321-125 -410.498650805775 125000 -832.927458215932 0 0 139 (C1) n - 1
REM
REM in /home/nfs/bkarasulu/CARBON/AIRSS/Generating-Clusters/TERSOFF/Only-C1/FIRE-HFTN
REM
REM
REM
REM
REM
REM ./C.cell (11c1c37f851c82e70ff6c80c92926a4b)
REM AIRSS Version 0.9.1 bugfix July 2018 build 013d7b7c2542+ Fri, 06 Jul 2018 19:26:36 +0100
REM compiler GCC version 9.2.1 20190827 (Red Hat 9.2.1-1)
REM options -cpp -mtune=generic -march=x86-64 -g -O0 -fpre-include=/usr/include/finclude/math-vector-fortran.h
REM seed 950469474 -465492176 -1691151415 -1518947524 -1725378434 -1552872455 -936618908 199217387 145572290 462124880 804671983 -1061701857 -1348152849 1321786337 -811633757 -1621531243 1041649131 -375548051 -1018671123 -1708765578 2126488322 -89264291 494213106 -1489789237 -1291068833 -821817409 83478945 -81112316 -596021917 1798926969 -1779702537 1663385061 -1862872741
REM
CELL 1.54180   50.00000   50.00000   50.00000   90.00000   90.00000   90.00000
LATT -1
SFAC C  
C      1  0.4564150000000  0.4268490000000  0.4530020000000 1.0
C      1  0.5820730000000  0.5085280000000  0.4284870000000 1.0
C      1  0.5147760000000  0.5327740000000  0.5834970000000 1.0
C      1  0.5848780000000  0.4453850000000  0.4685430000000 1.0
C      1  0.5297090000000  0.4998800000000  0.4568750000000 1.0
C      1  0.4924800000000  0.4913800000000  0.6108090000000 1.0
C      1  0.5895570000000  0.4947080000000  0.4717750000000 1.0
C      1  0.5680790000000  0.5427370000000  0.4627040000000 1.0
C      1  0.4586430000000  0.5782440000000  0.5131850000000 1.0
C      1  0.5625210000000  0.5860090000000  0.4841770000000 1.0
C      1  0.4346550000000  0.4931080000000  0.3877230000000 1.0
C      1  0.5828590000000  0.5187900000000  0.4560160000000 1.0
C      1  0.5410670000000  0.5049040000000  0.4108570000000 1.0
C      1  0.4504100000000  0.4896100000000  0.4943470000000 1.0
C      1  0.4135450000000  0.4380720000000  0.4669530000000 1.0
C      1  0.5531460000000  0.4537400000000  0.5806940000000 1.0
C      1  0.5333360000000  0.5337530000000  0.5271830000000 1.0
C      1  0.5072370000000  0.5583110000000  0.5692230000000 1.0
C      1  0.4995840000000  0.4076940000000  0.4526730000000 1.0
C      1  0.4155440000000  0.5255070000000  0.5220860000000 1.0
C      1  0.5743590000000  0.4786810000000  0.4294460000000 1.0
C      1  0.4223780000000  0.4453540000000  0.5298360000000 1.0
C      1  0.4221290000000  0.5181070000000  0.5499690000000 1.0
C      1  0.4702100000000  0.6129240000000  0.4738680000000 1.0
C      1  0.4919250000000  0.5829600000000  0.4155150000000 1.0
C      1  0.4611570000000  0.5261310000000  0.5239080000000 1.0
C      1  0.4823560000000  0.5425670000000  0.5330220000000 1.0
C      1  0.5847730000000  0.5328900000000  0.5606660000000 1.0
C      1  0.4801100000000  0.5556370000000  0.5582460000000 1.0
C      1  0.4688930000000  0.5065330000000  0.5049490000000 1.0
C      1  0.5936710000000  0.4721330000000  0.5183000000000 1.0
C      1  0.4581850000000  0.5209950000000  0.4386670000000 1.0
C      1  0.5411440000000  0.5125740000000  0.4841000000000 1.0
C      1  0.4592940000000  0.4912860000000  0.4349240000000 1.0
C      1  0.5716320000000  0.5539220000000  0.5502340000000 1.0
C      1  0.5061690000000  0.5334200000000  0.5181410000000 1.0
C      1  0.5059260000000  0.5856470000000  0.5246080000000 1.0
C      1  0.4270730000000  0.4902630000000  0.5614190000000 1.0
C      1  0.4983950000000  0.4646950000000  0.4138360000000 1.0
C      1  0.4937210000000  0.5201610000000  0.6021680000000 1.0
C      1  0.5018590000000  0.3950460000000  0.5034040000000 1.0
C      1  0.5441200000000  0.5969450000000  0.4625020000000 1.0
C      1  0.5282510000000  0.4569310000000  0.5950770000000 1.0
C      1  0.5385940000000  0.5097560000000  0.5416420000000 1.0
C      1  0.5695070000000  0.4299890000000  0.5146460000000 1.0
C      1  0.4919630000000  0.5978100000000  0.4646860000000 1.0
C      1  0.5179470000000  0.4767940000000  0.6138530000000 1.0
C      1  0.4110560000000  0.4210930000000  0.4893940000000 1.0
C      1  0.4994780000000  0.4937550000000  0.5607130000000 1.0
C      1  0.3626630000000  0.5026400000000  0.4546700000000 1.0
C      1  0.5261760000000  0.4360210000000  0.5307030000000 1.0
C      1  0.4588570000000  0.4013890000000  0.5411000000000 1.0
C      1  0.5649700000000  0.5205940000000  0.4087170000000 1.0
C      1  0.5808340000000  0.5660860000000  0.4742850000000 1.0
C      1  0.4601340000000  0.5624760000000  0.4895720000000 1.0
C      1  0.4201710000000  0.4676220000000  0.5449180000000 1.0
C      1  0.5422100000000  0.4861130000000  0.4983490000000 1.0
C      1  0.4743270000000  0.4092670000000  0.4658440000000 1.0
C      1  0.5965680000000  0.4900570000000  0.4985430000000 1.0
C      1  0.4326810000000  0.5593010000000  0.4509500000000 1.0
C      1  0.5182360000000  0.5802090000000  0.4217600000000 1.0
C      1  0.4742320000000  0.6193620000000  0.5014820000000 1.0
C      1  0.5237890000000  0.5116900000000  0.4323440000000 1.0
C      1  0.3695420000000  0.5563150000000  0.4079730000000 1.0
C      1  0.5713460000000  0.3992470000000  0.4776130000000 1.0
C      1  0.4446560000000  0.5844370000000  0.4416390000000 1.0
C      1  0.4636750000000  0.4874760000000  0.3876330000000 1.0
C      1  0.4538330000000  0.4087570000000  0.5140520000000 1.0
C      1  0.4295460000000  0.4249560000000  0.5108770000000 1.0
C      1  0.4685150000000  0.4564120000000  0.5321750000000 1.0
C      1  0.5055860000000  0.4673580000000  0.5565580000000 1.0
C      1  0.6583610000000  0.4527520000000  0.6106060000000 1.0
C      1  0.5182180000000  0.6090620000000  0.4659730000000 1.0
C      1  0.4114580000000  0.5091160000000  0.4763460000000 1.0
C      1  0.4347760000000  0.5369530000000  0.4330330000000 1.0
C      1  0.5327580000000  0.4713300000000  0.4732810000000 1.0
C      1  0.5474870000000  0.5603380000000  0.5346580000000 1.0
C      1  0.4190460000000  0.5314520000000  0.4933290000000 1.0
C      1  0.3862340000000  0.5068100000000  0.4649660000000 1.0
C      1  0.6369300000000  0.4617610000000  0.5978890000000 1.0
C      1  0.4426320000000  0.4831340000000  0.5864240000000 1.0
C      1  0.5236860000000  0.4626300000000  0.5363160000000 1.0
C      1  0.3918740000000  0.4016860000000  0.4905580000000 1.0
C      1  0.5489860000000  0.5768580000000  0.5083310000000 1.0
C      1  0.4491380000000  0.3794640000000  0.5826720000000 1.0
C      1  0.6155450000000  0.4707090000000  0.5850780000000 1.0
C      1  0.5220250000000  0.5108860000000  0.5650730000000 1.0
C      1  0.5207800000000  0.5751760000000  0.5012660000000 1.0
C      1  0.4802730000000  0.5967490000000  0.5185360000000 1.0
C      1  0.4925280000000  0.4527540000000  0.4861590000000 1.0
C      1  0.4464670000000  0.6069710000000  0.4594320000000 1.0
C      1  0.5155760000000  0.4503530000000  0.4706550000000 1.0
C      1  0.4354520000000  0.5521230000000  0.4792740000000 1.0
C      1  0.5485750000000  0.4763060000000  0.4143870000000 1.0
C      1  0.4783580000000  0.4480510000000  0.5903320000000 1.0
C      1  0.4317710000000  0.4895210000000  0.4737470000000 1.0
C      1  0.5837930000000  0.4704550000000  0.4557940000000 1.0
C      1  0.4693910000000  0.5230490000000  0.5861620000000 1.0
C      1  0.4654280000000  0.5836790000000  0.4215100000000 1.0
C      1  0.7009350000000  0.4348940000000  0.6357630000000 1.0
C      1  0.5382020000000  0.5761760000000  0.4417010000000 1.0
C      1  0.4743270000000  0.4797080000000  0.4128320000000 1.0
C      1  0.4741820000000  0.5037210000000  0.5651700000000 1.0
C      1  0.4785350000000  0.4538770000000  0.5084060000000 1.0
C      1  0.4580260000000  0.5461540000000  0.5746360000000 1.0
C      1  0.6798200000000  0.4437480000000  0.6232960000000 1.0
C      1  0.4367070000000  0.4468540000000  0.4531060000000 1.0
C      1  0.5379470000000  0.4850220000000  0.5260020000000 1.0
C      1  0.5741580000000  0.4594430000000  0.5613240000000 1.0
C      1  0.5219090000000  0.5744010000000  0.5488330000000 1.0
C      1  0.5306100000000  0.3972260000000  0.5038420000000 1.0
C      1  0.5034690000000  0.5301140000000  0.4308550000000 1.0
C      1  0.5181610000000  0.4272320000000  0.4549090000000 1.0
C      1  0.5392200000000  0.5518750000000  0.4587340000000 1.0
C      1  0.4683910000000  0.4741890000000  0.5998820000000 1.0
C      1  0.4317270000000  0.5406190000000  0.5655260000000 1.0
C      1  0.4811180000000  0.5370810000000  0.4456660000000 1.0
C      1  0.4750840000000  0.4028310000000  0.4943630000000 1.0
C      1  0.4120000000000  0.5912230000000  0.5364570000000 1.0
C      1  0.4871390000000  0.5623180000000  0.4685160000000 1.0
C      1  0.5433410000000  0.4182940000000  0.5189500000000 1.0
C      1  0.4412180000000  0.4752450000000  0.4509900000000 1.0
C      1  0.5930000000000  0.4795360000000  0.5710390000000 1.0
C      1  0.5893310000000  0.5072170000000  0.5667660000000 1.0
C      1  0.5485060000000  0.3861650000000  0.4847560000000 1.0
C      1  0.5252040000000  0.4603450000000  0.4125840000000 1.0
C      1  0.4190560000000  0.5350040000000  0.4093690000000 1.0
C      1  0.5158090000000  0.5572830000000  0.4785110000000 1.0
C      1  0.4737500000000  0.5109380000000  0.3733360000000 1.0
C      1  0.4961910000000  0.5126820000000  0.5003700000000 1.0
C      1  0.4635510000000  0.4252320000000  0.5838140000000 1.0
C      1  0.4302600000000  0.5221290000000  0.3869320000000 1.0
C      1  0.5791630000000  0.4517390000000  0.5325770000000 1.0
C      1  0.4544750000000  0.5311110000000  0.3731810000000 1.0
C      1  0.5046040000000  0.4505400000000  0.5792320000000 1.0
C      1  0.4571640000000  0.4019490000000  0.5692460000000 1.0
C      1  0.3932780000000  0.5455640000000  0.4083270000000 1.0
C      1  0.4345190000000  0.5823520000000  0.5267670000000 1.0
C      1  0.5790280000000  0.4250740000000  0.4873410000000 1.0
END
