TITL C-599892-9790-955 7.03581948250378e-05 125000 -279.956596631155 0 0 49 (C1) n - 1
REM
REM in /home/nfs/bkarasulu/CARBON/AIRSS/Generating-Clusters/TERSOFF/Only-C1/FIRE-HFTN
REM
REM
REM
REM
REM
REM ./C.cell (11c1c37f851c82e70ff6c80c92926a4b)
REM AIRSS Version 0.9.1 bugfix July 2018 build 013d7b7c2542+ Fri, 06 Jul 2018 19:26:36 +0100
REM compiler GCC version 9.2.1 20190827 (Red Hat 9.2.1-1)
REM options -cpp -mtune=generic -march=x86-64 -g -O0 -fpre-include=/usr/include/finclude/math-vector-fortran.h
REM seed -996892422 579271921 210968249 -70547320 -266747108 2096616231 946027042 -1640432355 1084800679 810950194 1254804733 -1562167101 -1726640083 280612588 27929661 -819655236 -343208386 -1694538327 -1733171018 1456385069 153197834 -516183787 -857231976 1996699860 216976411 -1569998130 -1503162178 1384364193 -355036781 325395850 1473005669 -745264323 1145284204
REM
CELL 1.54180   50.00000   50.00000   50.00000   90.00000   90.00000   90.00000
LATT -1
SFAC C  
C      1  0.4762930000000  0.5537310000000  0.4479150000000 1.0
C      1  0.5040460000000  0.4367320000000  0.4826130000000 1.0
C      1  0.5687280000000  0.4880010000000  0.5060480000000 1.0
C      1  0.5871700000000  0.4592060000000  0.4709470000000 1.0
C      1  0.5326870000000  0.5286810000000  0.4880600000000 1.0
C      1  0.5897440000000  0.4717400000000  0.4955050000000 1.0
C      1  0.4589410000000  0.4637400000000  0.4703610000000 1.0
C      1  0.5477310000000  0.4864340000000  0.4859860000000 1.0
C      1  0.4862280000000  0.5573860000000  0.5428890000000 1.0
C      1  0.4656210000000  0.5153390000000  0.5681510000000 1.0
C      1  0.5262480000000  0.5309060000000  0.4589520000000 1.0
C      1  0.4991850000000  0.4935060000000  0.4881920000000 1.0
C      1  0.4830750000000  0.5142520000000  0.4853230000000 1.0
C      1  0.4907650000000  0.5347470000000  0.5259630000000 1.0
C      1  0.5640180000000  0.4602520000000  0.4534750000000 1.0
C      1  0.4389330000000  0.5301690000000  0.4920470000000 1.0
C      1  0.4822040000000  0.5384240000000  0.4995680000000 1.0
C      1  0.5303760000000  0.5041710000000  0.4449020000000 1.0
C      1  0.5577980000000  0.5083230000000  0.5258970000000 1.0
C      1  0.5135100000000  0.4390820000000  0.5091930000000 1.0
C      1  0.4795220000000  0.4909790000000  0.4374480000000 1.0
C      1  0.4775580000000  0.4451330000000  0.4766230000000 1.0
C      1  0.5044540000000  0.5473740000000  0.4488790000000 1.0
C      1  0.5047530000000  0.5758490000000  0.5500670000000 1.0
C      1  0.4553840000000  0.5338570000000  0.4434970000000 1.0
C      1  0.5231390000000  0.4311480000000  0.4624850000000 1.0
C      1  0.4487060000000  0.4755860000000  0.5262970000000 1.0
C      1  0.5060910000000  0.4942060000000  0.4331130000000 1.0
C      1  0.5250620000000  0.5004490000000  0.4929790000000 1.0
C      1  0.4876460000000  0.5062700000000  0.5314910000000 1.0
C      1  0.4578160000000  0.4887100000000  0.4568730000000 1.0
C      1  0.5498790000000  0.5329700000000  0.5111650000000 1.0
C      1  0.4587990000000  0.5572410000000  0.5506470000000 1.0
C      1  0.4448790000000  0.5150110000000  0.4644600000000 1.0
C      1  0.4473830000000  0.5303890000000  0.5489850000000 1.0
C      1  0.5495500000000  0.4850990000000  0.4571310000000 1.0
C      1  0.4891480000000  0.4587050000000  0.5455760000000 1.0
C      1  0.4750460000000  0.4807050000000  0.5342580000000 1.0
C      1  0.5142580000000  0.4529610000000  0.5335950000000 1.0
C      1  0.4247460000000  0.4659660000000  0.5225940000000 1.0
C      1  0.5354590000000  0.4688370000000  0.5431750000000 1.0
C      1  0.4795060000000  0.4442940000000  0.5666470000000 1.0
C      1  0.4649480000000  0.5694680000000  0.4694270000000 1.0
C      1  0.4931010000000  0.5121850000000  0.5739540000000 1.0
C      1  0.5194330000000  0.5090400000000  0.5649530000000 1.0
C      1  0.5466550000000  0.4379700000000  0.4511730000000 1.0
C      1  0.4352820000000  0.5245410000000  0.5218890000000 1.0
C      1  0.4589050000000  0.5531620000000  0.4917620000000 1.0
C      1  0.5395930000000  0.4970740000000  0.5468740000000 1.0
END
