TITL C-599896-8500-1416 5.29727697347164 125000 -913.902486663425 0 0 148 (C1) n - 1
REM
REM in /home/nfs/bkarasulu/CARBON/AIRSS/Generating-Clusters/TERSOFF/Only-C1/FIRE-HFTN
REM
REM
REM
REM
REM
REM ./C.cell (11c1c37f851c82e70ff6c80c92926a4b)
REM AIRSS Version 0.9.1 bugfix July 2018 build 013d7b7c2542+ Fri, 06 Jul 2018 19:26:36 +0100
REM compiler GCC version 9.2.1 20190827 (Red Hat 9.2.1-1)
REM options -cpp -mtune=generic -march=x86-64 -g -O0 -fpre-include=/usr/include/finclude/math-vector-fortran.h
REM seed 1302422201 597280638 1864356344 -49506986 726166781 908975653 -362283797 439856737 1300446900 1378946622 -1121386648 -275936435 -1496510390 603396948 -223168287 2122304483 -56036344 600775304 1419274698 859350436 248112052 -1979147397 144305417 -2050183101 -1583246312 500596424 1232692891 1483903043 -1957913712 -1203381895 92335196 1660417578 -522298671
REM
CELL 1.54180   50.00000   50.00000   50.00000   90.00000   90.00000   90.00000
LATT -1
SFAC C  
C      1  0.4855830000000  0.4282200000000  0.5825640000000 1.0
C      1  0.4257320000000  0.5463210000000  0.5986980000000 1.0
C      1  0.6208780000000  0.5245450000000  0.4342580000000 1.0
C      1  0.4094470000000  0.5239720000000  0.4904420000000 1.0
C      1  0.5397560000000  0.5586740000000  0.4564410000000 1.0
C      1  0.5414460000000  0.4685740000000  0.4910390000000 1.0
C      1  0.4497220000000  0.5094830000000  0.5229720000000 1.0
C      1  0.3953710000000  0.5209050000000  0.5574990000000 1.0
C      1  0.4947450000000  0.5674750000000  0.4948470000000 1.0
C      1  0.5316250000000  0.3917520000000  0.4710070000000 1.0
C      1  0.4962080000000  0.4851640000000  0.6091630000000 1.0
C      1  0.4882750000000  0.5189060000000  0.6059600000000 1.0
C      1  0.4010990000000  0.5670710000000  0.5059950000000 1.0
C      1  0.4134550000000  0.4035210000000  0.4485090000000 1.0
C      1  0.6194090000000  0.5259590000000  0.4636290000000 1.0
C      1  0.5082410000000  0.4751690000000  0.5270860000000 1.0
C      1  0.5453380000000  0.6114170000000  0.3745200000000 1.0
C      1  0.4991970000000  0.4630260000000  0.5515830000000 1.0
C      1  0.4584060000000  0.4162730000000  0.5441100000000 1.0
C      1  0.5013660000000  0.5551280000000  0.5753820000000 1.0
C      1  0.5416580000000  0.3835310000000  0.5188090000000 1.0
C      1  0.4897130000000  0.5070780000000  0.4528480000000 1.0
C      1  0.5089290000000  0.4640860000000  0.4547310000000 1.0
C      1  0.4346980000000  0.5897600000000  0.4729930000000 1.0
C      1  0.4881940000000  0.4379600000000  0.6092350000000 1.0
C      1  0.5824320000000  0.4866340000000  0.4312710000000 1.0
C      1  0.5292230000000  0.5309470000000  0.4582840000000 1.0
C      1  0.5090530000000  0.5916720000000  0.5435960000000 1.0
C      1  0.5564330000000  0.5818880000000  0.4165580000000 1.0
C      1  0.4698600000000  0.4860670000000  0.5837690000000 1.0
C      1  0.5643300000000  0.5517690000000  0.5650470000000 1.0
C      1  0.4512160000000  0.4378110000000  0.5277340000000 1.0
C      1  0.4462230000000  0.5576050000000  0.4350670000000 1.0
C      1  0.3957210000000  0.5649550000000  0.4575050000000 1.0
C      1  0.5504530000000  0.5008350000000  0.5476660000000 1.0
C      1  0.4594720000000  0.4213870000000  0.5720940000000 1.0
C      1  0.5803250000000  0.4523930000000  0.5161570000000 1.0
C      1  0.5461880000000  0.5733350000000  0.5706350000000 1.0
C      1  0.3850790000000  0.5422560000000  0.5734120000000 1.0
C      1  0.3898240000000  0.5175870000000  0.5300490000000 1.0
C      1  0.4321530000000  0.5087930000000  0.4234240000000 1.0
C      1  0.5049870000000  0.4600420000000  0.6161510000000 1.0
C      1  0.5763850000000  0.5115920000000  0.4171060000000 1.0
C      1  0.5281060000000  0.5078520000000  0.5649320000000 1.0
C      1  0.5450070000000  0.5061500000000  0.4584560000000 1.0
C      1  0.4220900000000  0.4280000000000  0.4571990000000 1.0
C      1  0.3947030000000  0.4998490000000  0.4863360000000 1.0
C      1  0.5462900000000  0.5408720000000  0.5161330000000 1.0
C      1  0.5894130000000  0.4549330000000  0.5667340000000 1.0
C      1  0.4008090000000  0.5480110000000  0.4365960000000 1.0
C      1  0.5949170000000  0.5323260000000  0.4230400000000 1.0
C      1  0.5767830000000  0.4406040000000  0.5437950000000 1.0
C      1  0.5128030000000  0.4358370000000  0.4531770000000 1.0
C      1  0.4632640000000  0.5134350000000  0.5902370000000 1.0
C      1  0.4535640000000  0.4833940000000  0.5177570000000 1.0
C      1  0.4416960000000  0.4398420000000  0.3879920000000 1.0
C      1  0.3986910000000  0.5394090000000  0.5119960000000 1.0
C      1  0.5509790000000  0.5969540000000  0.3954630000000 1.0
C      1  0.3984050000000  0.4453380000000  0.4999800000000 1.0
C      1  0.4196940000000  0.5106140000000  0.5683380000000 1.0
C      1  0.5873940000000  0.4836690000000  0.5708320000000 1.0
C      1  0.4453590000000  0.4408580000000  0.4997220000000 1.0
C      1  0.5071910000000  0.4385860000000  0.5647390000000 1.0
C      1  0.5617840000000  0.4670440000000  0.4248620000000 1.0
C      1  0.4399340000000  0.4548390000000  0.4116740000000 1.0
C      1  0.6119810000000  0.5230990000000  0.5208270000000 1.0
C      1  0.5816130000000  0.5069670000000  0.5876930000000 1.0
C      1  0.4546460000000  0.4648240000000  0.5396420000000 1.0
C      1  0.5342220000000  0.5227600000000  0.5888210000000 1.0
C      1  0.3958550000000  0.4925240000000  0.4592860000000 1.0
C      1  0.5700560000000  0.5483160000000  0.5368380000000 1.0
C      1  0.4665100000000  0.5449130000000  0.4498470000000 1.0
C      1  0.5486540000000  0.5094610000000  0.4071310000000 1.0
C      1  0.5627850000000  0.5295550000000  0.5848900000000 1.0
C      1  0.5098290000000  0.4782850000000  0.4056000000000 1.0
C      1  0.4377090000000  0.5236150000000  0.5864180000000 1.0
C      1  0.5235730000000  0.3893080000000  0.4981490000000 1.0
C      1  0.5340320000000  0.4186980000000  0.4624130000000 1.0
C      1  0.4536220000000  0.4847580000000  0.4091740000000 1.0
C      1  0.5640460000000  0.4474770000000  0.4911160000000 1.0
C      1  0.5056450000000  0.5208030000000  0.4713840000000 1.0
C      1  0.5049600000000  0.5225420000000  0.4993150000000 1.0
C      1  0.4891890000000  0.5407090000000  0.5528920000000 1.0
C      1  0.4852620000000  0.4798020000000  0.4563970000000 1.0
C      1  0.6106460000000  0.5008140000000  0.4761350000000 1.0
C      1  0.5279670000000  0.5998380000000  0.5233980000000 1.0
C      1  0.4565970000000  0.5983490000000  0.4898770000000 1.0
C      1  0.5325150000000  0.4536920000000  0.6153640000000 1.0
C      1  0.4822390000000  0.5863500000000  0.5328800000000 1.0
C      1  0.4556750000000  0.4677210000000  0.4942280000000 1.0
C      1  0.4814540000000  0.5922370000000  0.5034010000000 1.0
C      1  0.4594790000000  0.4457400000000  0.3683440000000 1.0
C      1  0.5021530000000  0.5332370000000  0.4137600000000 1.0
C      1  0.5658550000000  0.4435880000000  0.4399910000000 1.0
C      1  0.4834890000000  0.5278330000000  0.4343710000000 1.0
C      1  0.4778630000000  0.4655730000000  0.3712970000000 1.0
C      1  0.5030460000000  0.4073230000000  0.5050290000000 1.0
C      1  0.5592730000000  0.4327640000000  0.4656020000000 1.0
C      1  0.5273490000000  0.5282790000000  0.4048950000000 1.0
C      1  0.4817260000000  0.4799220000000  0.3962580000000 1.0
C      1  0.5980530000000  0.4846790000000  0.4555060000000 1.0
C      1  0.4004040000000  0.5544250000000  0.5924780000000 1.0
C      1  0.5041290000000  0.5165330000000  0.5489170000000 1.0
C      1  0.5179570000000  0.4584080000000  0.5067270000000 1.0
C      1  0.3884160000000  0.4916190000000  0.5142400000000 1.0
C      1  0.4410520000000  0.5838150000000  0.4452710000000 1.0
C      1  0.6068170000000  0.4987200000000  0.5056210000000 1.0
C      1  0.5172690000000  0.5498090000000  0.5051470000000 1.0
C      1  0.4604010000000  0.4736960000000  0.4677430000000 1.0
C      1  0.4210670000000  0.4349990000000  0.4857300000000 1.0
C      1  0.5883830000000  0.5517650000000  0.4921150000000 1.0
C      1  0.4260350000000  0.5381820000000  0.4262240000000 1.0
C      1  0.6017980000000  0.5497740000000  0.4674420000000 1.0
C      1  0.5863880000000  0.5530380000000  0.4421120000000 1.0
C      1  0.4341370000000  0.4320720000000  0.5807050000000 1.0
C      1  0.5106440000000  0.5048460000000  0.5218790000000 1.0
C      1  0.5444010000000  0.4402940000000  0.5951820000000 1.0
C      1  0.5953460000000  0.5464550000000  0.5201710000000 1.0
C      1  0.5533830000000  0.4940050000000  0.5007890000000 1.0
C      1  0.3931650000000  0.4640180000000  0.5214770000000 1.0
C      1  0.4729920000000  0.4716730000000  0.5600790000000 1.0
C      1  0.5769330000000  0.4914390000000  0.5452070000000 1.0
C      1  0.5624330000000  0.5115840000000  0.4805080000000 1.0
C      1  0.5522820000000  0.3982690000000  0.5384600000000 1.0
C      1  0.5633990000000  0.5381490000000  0.4907040000000 1.0
C      1  0.4128190000000  0.4440890000000  0.5686390000000 1.0
C      1  0.4374420000000  0.4722010000000  0.4522220000000 1.0
C      1  0.4719640000000  0.5495360000000  0.5024590000000 1.0
C      1  0.5609240000000  0.5645270000000  0.4379290000000 1.0
C      1  0.4735240000000  0.5559340000000  0.5332240000000 1.0
C      1  0.5093200000000  0.5361310000000  0.5964550000000 1.0
C      1  0.5899690000000  0.4802330000000  0.5207770000000 1.0
C      1  0.5360570000000  0.5802860000000  0.4752340000000 1.0
C      1  0.5363400000000  0.5950760000000  0.4979900000000 1.0
C      1  0.5047250000000  0.4339530000000  0.5043770000000 1.0
C      1  0.4199660000000  0.4927340000000  0.4443340000000 1.0
C      1  0.4089940000000  0.5774990000000  0.4802700000000 1.0
C      1  0.5182190000000  0.5768730000000  0.5665610000000 1.0
C      1  0.5545620000000  0.4235360000000  0.5503580000000 1.0
C      1  0.5409630000000  0.5095370000000  0.5219150000000 1.0
C      1  0.3990800000000  0.4552450000000  0.5481030000000 1.0
C      1  0.5387360000000  0.4811190000000  0.4105190000000 1.0
C      1  0.5324940000000  0.4788650000000  0.4631540000000 1.0
C      1  0.5363720000000  0.3703950000000  0.4548010000000 1.0
C      1  0.5351520000000  0.4327820000000  0.5693750000000 1.0
C      1  0.4349380000000  0.5276120000000  0.4813180000000 1.0
C      1  0.4593860000000  0.5402860000000  0.4782230000000 1.0
C      1  0.4325250000000  0.4476580000000  0.4388290000000 1.0
END
