TITL C-599891-72-1330 9.06826374800382e-05 125000 -977.937876380482 0 0 158 (C1) n - 1
REM
REM in /home/nfs/bkarasulu/CARBON/AIRSS/Generating-Clusters/TERSOFF/Only-C1/FIRE-HFTN
REM
REM
REM
REM
REM
REM ./C.cell (11c1c37f851c82e70ff6c80c92926a4b)
REM AIRSS Version 0.9.1 bugfix July 2018 build 013d7b7c2542+ Fri, 06 Jul 2018 19:26:36 +0100
REM compiler GCC version 9.2.1 20190827 (Red Hat 9.2.1-1)
REM options -cpp -mtune=generic -march=x86-64 -g -O0 -fpre-include=/usr/include/finclude/math-vector-fortran.h
REM seed 1039982460 -1642636287 -1250571869 -2137073306 881599209 -2066351051 -388398946 839206150 2025149286 -1979267731 2050112412 -666355658 -1721675020 -1038260173 69937737 660517922 -1406000551 -1811201182 1209229653 -560125522 -1402540 -642249591 1946171393 -1304107397 1957804291 -1615096400 973557992 255419595 -539164291 -626096547 1027724201 1430029070 1654987508
REM
CELL 1.54180   50.00000   50.00000   50.00000   90.00000   90.00000   90.00000
LATT -1
SFAC C  
C      1  0.5805380000000  0.4278690000000  0.4433780000000 1.0
C      1  0.5273860000000  0.6200480000000  0.5000830000000 1.0
C      1  0.6091820000000  0.5307560000000  0.4917320000000 1.0
C      1  0.4279070000000  0.4841650000000  0.5464430000000 1.0
C      1  0.5547940000000  0.4913510000000  0.4648400000000 1.0
C      1  0.4126510000000  0.5814000000000  0.4861990000000 1.0
C      1  0.5247990000000  0.6365820000000  0.4772110000000 1.0
C      1  0.4232730000000  0.4209940000000  0.5358230000000 1.0
C      1  0.5502540000000  0.4495080000000  0.5445070000000 1.0
C      1  0.5624230000000  0.5076810000000  0.4861670000000 1.0
C      1  0.4772050000000  0.4260490000000  0.5253300000000 1.0
C      1  0.5532540000000  0.3929390000000  0.5519990000000 1.0
C      1  0.4491060000000  0.3849020000000  0.5548000000000 1.0
C      1  0.5318000000000  0.6629730000000  0.4780230000000 1.0
C      1  0.4953090000000  0.3974670000000  0.5613840000000 1.0
C      1  0.5206630000000  0.4910800000000  0.5957460000000 1.0
C      1  0.4538600000000  0.5377480000000  0.6087130000000 1.0
C      1  0.4930250000000  0.4065500000000  0.5346900000000 1.0
C      1  0.4746360000000  0.5812100000000  0.4473340000000 1.0
C      1  0.5150170000000  0.6248310000000  0.4536580000000 1.0
C      1  0.5099980000000  0.5551010000000  0.3863230000000 1.0
C      1  0.5024810000000  0.5294540000000  0.5461800000000 1.0
C      1  0.4809900000000  0.5462290000000  0.6129050000000 1.0
C      1  0.5491910000000  0.5241230000000  0.3771960000000 1.0
C      1  0.4384000000000  0.4696340000000  0.4471810000000 1.0
C      1  0.4529140000000  0.4707950000000  0.4707130000000 1.0
C      1  0.4967960000000  0.5784520000000  0.5496780000000 1.0
C      1  0.4471720000000  0.3747230000000  0.5028140000000 1.0
C      1  0.4591560000000  0.5135080000000  0.4147540000000 1.0
C      1  0.5680800000000  0.4319800000000  0.5312520000000 1.0
C      1  0.5623210000000  0.5133770000000  0.5750250000000 1.0
C      1  0.5356000000000  0.5154800000000  0.5892350000000 1.0
C      1  0.4463960000000  0.5770300000000  0.4426410000000 1.0
C      1  0.5366140000000  0.4330560000000  0.4235920000000 1.0
C      1  0.6138040000000  0.4945290000000  0.4491740000000 1.0
C      1  0.4641680000000  0.5243000000000  0.4622640000000 1.0
C      1  0.5688140000000  0.5389320000000  0.5614790000000 1.0
C      1  0.3828530000000  0.5155710000000  0.4925100000000 1.0
C      1  0.4939930000000  0.5530420000000  0.4881740000000 1.0
C      1  0.5237810000000  0.5348520000000  0.4453600000000 1.0
C      1  0.5036150000000  0.5556170000000  0.5350230000000 1.0
C      1  0.3984150000000  0.4941130000000  0.4542590000000 1.0
C      1  0.5059450000000  0.5150480000000  0.4352240000000 1.0
C      1  0.4832760000000  0.5705230000000  0.5728890000000 1.0
C      1  0.3852100000000  0.4648080000000  0.4897890000000 1.0
C      1  0.5384640000000  0.5453880000000  0.5062530000000 1.0
C      1  0.5514610000000  0.5748450000000  0.4613110000000 1.0
C      1  0.5262750000000  0.5447990000000  0.5866870000000 1.0
C      1  0.5921150000000  0.4199100000000  0.4679670000000 1.0
C      1  0.5444150000000  0.5904670000000  0.4386620000000 1.0
C      1  0.4401530000000  0.5473230000000  0.5845190000000 1.0
C      1  0.5655570000000  0.4956320000000  0.4392110000000 1.0
C      1  0.5479980000000  0.5582720000000  0.5697540000000 1.0
C      1  0.4889310000000  0.5030550000000  0.4963710000000 1.0
C      1  0.5497780000000  0.4556560000000  0.5919200000000 1.0
C      1  0.5532970000000  0.5962690000000  0.5331030000000 1.0
C      1  0.4453420000000  0.3724140000000  0.5295560000000 1.0
C      1  0.4644160000000  0.4979630000000  0.5104840000000 1.0
C      1  0.5280090000000  0.4647430000000  0.5335810000000 1.0
C      1  0.4477910000000  0.3886620000000  0.4798170000000 1.0
C      1  0.4384350000000  0.4117700000000  0.5580240000000 1.0
C      1  0.3958390000000  0.5607930000000  0.5321970000000 1.0
C      1  0.5621450000000  0.4629890000000  0.5677660000000 1.0
C      1  0.4497240000000  0.4793000000000  0.4958430000000 1.0
C      1  0.5708010000000  0.4897940000000  0.5609330000000 1.0
C      1  0.5139110000000  0.4123260000000  0.5776560000000 1.0
C      1  0.5443790000000  0.5468090000000  0.4606700000000 1.0
C      1  0.4586500000000  0.4203640000000  0.4429330000000 1.0
C      1  0.5627510000000  0.5853470000000  0.4862540000000 1.0
C      1  0.4444230000000  0.5368360000000  0.4086030000000 1.0
C      1  0.4459000000000  0.5389380000000  0.5232500000000 1.0
C      1  0.5017210000000  0.4646100000000  0.5226650000000 1.0
C      1  0.4197810000000  0.5303110000000  0.5706910000000 1.0
C      1  0.5069820000000  0.6197080000000  0.5194970000000 1.0
C      1  0.4109900000000  0.4686440000000  0.4514570000000 1.0
C      1  0.5996970000000  0.3736870000000  0.4795710000000 1.0
C      1  0.5233850000000  0.5130560000000  0.5394170000000 1.0
C      1  0.5493770000000  0.5830060000000  0.5561790000000 1.0
C      1  0.4108860000000  0.5782490000000  0.5145570000000 1.0
C      1  0.4207490000000  0.4285610000000  0.4809200000000 1.0
C      1  0.4290310000000  0.5293480000000  0.5014830000000 1.0
C      1  0.5859290000000  0.5428290000000  0.5378280000000 1.0
C      1  0.5098120000000  0.4276260000000  0.4303110000000 1.0
C      1  0.4029540000000  0.4494320000000  0.4719650000000 1.0
C      1  0.5952740000000  0.5482750000000  0.5102750000000 1.0
C      1  0.4743700000000  0.4986530000000  0.5742560000000 1.0
C      1  0.5400960000000  0.4022340000000  0.5738790000000 1.0
C      1  0.4349900000000  0.5860910000000  0.5279800000000 1.0
C      1  0.5810730000000  0.4543170000000  0.4300410000000 1.0
C      1  0.5383170000000  0.3828680000000  0.4910900000000 1.0
C      1  0.5139740000000  0.4650690000000  0.4762190000000 1.0
C      1  0.5473790000000  0.4879660000000  0.4154190000000 1.0
C      1  0.5565510000000  0.4148670000000  0.4342620000000 1.0
C      1  0.4487250000000  0.5100410000000  0.6125180000000 1.0
C      1  0.5489230000000  0.6020340000000  0.5053170000000 1.0
C      1  0.3793020000000  0.4904220000000  0.4774160000000 1.0
C      1  0.4789510000000  0.5158760000000  0.5524700000000 1.0
C      1  0.4055980000000  0.5134270000000  0.5105790000000 1.0
C      1  0.4607510000000  0.5162870000000  0.5312440000000 1.0
C      1  0.5942360000000  0.4400480000000  0.5255200000000 1.0
C      1  0.4194970000000  0.4234600000000  0.5092760000000 1.0
C      1  0.5016510000000  0.4779850000000  0.4971980000000 1.0
C      1  0.5177200000000  0.4979310000000  0.4151000000000 1.0
C      1  0.4270950000000  0.5825100000000  0.4632140000000 1.0
C      1  0.5037480000000  0.4382910000000  0.5883360000000 1.0
C      1  0.4839380000000  0.5742700000000  0.4731170000000 1.0
C      1  0.6123430000000  0.5153810000000  0.4693050000000 1.0
C      1  0.5387260000000  0.4690480000000  0.4679310000000 1.0
C      1  0.5617930000000  0.3947310000000  0.5008130000000 1.0
C      1  0.5213090000000  0.5303110000000  0.3790390000000 1.0
C      1  0.5525310000000  0.4571730000000  0.4167850000000 1.0
C      1  0.4010160000000  0.5439610000000  0.5533880000000 1.0
C      1  0.4872330000000  0.4189290000000  0.4423700000000 1.0
C      1  0.4558900000000  0.5633220000000  0.5668130000000 1.0
C      1  0.5086670000000  0.5064120000000  0.3889730000000 1.0
C      1  0.5172390000000  0.3709870000000  0.4814170000000 1.0
C      1  0.5595250000000  0.5030170000000  0.3912460000000 1.0
C      1  0.6387980000000  0.4870510000000  0.4404420000000 1.0
C      1  0.4957280000000  0.5865170000000  0.4282100000000 1.0
C      1  0.5662160000000  0.4939530000000  0.5323580000000 1.0
C      1  0.3916050000000  0.4676360000000  0.5172040000000 1.0
C      1  0.3884900000000  0.5351430000000  0.4711410000000 1.0
C      1  0.4479210000000  0.5633110000000  0.5388240000000 1.0
C      1  0.5782740000000  0.4962960000000  0.5072980000000 1.0
C      1  0.4737150000000  0.3807800000000  0.5686480000000 1.0
C      1  0.4359850000000  0.5258470000000  0.4717990000000 1.0
C      1  0.4515180000000  0.4664470000000  0.5411880000000 1.0
C      1  0.4992310000000  0.5724530000000  0.4038370000000 1.0
C      1  0.6061220000000  0.4532080000000  0.5038630000000 1.0
C      1  0.5620490000000  0.5947510000000  0.4182390000000 1.0
C      1  0.5379540000000  0.4915940000000  0.5311670000000 1.0
C      1  0.5180970000000  0.6016500000000  0.4382090000000 1.0
C      1  0.4989360000000  0.5554230000000  0.5926010000000 1.0
C      1  0.4492840000000  0.4354490000000  0.4202140000000 1.0
C      1  0.4107600000000  0.5211170000000  0.4568950000000 1.0
C      1  0.4078010000000  0.4890900000000  0.5266380000000 1.0
C      1  0.4748710000000  0.4391150000000  0.5876140000000 1.0
C      1  0.4276930000000  0.5015670000000  0.5697310000000 1.0
C      1  0.4476820000000  0.4637580000000  0.4212420000000 1.0
C      1  0.4519610000000  0.4286220000000  0.5771300000000 1.0
C      1  0.4847860000000  0.5269700000000  0.4821350000000 1.0
C      1  0.4416340000000  0.4131640000000  0.4661940000000 1.0
C      1  0.6010260000000  0.4805810000000  0.5026320000000 1.0
C      1  0.4397150000000  0.5606140000000  0.4204580000000 1.0
C      1  0.5510450000000  0.5332720000000  0.4848760000000 1.0
C      1  0.4762490000000  0.4536700000000  0.5310810000000 1.0
C      1  0.4426360000000  0.6120210000000  0.5307190000000 1.0
C      1  0.4495870000000  0.4959570000000  0.5879760000000 1.0
C      1  0.5851770000000  0.5717240000000  0.4974570000000 1.0
C      1  0.5615980000000  0.4047540000000  0.5276650000000 1.0
C      1  0.4766600000000  0.5168980000000  0.4371910000000 1.0
C      1  0.4541540000000  0.4867920000000  0.4064170000000 1.0
C      1  0.6096810000000  0.4377210000000  0.4808730000000 1.0
C      1  0.5909880000000  0.4812610000000  0.4377020000000 1.0
C      1  0.5127140000000  0.5556400000000  0.5089270000000 1.0
C      1  0.5215970000000  0.4613600000000  0.5948380000000 1.0
C      1  0.5843430000000  0.3963280000000  0.4827770000000 1.0
C      1  0.4979740000000  0.6041880000000  0.5392280000000 1.0
END
