TITL C-599895-9959-851 -0.00488425458318017 125000 -981.966105786331 0 0 160 (C1) n - 1
REM
REM in /home/nfs/bkarasulu/CARBON/AIRSS/Generating-Clusters/TERSOFF/Only-C1/FIRE-HFTN
REM
REM
REM
REM
REM
REM ./C.cell (11c1c37f851c82e70ff6c80c92926a4b)
REM AIRSS Version 0.9.1 bugfix July 2018 build 013d7b7c2542+ Fri, 06 Jul 2018 19:26:36 +0100
REM compiler GCC version 9.2.1 20190827 (Red Hat 9.2.1-1)
REM options -cpp -mtune=generic -march=x86-64 -g -O0 -fpre-include=/usr/include/finclude/math-vector-fortran.h
REM seed -2112998781 -1113788925 398787834 -1380602634 422481989 410421997 237939900 433027590 -2079470229 -1501677198 960332568 1327612883 787795962 -896177940 1665709941 -1093531816 -477912034 -1042358548 -1185690099 1962309178 -647514191 -814449044 -162077732 81241898 274680791 -1955187360 2142029383 87010521 -51016723 1602388072 1302836189 755607762 538601967
REM
CELL 1.54180   50.00000   50.00000   50.00000   90.00000   90.00000   90.00000
LATT -1
SFAC C  
C      1  0.5033830000000  0.4174070000000  0.5772580000000 1.0
C      1  0.5522510000000  0.5236260000000  0.6463280000000 1.0
C      1  0.5012380000000  0.4937170000000  0.4766230000000 1.0
C      1  0.3871490000000  0.4937300000000  0.4187390000000 1.0
C      1  0.4938960000000  0.5869690000000  0.4151660000000 1.0
C      1  0.4810390000000  0.5126780000000  0.5244240000000 1.0
C      1  0.5684570000000  0.4844960000000  0.4196350000000 1.0
C      1  0.5437890000000  0.5245870000000  0.6204120000000 1.0
C      1  0.4645460000000  0.5038010000000  0.5462780000000 1.0
C      1  0.4148190000000  0.5709310000000  0.4915570000000 1.0
C      1  0.4859170000000  0.6173350000000  0.5042040000000 1.0
C      1  0.4105080000000  0.4377090000000  0.4453220000000 1.0
C      1  0.3795700000000  0.4768180000000  0.4404710000000 1.0
C      1  0.4515740000000  0.5089440000000  0.4273250000000 1.0
C      1  0.6541430000000  0.4378140000000  0.6057250000000 1.0
C      1  0.4640960000000  0.4760600000000  0.5549920000000 1.0
C      1  0.5084740000000  0.6189610000000  0.5209000000000 1.0
C      1  0.4028420000000  0.5014190000000  0.5458160000000 1.0
C      1  0.5037120000000  0.6122230000000  0.4542940000000 1.0
C      1  0.4905770000000  0.4954320000000  0.5039240000000 1.0
C      1  0.6134210000000  0.4906360000000  0.5810070000000 1.0
C      1  0.4573680000000  0.5910680000000  0.3836920000000 1.0
C      1  0.5132780000000  0.4000450000000  0.4426400000000 1.0
C      1  0.4382200000000  0.6269960000000  0.5050540000000 1.0
C      1  0.5458630000000  0.3962280000000  0.4791390000000 1.0
C      1  0.4796500000000  0.4268210000000  0.5947170000000 1.0
C      1  0.4677090000000  0.4407500000000  0.4620400000000 1.0
C      1  0.5563490000000  0.5960480000000  0.4555270000000 1.0
C      1  0.5528280000000  0.5075760000000  0.4253240000000 1.0
C      1  0.5946380000000  0.4843850000000  0.4310440000000 1.0
C      1  0.4525230000000  0.4658670000000  0.3908670000000 1.0
C      1  0.4454660000000  0.4552400000000  0.4723280000000 1.0
C      1  0.5242300000000  0.5110500000000  0.4229400000000 1.0
C      1  0.3656880000000  0.4349610000000  0.4182610000000 1.0
C      1  0.4306330000000  0.5124770000000  0.4091720000000 1.0
C      1  0.4303330000000  0.5678370000000  0.5155240000000 1.0
C      1  0.3812010000000  0.5426680000000  0.4337670000000 1.0
C      1  0.4427980000000  0.4834670000000  0.4679020000000 1.0
C      1  0.4149240000000  0.6211060000000  0.4929610000000 1.0
C      1  0.6042980000000  0.5364140000000  0.5400930000000 1.0
C      1  0.4872980000000  0.4018280000000  0.4331300000000 1.0
C      1  0.4218580000000  0.3896870000000  0.3971420000000 1.0
C      1  0.5798290000000  0.4931830000000  0.4905550000000 1.0
C      1  0.4866760000000  0.5789160000000  0.5639500000000 1.0
C      1  0.5328620000000  0.5804950000000  0.5360610000000 1.0
C      1  0.4975010000000  0.5530600000000  0.4837880000000 1.0
C      1  0.4646880000000  0.4745750000000  0.6019100000000 1.0
C      1  0.5755290000000  0.4673310000000  0.5012270000000 1.0
C      1  0.5398320000000  0.4381950000000  0.4562820000000 1.0
C      1  0.5385960000000  0.5815340000000  0.4392360000000 1.0
C      1  0.5801110000000  0.5223150000000  0.4817600000000 1.0
C      1  0.5495060000000  0.5099510000000  0.5515010000000 1.0
C      1  0.4785490000000  0.4511650000000  0.6105800000000 1.0
C      1  0.5810610000000  0.4340530000000  0.5827440000000 1.0
C      1  0.5784220000000  0.5485770000000  0.5444180000000 1.0
C      1  0.5290250000000  0.4259260000000  0.5944260000000 1.0
C      1  0.4248270000000  0.5595850000000  0.4237680000000 1.0
C      1  0.4749950000000  0.5605590000000  0.4723540000000 1.0
C      1  0.5044440000000  0.4915580000000  0.4272020000000 1.0
C      1  0.5343320000000  0.4106340000000  0.4578060000000 1.0
C      1  0.5623760000000  0.5600770000000  0.5661770000000 1.0
C      1  0.5026010000000  0.5275390000000  0.5369260000000 1.0
C      1  0.4871390000000  0.4592810000000  0.5513000000000 1.0
C      1  0.4250040000000  0.5394570000000  0.4035410000000 1.0
C      1  0.5200870000000  0.5532800000000  0.4973310000000 1.0
C      1  0.6375600000000  0.4843520000000  0.5902080000000 1.0
C      1  0.4791800000000  0.4662140000000  0.3935690000000 1.0
C      1  0.4048710000000  0.5969350000000  0.4867740000000 1.0
C      1  0.5399700000000  0.3801360000000  0.5263770000000 1.0
C      1  0.5376200000000  0.5591660000000  0.5178740000000 1.0
C      1  0.3762180000000  0.5198920000000  0.4201530000000 1.0
C      1  0.4613000000000  0.5257650000000  0.5655020000000 1.0
C      1  0.4912550000000  0.6194610000000  0.4766510000000 1.0
C      1  0.6076250000000  0.5508010000000  0.4486800000000 1.0
C      1  0.4975450000000  0.4321720000000  0.5506300000000 1.0
C      1  0.5241340000000  0.4406220000000  0.6183110000000 1.0
C      1  0.4272130000000  0.5469880000000  0.5355710000000 1.0
C      1  0.4526250000000  0.5855120000000  0.5249560000000 1.0
C      1  0.5800210000000  0.4575860000000  0.5666100000000 1.0
C      1  0.6049360000000  0.4238120000000  0.5927620000000 1.0
C      1  0.4597500000000  0.6105080000000  0.5131390000000 1.0
C      1  0.4665520000000  0.5839180000000  0.4084190000000 1.0
C      1  0.4046510000000  0.5551040000000  0.4440440000000 1.0
C      1  0.5612820000000  0.4483250000000  0.5194730000000 1.0
C      1  0.3961940000000  0.3975670000000  0.3975720000000 1.0
C      1  0.5545160000000  0.5008380000000  0.5250570000000 1.0
C      1  0.4057370000000  0.4748630000000  0.5543120000000 1.0
C      1  0.4489570000000  0.5737160000000  0.4285370000000 1.0
C      1  0.3371950000000  0.4560940000000  0.4507560000000 1.0
C      1  0.4722050000000  0.3856240000000  0.4142660000000 1.0
C      1  0.3944040000000  0.4542370000000  0.5392260000000 1.0
C      1  0.5242060000000  0.5226890000000  0.5525170000000 1.0
C      1  0.5010900000000  0.5429700000000  0.5930620000000 1.0
C      1  0.5386420000000  0.4638480000000  0.4633710000000 1.0
C      1  0.4115580000000  0.5504980000000  0.4718010000000 1.0
C      1  0.4780590000000  0.5250200000000  0.5891730000000 1.0
C      1  0.4160510000000  0.5235260000000  0.4788310000000 1.0
C      1  0.5350420000000  0.5711810000000  0.5635200000000 1.0
C      1  0.6066410000000  0.5028470000000  0.4492230000000 1.0
C      1  0.5432690000000  0.5539730000000  0.4336600000000 1.0
C      1  0.4091430000000  0.5259720000000  0.5377350000000 1.0
C      1  0.5872490000000  0.4842120000000  0.5738740000000 1.0
C      1  0.6763920000000  0.4255720000000  0.6156190000000 1.0
C      1  0.5017570000000  0.4533020000000  0.6265960000000 1.0
C      1  0.5158070000000  0.4279590000000  0.5287120000000 1.0
C      1  0.5889140000000  0.5279220000000  0.4528190000000 1.0
C      1  0.5833990000000  0.5729330000000  0.4864970000000 1.0
C      1  0.6196720000000  0.5233340000000  0.5214420000000 1.0
C      1  0.5087830000000  0.5653640000000  0.5757980000000 1.0
C      1  0.5128360000000  0.5938910000000  0.4348320000000 1.0
C      1  0.5331320000000  0.6057060000000  0.5230230000000 1.0
C      1  0.4467470000000  0.3974230000000  0.4071140000000 1.0
C      1  0.4256080000000  0.4413270000000  0.4216510000000 1.0
C      1  0.3606480000000  0.4558830000000  0.4365960000000 1.0
C      1  0.4698580000000  0.4242640000000  0.4393300000000 1.0
C      1  0.5559830000000  0.4218260000000  0.5876160000000 1.0
C      1  0.6302110000000  0.4239170000000  0.6009810000000 1.0
C      1  0.4132440000000  0.4896080000000  0.4073850000000 1.0
C      1  0.5251150000000  0.3774280000000  0.5487810000000 1.0
C      1  0.3933970000000  0.4831380000000  0.4644700000000 1.0
C      1  0.5416810000000  0.4265590000000  0.5159070000000 1.0
C      1  0.4740970000000  0.5014950000000  0.6053630000000 1.0
C      1  0.6254360000000  0.5683720000000  0.4414080000000 1.0
C      1  0.5296280000000  0.4857560000000  0.4783000000000 1.0
C      1  0.4204370000000  0.4684510000000  0.5779560000000 1.0
C      1  0.5193250000000  0.5361650000000  0.6133460000000 1.0
C      1  0.3827410000000  0.4354540000000  0.5254310000000 1.0
C      1  0.4173360000000  0.4961370000000  0.4728120000000 1.0
C      1  0.5633880000000  0.5482910000000  0.5199310000000 1.0
C      1  0.4491570000000  0.5489700000000  0.5545550000000 1.0
C      1  0.4592860000000  0.5718010000000  0.4543870000000 1.0
C      1  0.4485450000000  0.4713440000000  0.5783650000000 1.0
C      1  0.5544100000000  0.4642170000000  0.4058560000000 1.0
C      1  0.6272590000000  0.5114000000000  0.4979590000000 1.0
C      1  0.4070770000000  0.4595500000000  0.6001570000000 1.0
C      1  0.5775270000000  0.5469060000000  0.4960490000000 1.0
C      1  0.5347650000000  0.4655110000000  0.5563110000000 1.0
C      1  0.4473980000000  0.4231520000000  0.4206880000000 1.0
C      1  0.5534530000000  0.6086450000000  0.5030370000000 1.0
C      1  0.5599720000000  0.4567950000000  0.5469860000000 1.0
C      1  0.5120630000000  0.4823430000000  0.5186050000000 1.0
C      1  0.5466020000000  0.3997970000000  0.5069500000000 1.0
C      1  0.5031740000000  0.4708940000000  0.4073340000000 1.0
C      1  0.5107800000000  0.4734610000000  0.5446320000000 1.0
C      1  0.5366850000000  0.4893980000000  0.5063160000000 1.0
C      1  0.4636440000000  0.5736070000000  0.5491220000000 1.0
C      1  0.5282700000000  0.4593440000000  0.4008280000000 1.0
C      1  0.5640820000000  0.5322320000000  0.4361190000000 1.0
C      1  0.5198380000000  0.5391040000000  0.4245500000000 1.0
C      1  0.4209170000000  0.4409710000000  0.4701810000000 1.0
C      1  0.4275700000000  0.4644920000000  0.4047440000000 1.0
C      1  0.5666880000000  0.5952930000000  0.4816130000000 1.0
C      1  0.5099980000000  0.3892450000000  0.5678220000000 1.0
C      1  0.6246990000000  0.5018160000000  0.4722260000000 1.0
C      1  0.3768750000000  0.4143870000000  0.4053530000000 1.0
C      1  0.4611260000000  0.4959540000000  0.4499150000000 1.0
C      1  0.5658830000000  0.5035800000000  0.5744000000000 1.0
C      1  0.4890130000000  0.4931370000000  0.4514000000000 1.0
C      1  0.6535610000000  0.4652080000000  0.5995640000000 1.0
C      1  0.5591030000000  0.5139630000000  0.5995510000000 1.0
END
