TITL C-599891-72-83 0.00146003843028673 125000 -912.710984437289 0 0 148 (C1) n - 1
REM
REM in /home/nfs/bkarasulu/CARBON/AIRSS/Generating-Clusters/TERSOFF/Only-C1/FIRE-HFTN
REM
REM
REM
REM
REM
REM ./C.cell (11c1c37f851c82e70ff6c80c92926a4b)
REM AIRSS Version 0.9.1 bugfix July 2018 build 013d7b7c2542+ Fri, 06 Jul 2018 19:26:36 +0100
REM compiler GCC version 9.2.1 20190827 (Red Hat 9.2.1-1)
REM options -cpp -mtune=generic -march=x86-64 -g -O0 -fpre-include=/usr/include/finclude/math-vector-fortran.h
REM seed 1217816769 1595510811 1512002122 1765444387 991988283 -1017773400 1092066100 594455913 1000778580 265728279 1152243535 -843662377 -557013819 -1320183590 -2059426900 -220647340 -948841075 522006494 -1306508719 -1655762092 1320135780 542888306 -999631489 -2057558155 -665332013 1443384783 -319943319 -1024982406 429029425 1959911872 2120161203 574687544 -512762747
REM
CELL 1.54180   50.00000   50.00000   50.00000   90.00000   90.00000   90.00000
LATT -1
SFAC C  
C      1  0.5149830000000  0.4495770000000  0.4924060000000 1.0
C      1  0.4491090000000  0.4297210000000  0.5777960000000 1.0
C      1  0.5335850000000  0.4728810000000  0.4897510000000 1.0
C      1  0.4181800000000  0.4985790000000  0.5838850000000 1.0
C      1  0.4365060000000  0.5642080000000  0.5319050000000 1.0
C      1  0.5204070000000  0.5843640000000  0.5274300000000 1.0
C      1  0.5783010000000  0.5586290000000  0.4622830000000 1.0
C      1  0.4994310000000  0.4145800000000  0.5768040000000 1.0
C      1  0.5428450000000  0.5193520000000  0.4374440000000 1.0
C      1  0.3918500000000  0.5254000000000  0.5475060000000 1.0
C      1  0.4123330000000  0.4648300000000  0.4921670000000 1.0
C      1  0.5610510000000  0.5719810000000  0.4460340000000 1.0
C      1  0.5353010000000  0.5296670000000  0.4115800000000 1.0
C      1  0.4628880000000  0.5028440000000  0.3804780000000 1.0
C      1  0.5886840000000  0.4255900000000  0.4674010000000 1.0
C      1  0.5826770000000  0.5073370000000  0.4112410000000 1.0
C      1  0.5859340000000  0.5486820000000  0.5547820000000 1.0
C      1  0.4618740000000  0.4594410000000  0.4098380000000 1.0
C      1  0.5289420000000  0.5120340000000  0.6230730000000 1.0
C      1  0.4934320000000  0.6093280000000  0.4668510000000 1.0
C      1  0.3988440000000  0.4688660000000  0.4445950000000 1.0
C      1  0.5652760000000  0.5754880000000  0.5872260000000 1.0
C      1  0.5725710000000  0.5726100000000  0.5415640000000 1.0
C      1  0.4501160000000  0.4811630000000  0.3945700000000 1.0
C      1  0.4941240000000  0.4983170000000  0.4295390000000 1.0
C      1  0.5275320000000  0.4361020000000  0.5158780000000 1.0
C      1  0.4961520000000  0.4170400000000  0.4512680000000 1.0
C      1  0.5375080000000  0.6150010000000  0.4903310000000 1.0
C      1  0.5459910000000  0.4140430000000  0.5149470000000 1.0
C      1  0.4108620000000  0.5441250000000  0.4881270000000 1.0
C      1  0.4643840000000  0.5708550000000  0.4428110000000 1.0
C      1  0.4778270000000  0.5721340000000  0.5677350000000 1.0
C      1  0.3794940000000  0.5435920000000  0.5289270000000 1.0
C      1  0.4548350000000  0.4593490000000  0.4369880000000 1.0
C      1  0.5385090000000  0.5116800000000  0.3895450000000 1.0
C      1  0.4378360000000  0.4452750000000  0.5330800000000 1.0
C      1  0.3968900000000  0.5175250000000  0.5752890000000 1.0
C      1  0.4862710000000  0.4770580000000  0.5255330000000 1.0
C      1  0.5304880000000  0.4490850000000  0.5399460000000 1.0
C      1  0.5334000000000  0.5682800000000  0.4391530000000 1.0
C      1  0.4469110000000  0.5258830000000  0.3718430000000 1.0
C      1  0.4143620000000  0.5147480000000  0.5318180000000 1.0
C      1  0.5294500000000  0.5319480000000  0.5475030000000 1.0
C      1  0.5893530000000  0.4759470000000  0.4740440000000 1.0
C      1  0.5233420000000  0.5265950000000  0.4575790000000 1.0
C      1  0.5220750000000  0.3885180000000  0.4823880000000 1.0
C      1  0.5841790000000  0.5388420000000  0.4797620000000 1.0
C      1  0.4807670000000  0.5215720000000  0.4297770000000 1.0
C      1  0.4585400000000  0.4704350000000  0.4606800000000 1.0
C      1  0.5723620000000  0.4236830000000  0.5203610000000 1.0
C      1  0.5114270000000  0.4347360000000  0.5955730000000 1.0
C      1  0.5250730000000  0.4339680000000  0.4184140000000 1.0
C      1  0.4439650000000  0.5039510000000  0.5996480000000 1.0
C      1  0.4827720000000  0.4414840000000  0.4026880000000 1.0
C      1  0.5308220000000  0.4999660000000  0.4939930000000 1.0
C      1  0.4771590000000  0.5807550000000  0.5154000000000 1.0
C      1  0.5491240000000  0.5181250000000  0.5055930000000 1.0
C      1  0.5366890000000  0.4477370000000  0.5883260000000 1.0
C      1  0.5088890000000  0.6121890000000  0.4905450000000 1.0
C      1  0.4618660000000  0.5491780000000  0.3708110000000 1.0
C      1  0.5653840000000  0.4126760000000  0.4648840000000 1.0
C      1  0.5070580000000  0.5616910000000  0.3924200000000 1.0
C      1  0.4224830000000  0.4843480000000  0.4010870000000 1.0
C      1  0.5111520000000  0.3867050000000  0.5335990000000 1.0
C      1  0.4832380000000  0.3865430000000  0.5287190000000 1.0
C      1  0.4975840000000  0.4259450000000  0.4233160000000 1.0
C      1  0.4209840000000  0.4777650000000  0.5635920000000 1.0
C      1  0.5813870000000  0.4929200000000  0.5494100000000 1.0
C      1  0.5270970000000  0.5618000000000  0.5105410000000 1.0
C      1  0.4660220000000  0.4716190000000  0.5703150000000 1.0
C      1  0.4377160000000  0.5455200000000  0.4772150000000 1.0
C      1  0.4743090000000  0.4803880000000  0.4808190000000 1.0
C      1  0.5734940000000  0.5877810000000  0.5175540000000 1.0
C      1  0.5263780000000  0.5568470000000  0.4126550000000 1.0
C      1  0.5693300000000  0.4822490000000  0.5735150000000 1.0
C      1  0.5420260000000  0.4907280000000  0.6137970000000 1.0
C      1  0.5380760000000  0.4111510000000  0.4699920000000 1.0
C      1  0.4975970000000  0.3905220000000  0.4652560000000 1.0
C      1  0.5197630000000  0.5547610000000  0.4610660000000 1.0
C      1  0.5040500000000  0.5287440000000  0.5551170000000 1.0
C      1  0.4049070000000  0.4793640000000  0.4207450000000 1.0
C      1  0.5873320000000  0.4907220000000  0.4986760000000 1.0
C      1  0.5602950000000  0.6045580000000  0.5008040000000 1.0
C      1  0.5045740000000  0.5834280000000  0.5732190000000 1.0
C      1  0.4426250000000  0.5380430000000  0.5723500000000 1.0
C      1  0.5329960000000  0.4592870000000  0.4277730000000 1.0
C      1  0.4806690000000  0.5219240000000  0.5415600000000 1.0
C      1  0.4952520000000  0.4479520000000  0.6146820000000 1.0
C      1  0.4884470000000  0.4735370000000  0.5535230000000 1.0
C      1  0.4627810000000  0.5748210000000  0.5403130000000 1.0
C      1  0.5533480000000  0.5833510000000  0.5621860000000 1.0
C      1  0.4656360000000  0.4050500000000  0.5406800000000 1.0
C      1  0.5122490000000  0.4719470000000  0.3726330000000 1.0
C      1  0.4981210000000  0.4501630000000  0.3800800000000 1.0
C      1  0.4816690000000  0.5598580000000  0.4952060000000 1.0
C      1  0.4883610000000  0.4628770000000  0.5001280000000 1.0
C      1  0.5508580000000  0.4727200000000  0.5941500000000 1.0
C      1  0.5164760000000  0.4318500000000  0.4682650000000 1.0
C      1  0.4635780000000  0.4828570000000  0.5969760000000 1.0
C      1  0.3957630000000  0.5574850000000  0.5092770000000 1.0
C      1  0.4749990000000  0.5508450000000  0.5981970000000 1.0
C      1  0.5994780000000  0.4495710000000  0.4729510000000 1.0
C      1  0.4538320000000  0.5316370000000  0.5972660000000 1.0
C      1  0.4781160000000  0.4686800000000  0.6164200000000 1.0
C      1  0.5877130000000  0.5210260000000  0.5488260000000 1.0
C      1  0.4646790000000  0.5370710000000  0.4869620000000 1.0
C      1  0.5759050000000  0.5171320000000  0.4961400000000 1.0
C      1  0.4894560000000  0.5444750000000  0.3782420000000 1.0
C      1  0.5112200000000  0.4828030000000  0.5654930000000 1.0
C      1  0.5854790000000  0.4769830000000  0.5248380000000 1.0
C      1  0.5574260000000  0.4620920000000  0.4405450000000 1.0
C      1  0.5289450000000  0.3905630000000  0.5110500000000 1.0
C      1  0.4182380000000  0.4074440000000  0.4818810000000 1.0
C      1  0.5119620000000  0.5778560000000  0.6004870000000 1.0
C      1  0.5138760000000  0.5340380000000  0.6232290000000 1.0
C      1  0.4419740000000  0.4550320000000  0.5627600000000 1.0
C      1  0.4750660000000  0.5477360000000  0.4306830000000 1.0
C      1  0.5107450000000  0.5119450000000  0.4780430000000 1.0
C      1  0.4993830000000  0.5547500000000  0.6113760000000 1.0
C      1  0.5385280000000  0.5384430000000  0.5217490000000 1.0
C      1  0.5655990000000  0.5033070000000  0.3885740000000 1.0
C      1  0.5843000000000  0.5559080000000  0.5831200000000 1.0
C      1  0.5838180000000  0.4481580000000  0.5248680000000 1.0
C      1  0.5688560000000  0.5065220000000  0.4368410000000 1.0
C      1  0.4789690000000  0.5941760000000  0.4498170000000 1.0
C      1  0.4173910000000  0.4868510000000  0.5357010000000 1.0
C      1  0.4330620000000  0.4060750000000  0.5040050000000 1.0
C      1  0.5160450000000  0.3968670000000  0.5604570000000 1.0
C      1  0.4550310000000  0.5281330000000  0.5491780000000 1.0
C      1  0.4131790000000  0.5764720000000  0.5219500000000 1.0
C      1  0.4230490000000  0.4654080000000  0.5179090000000 1.0
C      1  0.4455270000000  0.4187350000000  0.5256670000000 1.0
C      1  0.4404200000000  0.5651650000000  0.4566060000000 1.0
C      1  0.4992720000000  0.5994890000000  0.5147270000000 1.0
C      1  0.5432920000000  0.4412160000000  0.5619040000000 1.0
C      1  0.4907910000000  0.5144310000000  0.3787890000000 1.0
C      1  0.4829410000000  0.5051610000000  0.5192670000000 1.0
C      1  0.5098700000000  0.5600930000000  0.4871560000000 1.0
C      1  0.4808400000000  0.5100460000000  0.4889380000000 1.0
C      1  0.5130520000000  0.4793370000000  0.4296120000000 1.0
C      1  0.4354870000000  0.5343830000000  0.5297090000000 1.0
C      1  0.5729410000000  0.4827440000000  0.4515540000000 1.0
C      1  0.4058230000000  0.4255760000000  0.4665690000000 1.0
C      1  0.4040600000000  0.4536860000000  0.4676230000000 1.0
C      1  0.5151560000000  0.4996030000000  0.3780660000000 1.0
C      1  0.4712220000000  0.4144840000000  0.5677750000000 1.0
C      1  0.5261030000000  0.5865330000000  0.5548240000000 1.0
C      1  0.6094710000000  0.5119450000000  0.4091090000000 1.0
END
