TITL C-599896-8500-413 -0.000368287493001767 125000 -830.95247852656 0 0 136 (C1) n - 1
REM
REM in /home/nfs/bkarasulu/CARBON/AIRSS/Generating-Clusters/TERSOFF/Only-C1/FIRE-HFTN
REM
REM
REM
REM
REM
REM ./C.cell (11c1c37f851c82e70ff6c80c92926a4b)
REM AIRSS Version 0.9.1 bugfix July 2018 build 013d7b7c2542+ Fri, 06 Jul 2018 19:26:36 +0100
REM compiler GCC version 9.2.1 20190827 (Red Hat 9.2.1-1)
REM options -cpp -mtune=generic -march=x86-64 -g -O0 -fpre-include=/usr/include/finclude/math-vector-fortran.h
REM seed -1091567223 1421427521 -31083030 -324321380 -467923994 868728094 846552453 -850751443 -982763259 -1511156508 1730677084 1243808489 -1915655755 -1836082269 -602119680 -1254934723 19296428 1431407623 -765175416 288511631 -1765625008 -1317761239 -384994224 -1203196747 1981933103 93866861 -1148881058 1883972511 -162112435 1937302116 422158606 -1659283318 666560762
REM
CELL 1.54180   50.00000   50.00000   50.00000   90.00000   90.00000   90.00000
LATT -1
SFAC C  
C      1  0.5317770000000  0.5256410000000  0.5572290000000 1.0
C      1  0.5665530000000  0.4269850000000  0.5068210000000 1.0
C      1  0.4735220000000  0.6015340000000  0.4877600000000 1.0
C      1  0.3979780000000  0.5227160000000  0.5467030000000 1.0
C      1  0.5080610000000  0.5114160000000  0.5530120000000 1.0
C      1  0.4637790000000  0.5774850000000  0.4430120000000 1.0
C      1  0.5380700000000  0.5264590000000  0.4707410000000 1.0
C      1  0.4734610000000  0.4536830000000  0.4858530000000 1.0
C      1  0.4895620000000  0.4713860000000  0.5713290000000 1.0
C      1  0.4497740000000  0.4378220000000  0.4875610000000 1.0
C      1  0.4137850000000  0.4473590000000  0.4355200000000 1.0
C      1  0.4787430000000  0.4703540000000  0.4392340000000 1.0
C      1  0.5602590000000  0.4914900000000  0.5712090000000 1.0
C      1  0.5243580000000  0.5331070000000  0.4447190000000 1.0
C      1  0.4758410000000  0.5271310000000  0.3889260000000 1.0
C      1  0.5800600000000  0.5129310000000  0.4314940000000 1.0
C      1  0.6082150000000  0.4828030000000  0.4776180000000 1.0
C      1  0.4998330000000  0.4513480000000  0.3674270000000 1.0
C      1  0.4248400000000  0.4536230000000  0.4834990000000 1.0
C      1  0.5322000000000  0.4682170000000  0.5342550000000 1.0
C      1  0.4041340000000  0.4958700000000  0.5034670000000 1.0
C      1  0.4272760000000  0.4365160000000  0.5456490000000 1.0
C      1  0.5448620000000  0.4786770000000  0.4763390000000 1.0
C      1  0.5045890000000  0.5027990000000  0.5264510000000 1.0
C      1  0.4373050000000  0.5663120000000  0.4393900000000 1.0
C      1  0.5723330000000  0.4389210000000  0.5587580000000 1.0
C      1  0.5519820000000  0.5558530000000  0.5282210000000 1.0
C      1  0.4574470000000  0.5137800000000  0.4442540000000 1.0
C      1  0.4227710000000  0.5568000000000  0.4619080000000 1.0
C      1  0.4023210000000  0.5661230000000  0.5904550000000 1.0
C      1  0.4235310000000  0.4741850000000  0.5035180000000 1.0
C      1  0.4561070000000  0.5226650000000  0.4748810000000 1.0
C      1  0.5021320000000  0.4488780000000  0.4389690000000 1.0
C      1  0.4494140000000  0.4838350000000  0.5085620000000 1.0
C      1  0.4132320000000  0.4927590000000  0.4546440000000 1.0
C      1  0.5155520000000  0.5722760000000  0.4784800000000 1.0
C      1  0.5867230000000  0.5584830000000  0.5583810000000 1.0
C      1  0.3842840000000  0.5848430000000  0.5922950000000 1.0
C      1  0.5283000000000  0.5430540000000  0.6045200000000 1.0
C      1  0.4380450000000  0.5496850000000  0.4148660000000 1.0
C      1  0.5383610000000  0.5006640000000  0.3996620000000 1.0
C      1  0.5807630000000  0.4623980000000  0.5338080000000 1.0
C      1  0.4900500000000  0.5040340000000  0.6187540000000 1.0
C      1  0.6040920000000  0.5070960000000  0.5247290000000 1.0
C      1  0.5110170000000  0.5579660000000  0.4350750000000 1.0
C      1  0.5168660000000  0.4787570000000  0.4842460000000 1.0
C      1  0.4744360000000  0.5991000000000  0.4591410000000 1.0
C      1  0.5609680000000  0.5061150000000  0.4135530000000 1.0
C      1  0.4986400000000  0.5496170000000  0.4867670000000 1.0
C      1  0.5265950000000  0.4116320000000  0.5599030000000 1.0
C      1  0.3935270000000  0.4742020000000  0.5445320000000 1.0
C      1  0.5076330000000  0.5104440000000  0.4411660000000 1.0
C      1  0.5629400000000  0.5830770000000  0.4852180000000 1.0
C      1  0.5164820000000  0.5807390000000  0.4515530000000 1.0
C      1  0.5007780000000  0.6041220000000  0.4482320000000 1.0
C      1  0.4878360000000  0.5043700000000  0.4010590000000 1.0
C      1  0.5018320000000  0.5780030000000  0.5280920000000 1.0
C      1  0.5149600000000  0.5267360000000  0.4880640000000 1.0
C      1  0.4299830000000  0.5065530000000  0.4347710000000 1.0
C      1  0.4691680000000  0.5365480000000  0.5253590000000 1.0
C      1  0.5690440000000  0.5502600000000  0.5775090000000 1.0
C      1  0.5463250000000  0.5284690000000  0.5324900000000 1.0
C      1  0.5221970000000  0.5606130000000  0.6493820000000 1.0
C      1  0.4401190000000  0.4186020000000  0.5293940000000 1.0
C      1  0.4595420000000  0.5124000000000  0.5411710000000 1.0
C      1  0.5801990000000  0.4913430000000  0.5281350000000 1.0
C      1  0.5074050000000  0.4622050000000  0.5925270000000 1.0
C      1  0.5852590000000  0.5658760000000  0.4824560000000 1.0
C      1  0.4398100000000  0.5086690000000  0.5621890000000 1.0
C      1  0.5258220000000  0.3928170000000  0.4731380000000 1.0
C      1  0.4822300000000  0.5000290000000  0.4305190000000 1.0
C      1  0.3935150000000  0.4994620000000  0.5300170000000 1.0
C      1  0.4605780000000  0.4953490000000  0.4855700000000 1.0
C      1  0.4946960000000  0.4395570000000  0.5363550000000 1.0
C      1  0.5089880000000  0.4623900000000  0.3906790000000 1.0
C      1  0.5858630000000  0.4472630000000  0.5099340000000 1.0
C      1  0.5088170000000  0.5018850000000  0.4992120000000 1.0
C      1  0.4346550000000  0.4454180000000  0.4186910000000 1.0
C      1  0.4646290000000  0.4841260000000  0.5320860000000 1.0
C      1  0.5909930000000  0.5528390000000  0.4580290000000 1.0
C      1  0.4190720000000  0.5276000000000  0.5658750000000 1.0
C      1  0.5541650000000  0.5052930000000  0.4848750000000 1.0
C      1  0.4171130000000  0.4616970000000  0.5553070000000 1.0
C      1  0.4786500000000  0.5101250000000  0.5933320000000 1.0
C      1  0.5585300000000  0.5076280000000  0.5152960000000 1.0
C      1  0.5157690000000  0.4463060000000  0.4133430000000 1.0
C      1  0.4715290000000  0.5307620000000  0.3353370000000 1.0
C      1  0.5133930000000  0.5451290000000  0.6286550000000 1.0
C      1  0.4699100000000  0.4753130000000  0.4678010000000 1.0
C      1  0.5363960000000  0.5815800000000  0.4947650000000 1.0
C      1  0.5565730000000  0.4554550000000  0.4653430000000 1.0
C      1  0.4223160000000  0.5258500000000  0.4152750000000 1.0
C      1  0.4138390000000  0.4635900000000  0.4584340000000 1.0
C      1  0.4910280000000  0.4997950000000  0.5713990000000 1.0
C      1  0.5938340000000  0.5249030000000  0.4534420000000 1.0
C      1  0.5591820000000  0.4289720000000  0.4545010000000 1.0
C      1  0.5941890000000  0.4267130000000  0.5696890000000 1.0
C      1  0.5308610000000  0.5745930000000  0.5220530000000 1.0
C      1  0.4934410000000  0.3938990000000  0.5248100000000 1.0
C      1  0.5321120000000  0.4547570000000  0.5802590000000 1.0
C      1  0.4586420000000  0.4568720000000  0.4212580000000 1.0
C      1  0.4889160000000  0.5303380000000  0.6306680000000 1.0
C      1  0.4082880000000  0.5100590000000  0.4784740000000 1.0
C      1  0.5033830000000  0.4524590000000  0.4890380000000 1.0
C      1  0.5399390000000  0.4271650000000  0.5114460000000 1.0
C      1  0.4267750000000  0.5325680000000  0.4764970000000 1.0
C      1  0.4797740000000  0.4622380000000  0.5461650000000 1.0
C      1  0.5947130000000  0.5522720000000  0.5063320000000 1.0
C      1  0.6051400000000  0.5111300000000  0.4763390000000 1.0
C      1  0.4812040000000  0.4022240000000  0.4997310000000 1.0
C      1  0.4852820000000  0.5569200000000  0.5385870000000 1.0
C      1  0.5426190000000  0.5393320000000  0.5804740000000 1.0
C      1  0.4333060000000  0.4811820000000  0.5688430000000 1.0
C      1  0.4422420000000  0.5449340000000  0.6081040000000 1.0
C      1  0.5121940000000  0.4906130000000  0.3935640000000 1.0
C      1  0.5067350000000  0.4339100000000  0.4645390000000 1.0
C      1  0.4544260000000  0.4153230000000  0.5043360000000 1.0
C      1  0.6019670000000  0.4597120000000  0.4901940000000 1.0
C      1  0.4735190000000  0.5293580000000  0.3612820000000 1.0
C      1  0.4719720000000  0.5402590000000  0.4951920000000 1.0
C      1  0.5008840000000  0.4068820000000  0.4766110000000 1.0
C      1  0.5493170000000  0.4048480000000  0.4663010000000 1.0
C      1  0.5022440000000  0.4125630000000  0.5444950000000 1.0
C      1  0.5168320000000  0.4463910000000  0.5165080000000 1.0
C      1  0.5409310000000  0.4748410000000  0.5611490000000 1.0
C      1  0.4831280000000  0.5610830000000  0.4257950000000 1.0
C      1  0.4662230000000  0.5474300000000  0.4063150000000 1.0
C      1  0.5607700000000  0.4276860000000  0.4264310000000 1.0
C      1  0.5452810000000  0.4314870000000  0.5691170000000 1.0
C      1  0.4215260000000  0.5458300000000  0.5881050000000 1.0
C      1  0.5395510000000  0.4317040000000  0.4106500000000 1.0
C      1  0.6056480000000  0.5252610000000  0.5024430000000 1.0
C      1  0.5035420000000  0.4782630000000  0.6170540000000 1.0
C      1  0.4865770000000  0.5965510000000  0.5112790000000 1.0
C      1  0.4633750000000  0.5430770000000  0.6252130000000 1.0
C      1  0.5806070000000  0.5597280000000  0.5305850000000 1.0
END
