TITL C-599896-8500-812 0.383003835938026 125000 -163.626493179195 0 0 29 (C1) n - 1
REM
REM in /home/nfs/bkarasulu/CARBON/AIRSS/Generating-Clusters/TERSOFF/Only-C1/FIRE-HFTN
REM
REM
REM
REM
REM
REM ./C.cell (11c1c37f851c82e70ff6c80c92926a4b)
REM AIRSS Version 0.9.1 bugfix July 2018 build 013d7b7c2542+ Fri, 06 Jul 2018 19:26:36 +0100
REM compiler GCC version 9.2.1 20190827 (Red Hat 9.2.1-1)
REM options -cpp -mtune=generic -march=x86-64 -g -O0 -fpre-include=/usr/include/finclude/math-vector-fortran.h
REM seed 1085515523 1612511581 -153358298 -59097892 1882882532 -88592332 -1207280935 -1309493302 -693275068 1525201503 -1224662649 -1336413347 1197354777 1792445876 -1744941366 -1466101223 -128240936 127681274 799432121 -189321007 1195180970 1283884441 -1737769368 1058378633 -865686316 -345324218 -738486225 -1486185722 1697453 -1923635250 -251811380 -1524020225 781561068
REM
CELL 1.54180   50.00000   50.00000   50.00000   90.00000   90.00000   90.00000
LATT -1
SFAC C  
C      1  0.4337940000000  0.4534530000000  0.5640910000000 1.0
C      1  0.5157370000000  0.4354570000000  0.4650720000000 1.0
C      1  0.5325950000000  0.5437680000000  0.4952870000000 1.0
C      1  0.4739470000000  0.4838680000000  0.4872260000000 1.0
C      1  0.5566570000000  0.5077530000000  0.5175560000000 1.0
C      1  0.4489130000000  0.5348620000000  0.4332370000000 1.0
C      1  0.4149730000000  0.4645920000000  0.5488010000000 1.0
C      1  0.5828160000000  0.4997630000000  0.5176610000000 1.0
C      1  0.5132640000000  0.5470100000000  0.4774680000000 1.0
C      1  0.4599540000000  0.4486450000000  0.5657160000000 1.0
C      1  0.5603560000000  0.5536890000000  0.5337420000000 1.0
C      1  0.5496750000000  0.4894500000000  0.4508360000000 1.0
C      1  0.5241170000000  0.4800250000000  0.4480050000000 1.0
C      1  0.5706120000000  0.5707370000000  0.5512380000000 1.0
C      1  0.4923220000000  0.5462880000000  0.4612480000000 1.0
C      1  0.5807570000000  0.5874630000000  0.5684700000000 1.0
C      1  0.5360040000000  0.4889790000000  0.5190350000000 1.0
C      1  0.4706620000000  0.5420090000000  0.4465960000000 1.0
C      1  0.5016990000000  0.4598970000000  0.5370520000000 1.0
C      1  0.4118340000000  0.4773210000000  0.5255570000000 1.0
C      1  0.4249560000000  0.4860790000000  0.5040780000000 1.0
C      1  0.5088400000000  0.4870350000000  0.4263770000000 1.0
C      1  0.4480140000000  0.4881520000000  0.4909780000000 1.0
C      1  0.5133070000000  0.4625940000000  0.4677180000000 1.0
C      1  0.5499600000000  0.5353160000000  0.5154740000000 1.0
C      1  0.4841810000000  0.4512680000000  0.5550490000000 1.0
C      1  0.4998490000000  0.4737180000000  0.4901410000000 1.0
C      1  0.5126970000000  0.4740180000000  0.5155540000000 1.0
C      1  0.4275070000000  0.5267900000000  0.4207380000000 1.0
END
