TITL C-599896-8500-397 -0.00378161602695627 125000 -823.51978737888 0 0 134 (C1) n - 1
REM
REM in /home/nfs/bkarasulu/CARBON/AIRSS/Generating-Clusters/TERSOFF/Only-C1/FIRE-HFTN
REM
REM
REM
REM
REM
REM ./C.cell (11c1c37f851c82e70ff6c80c92926a4b)
REM AIRSS Version 0.9.1 bugfix July 2018 build 013d7b7c2542+ Fri, 06 Jul 2018 19:26:36 +0100
REM compiler GCC version 9.2.1 20190827 (Red Hat 9.2.1-1)
REM options -cpp -mtune=generic -march=x86-64 -g -O0 -fpre-include=/usr/include/finclude/math-vector-fortran.h
REM seed 1081856225 1604070247 -1893151870 463036157 1074416480 1679662079 -1420471300 529911809 -476215836 584980536 1541083496 830276512 -1779130764 -510527287 1180314974 1175704990 -1124420098 949541394 1365110104 721600863 -696385495 -656055094 1653961310 -1646334871 -760608400 1357489223 -454517231 -1846200608 43735957 829314788 511121063 80823918 -819342901
REM
CELL 1.54180   50.00000   50.00000   50.00000   90.00000   90.00000   90.00000
LATT -1
SFAC C  
C      1  0.4615580000000  0.4409940000000  0.4191160000000 1.0
C      1  0.4021030000000  0.4737300000000  0.5311410000000 1.0
C      1  0.5551360000000  0.5361590000000  0.6152230000000 1.0
C      1  0.5187340000000  0.5958860000000  0.5705930000000 1.0
C      1  0.5325120000000  0.3828340000000  0.4368850000000 1.0
C      1  0.5281830000000  0.4333840000000  0.4601020000000 1.0
C      1  0.5639680000000  0.4940380000000  0.4595980000000 1.0
C      1  0.6048060000000  0.4723160000000  0.4706330000000 1.0
C      1  0.5962610000000  0.4269460000000  0.4463650000000 1.0
C      1  0.4798070000000  0.5865490000000  0.4368910000000 1.0
C      1  0.4155410000000  0.4003320000000  0.4410420000000 1.0
C      1  0.5266900000000  0.6026240000000  0.5195770000000 1.0
C      1  0.4777580000000  0.5555560000000  0.5245360000000 1.0
C      1  0.4437440000000  0.4846970000000  0.5051390000000 1.0
C      1  0.4395910000000  0.4199290000000  0.5548560000000 1.0
C      1  0.5075220000000  0.5924040000000  0.4352520000000 1.0
C      1  0.6061990000000  0.4482630000000  0.4589760000000 1.0
C      1  0.5815360000000  0.4517550000000  0.5154340000000 1.0
C      1  0.5025350000000  0.4722060000000  0.4118660000000 1.0
C      1  0.5286880000000  0.5196770000000  0.4047200000000 1.0
C      1  0.4865830000000  0.4581290000000  0.5110350000000 1.0
C      1  0.4870300000000  0.4004700000000  0.5398430000000 1.0
C      1  0.5082490000000  0.4801090000000  0.5570460000000 1.0
C      1  0.5170680000000  0.5514340000000  0.4582910000000 1.0
C      1  0.5386620000000  0.5578210000000  0.5036440000000 1.0
C      1  0.5902400000000  0.5568560000000  0.5551350000000 1.0
C      1  0.4648070000000  0.4660210000000  0.4674880000000 1.0
C      1  0.5476230000000  0.5684060000000  0.4243030000000 1.0
C      1  0.4475760000000  0.4787760000000  0.4476530000000 1.0
C      1  0.4361720000000  0.5590990000000  0.5552150000000 1.0
C      1  0.5289450000000  0.3829840000000  0.5346030000000 1.0
C      1  0.5033440000000  0.5777070000000  0.5873630000000 1.0
C      1  0.5245660000000  0.3661500000000  0.4867710000000 1.0
C      1  0.4526250000000  0.5065890000000  0.4431500000000 1.0
C      1  0.5892210000000  0.5854780000000  0.5587590000000 1.0
C      1  0.4123290000000  0.5413720000000  0.5592800000000 1.0
C      1  0.5019030000000  0.4341560000000  0.4697450000000 1.0
C      1  0.5250520000000  0.4203780000000  0.5689170000000 1.0
C      1  0.5908730000000  0.5412320000000  0.5785210000000 1.0
C      1  0.4427410000000  0.5165590000000  0.6026500000000 1.0
C      1  0.4870080000000  0.4538210000000  0.4263450000000 1.0
C      1  0.5791450000000  0.4093660000000  0.4359080000000 1.0
C      1  0.4813790000000  0.5702580000000  0.5702860000000 1.0
C      1  0.4638330000000  0.4675300000000  0.4960410000000 1.0
C      1  0.3715540000000  0.4359420000000  0.5318470000000 1.0
C      1  0.5226200000000  0.5457580000000  0.4848590000000 1.0
C      1  0.5070670000000  0.4692990000000  0.5303510000000 1.0
C      1  0.5877060000000  0.5445410000000  0.5294940000000 1.0
C      1  0.5270170000000  0.5737840000000  0.4432130000000 1.0
C      1  0.5643030000000  0.4989470000000  0.4321780000000 1.0
C      1  0.4514570000000  0.5119470000000  0.5041870000000 1.0
C      1  0.5331790000000  0.4723600000000  0.5700660000000 1.0
C      1  0.3994080000000  0.5127800000000  0.4682740000000 1.0
C      1  0.5144660000000  0.3757210000000  0.5107290000000 1.0
C      1  0.4211390000000  0.3874920000000  0.4839180000000 1.0
C      1  0.5103970000000  0.6075510000000  0.4966150000000 1.0
C      1  0.3945410000000  0.4959080000000  0.5475340000000 1.0
C      1  0.4491650000000  0.5529440000000  0.5275810000000 1.0
C      1  0.5677730000000  0.4935210000000  0.5364540000000 1.0
C      1  0.5884440000000  0.5149450000000  0.4936670000000 1.0
C      1  0.5205660000000  0.4983370000000  0.4856170000000 1.0
C      1  0.4708210000000  0.5652140000000  0.4189210000000 1.0
C      1  0.4943810000000  0.5314850000000  0.5199670000000 1.0
C      1  0.4587980000000  0.5536140000000  0.5746940000000 1.0
C      1  0.5342610000000  0.4589640000000  0.5221550000000 1.0
C      1  0.5140020000000  0.4011560000000  0.5516930000000 1.0
C      1  0.4149780000000  0.4819870000000  0.5068290000000 1.0
C      1  0.5011360000000  0.4358050000000  0.4979510000000 1.0
C      1  0.5418150000000  0.4559050000000  0.4641350000000 1.0
C      1  0.5170950000000  0.5450970000000  0.3959570000000 1.0
C      1  0.5367000000000  0.5660870000000  0.3978890000000 1.0
C      1  0.4639590000000  0.4100910000000  0.5517530000000 1.0
C      1  0.5270930000000  0.4339870000000  0.5100520000000 1.0
C      1  0.4890410000000  0.5179740000000  0.5873360000000 1.0
C      1  0.5408490000000  0.5614940000000  0.6162070000000 1.0
C      1  0.4992100000000  0.5327960000000  0.4468810000000 1.0
C      1  0.5149000000000  0.4948430000000  0.4041950000000 1.0
C      1  0.4690290000000  0.5958990000000  0.4619400000000 1.0
C      1  0.5314900000000  0.5381030000000  0.5485580000000 1.0
C      1  0.4860350000000  0.4518650000000  0.4552020000000 1.0
C      1  0.5086610000000  0.5298260000000  0.6041630000000 1.0
C      1  0.4880870000000  0.6045640000000  0.4815930000000 1.0
C      1  0.4842730000000  0.3976150000000  0.4187600000000 1.0
C      1  0.4083240000000  0.5271350000000  0.5140550000000 1.0
C      1  0.5610970000000  0.4687640000000  0.5223500000000 1.0
C      1  0.5402200000000  0.4833230000000  0.4708890000000 1.0
C      1  0.4180620000000  0.5824890000000  0.4646600000000 1.0
C      1  0.4018400000000  0.5056930000000  0.4952480000000 1.0
C      1  0.5091250000000  0.3884930000000  0.4222910000000 1.0
C      1  0.4349850000000  0.5282740000000  0.4373030000000 1.0
C      1  0.5074660000000  0.5244030000000  0.5442840000000 1.0
C      1  0.4471430000000  0.5502700000000  0.4236080000000 1.0
C      1  0.5640490000000  0.5463770000000  0.4314570000000 1.0
C      1  0.4163380000000  0.4314940000000  0.5497720000000 1.0
C      1  0.4415400000000  0.5949200000000  0.4667430000000 1.0
C      1  0.4697700000000  0.3901730000000  0.4922010000000 1.0
C      1  0.5300960000000  0.3684310000000  0.4608780000000 1.0
C      1  0.5141270000000  0.5591440000000  0.6053410000000 1.0
C      1  0.4111460000000  0.5328240000000  0.4522780000000 1.0
C      1  0.3484900000000  0.4256210000000  0.5254690000000 1.0
C      1  0.5873720000000  0.5420070000000  0.4820180000000 1.0
C      1  0.4616320000000  0.4129200000000  0.4259290000000 1.0
C      1  0.5862920000000  0.5606570000000  0.5042050000000 1.0
C      1  0.5803980000000  0.5468330000000  0.4549010000000 1.0
C      1  0.5332510000000  0.5171720000000  0.6129740000000 1.0
C      1  0.5687300000000  0.6009160000000  0.5466600000000 1.0
C      1  0.5341240000000  0.4446740000000  0.5763580000000 1.0
C      1  0.5732900000000  0.5861410000000  0.5027760000000 1.0
C      1  0.5557460000000  0.4892920000000  0.5627680000000 1.0
C      1  0.4901410000000  0.5535790000000  0.4007010000000 1.0
C      1  0.5540310000000  0.5216570000000  0.4196630000000 1.0
C      1  0.4888890000000  0.5754080000000  0.5420980000000 1.0
C      1  0.4482640000000  0.3937850000000  0.4746340000000 1.0
C      1  0.6085520000000  0.5979410000000  0.5736710000000 1.0
C      1  0.5572930000000  0.3948270000000  0.4311320000000 1.0
C      1  0.5118090000000  0.5937970000000  0.5423810000000 1.0
C      1  0.4795540000000  0.5149390000000  0.4456100000000 1.0
C      1  0.5560380000000  0.6001930000000  0.5211410000000 1.0
C      1  0.4360080000000  0.5342470000000  0.5115690000000 1.0
C      1  0.4025650000000  0.3914540000000  0.4637900000000 1.0
C      1  0.3965210000000  0.4469690000000  0.5377030000000 1.0
C      1  0.4277030000000  0.5881260000000  0.5564040000000 1.0
C      1  0.4004160000000  0.5230380000000  0.5415140000000 1.0
C      1  0.5792610000000  0.5342280000000  0.6015150000000 1.0
C      1  0.5823610000000  0.5154030000000  0.5229270000000 1.0
C      1  0.4054840000000  0.5598340000000  0.4581510000000 1.0
C      1  0.4442610000000  0.4027890000000  0.4459110000000 1.0
C      1  0.4625420000000  0.5288290000000  0.5884290000000 1.0
C      1  0.4410420000000  0.4601730000000  0.4264090000000 1.0
C      1  0.5873570000000  0.4937020000000  0.4754260000000 1.0
C      1  0.4878140000000  0.3874000000000  0.5135670000000 1.0
C      1  0.5091740000000  0.5229310000000  0.4959720000000 1.0
C      1  0.5425930000000  0.5533810000000  0.5297740000000 1.0
C      1  0.4984130000000  0.5058070000000  0.5631360000000 1.0
END
