TITL C-599890-3321-1106 11.4968838753802 125000 -375.421455364192 0 0 63 (C1) n - 1
REM
REM in /home/nfs/bkarasulu/CARBON/AIRSS/Generating-Clusters/TERSOFF/Only-C1/FIRE-HFTN
REM
REM
REM
REM
REM
REM ./C.cell (11c1c37f851c82e70ff6c80c92926a4b)
REM AIRSS Version 0.9.1 bugfix July 2018 build 013d7b7c2542+ Fri, 06 Jul 2018 19:26:36 +0100
REM compiler GCC version 9.2.1 20190827 (Red Hat 9.2.1-1)
REM options -cpp -mtune=generic -march=x86-64 -g -O0 -fpre-include=/usr/include/finclude/math-vector-fortran.h
REM seed -246359321 -1518162385 -1839235680 1413093804 312360727 -554973867 -1657821336 -1628710691 1895527939 1828441535 611542825 160853455 -650642308 1693713111 529971769 1346116223 2138747608 869279748 -1288687048 178813073 -735876317 -90108792 1635528497 1060199414 1337588618 113886770 2061327044 206793292 -1518277457 -645878194 392569550 331407200 64904049
REM
CELL 1.54180   50.00000   50.00000   50.00000   90.00000   90.00000   90.00000
LATT -1
SFAC C  
C      1  0.3578620000000  0.5001150000000  0.5314310000000 1.0
C      1  0.5175070000000  0.4512310000000  0.5728660000000 1.0
C      1  0.5444120000000  0.4883630000000  0.4362880000000 1.0
C      1  0.4630590000000  0.4869020000000  0.4569750000000 1.0
C      1  0.5658260000000  0.5378360000000  0.4494850000000 1.0
C      1  0.3632180000000  0.5613930000000  0.4896300000000 1.0
C      1  0.4107520000000  0.4931540000000  0.5221650000000 1.0
C      1  0.5876840000000  0.4681960000000  0.5553840000000 1.0
C      1  0.5995220000000  0.4836440000000  0.4825090000000 1.0
C      1  0.6095120000000  0.5326100000000  0.4952380000000 1.0
C      1  0.5434620000000  0.4340060000000  0.4844540000000 1.0
C      1  0.3516110000000  0.5432030000000  0.5073930000000 1.0
C      1  0.5262830000000  0.4731910000000  0.5582880000000 1.0
C      1  0.4797350000000  0.4423970000000  0.4622800000000 1.0
C      1  0.5680450000000  0.5576660000000  0.5471830000000 1.0
C      1  0.4862930000000  0.4153060000000  0.4621320000000 1.0
C      1  0.3533350000000  0.5867810000000  0.4873190000000 1.0
C      1  0.3415990000000  0.5225190000000  0.5230330000000 1.0
C      1  0.4258240000000  0.5255810000000  0.4553770000000 1.0
C      1  0.4885300000000  0.4783470000000  0.5272690000000 1.0
C      1  0.5618090000000  0.5544690000000  0.4273360000000 1.0
C      1  0.5346230000000  0.4910990000000  0.5130420000000 1.0
C      1  0.5506060000000  0.5434850000000  0.4739410000000 1.0
C      1  0.6006220000000  0.5068180000000  0.5006590000000 1.0
C      1  0.5573520000000  0.5702720000000  0.4065460000000 1.0
C      1  0.4449180000000  0.5073790000000  0.4529770000000 1.0
C      1  0.4578700000000  0.4587410000000  0.4535840000000 1.0
C      1  0.5251620000000  0.4560810000000  0.4827130000000 1.0
C      1  0.5038990000000  0.5145910000000  0.4718030000000 1.0
C      1  0.5092180000000  0.4303440000000  0.5860610000000 1.0
C      1  0.5814900000000  0.5001670000000  0.5206650000000 1.0
C      1  0.5944920000000  0.5545090000000  0.4907420000000 1.0
C      1  0.5463510000000  0.4908430000000  0.5674920000000 1.0
C      1  0.5662890000000  0.5564660000000  0.4948720000000 1.0
C      1  0.3848250000000  0.4978570000000  0.5249470000000 1.0
C      1  0.5678120000000  0.5338910000000  0.5623220000000 1.0
C      1  0.3445490000000  0.4803240000000  0.5470500000000 1.0
C      1  0.5958300000000  0.4930820000000  0.4560560000000 1.0
C      1  0.5848030000000  0.5148350000000  0.5770270000000 1.0
C      1  0.5159700000000  0.4795860000000  0.5320530000000 1.0
C      1  0.5870950000000  0.4717910000000  0.5271580000000 1.0
C      1  0.5602060000000  0.5634720000000  0.5217340000000 1.0
C      1  0.5482780000000  0.5154080000000  0.5514530000000 1.0
C      1  0.3144400000000  0.5220630000000  0.5316700000000 1.0
C      1  0.3183890000000  0.4812350000000  0.5544820000000 1.0
C      1  0.5751860000000  0.4865250000000  0.5738160000000 1.0
C      1  0.4995340000000  0.4613850000000  0.4719110000000 1.0
C      1  0.3850960000000  0.5532090000000  0.4742650000000 1.0
C      1  0.5892340000000  0.4605630000000  0.4993890000000 1.0
C      1  0.5238010000000  0.5329870000000  0.4752130000000 1.0
C      1  0.5467310000000  0.4907340000000  0.4623660000000 1.0
C      1  0.5845450000000  0.5163150000000  0.4474580000000 1.0
C      1  0.5706060000000  0.4406790000000  0.4908300000000 1.0
C      1  0.4365100000000  0.4869210000000  0.5227050000000 1.0
C      1  0.4057090000000  0.5411450000000  0.4628120000000 1.0
C      1  0.4901400000000  0.4898010000000  0.4676960000000 1.0
C      1  0.5085420000000  0.4015890000000  0.4686250000000 1.0
C      1  0.5327640000000  0.4088590000000  0.4779480000000 1.0
C      1  0.5529160000000  0.5858460000000  0.3861150000000 1.0
C      1  0.4622560000000  0.4812080000000  0.5253620000000 1.0
C      1  0.5380130000000  0.4809610000000  0.4870770000000 1.0
C      1  0.3031290000000  0.5024010000000  0.5466980000000 1.0
C      1  0.5543220000000  0.5076250000000  0.5246260000000 1.0
END
