TITL C-599893-4344-742 53.7913099255303 125000 -442.248621546613 0 0 74 (C1) n - 1
REM
REM in /home/nfs/bkarasulu/CARBON/AIRSS/Generating-Clusters/TERSOFF/Only-C1/FIRE-HFTN
REM
REM
REM
REM
REM
REM ./C.cell (11c1c37f851c82e70ff6c80c92926a4b)
REM AIRSS Version 0.9.1 bugfix July 2018 build 013d7b7c2542+ Fri, 06 Jul 2018 19:26:36 +0100
REM compiler GCC version 9.2.1 20190827 (Red Hat 9.2.1-1)
REM options -cpp -mtune=generic -march=x86-64 -g -O0 -fpre-include=/usr/include/finclude/math-vector-fortran.h
REM seed -2058455428 -2026902472 -1740402193 -569749187 1930295525 1118000749 -57748155 -542147794 170023510 1866633177 189383455 -2026661103 -1576674186 -688728022 -1956636537 -1306845414 -2013929962 16966076 842617775 1036458149 505396059 736757512 -104791948 -89553592 -728644621 -1942382760 401432611 1022301279 1469627224 1609025747 -226252656 -458571516 -798530761
REM
CELL 1.54180   50.00000   50.00000   50.00000   90.00000   90.00000   90.00000
LATT -1
SFAC C  
C      1  0.4248470000000  0.5229840000000  0.4318420000000 1.0
C      1  0.5453050000000  0.5390590000000  0.5793250000000 1.0
C      1  0.4894040000000  0.5113000000000  0.4270070000000 1.0
C      1  0.3594740000000  0.4814790000000  0.4730710000000 1.0
C      1  0.5486090000000  0.4287380000000  0.5388660000000 1.0
C      1  0.5653470000000  0.4974040000000  0.5639970000000 1.0
C      1  0.4958190000000  0.4097380000000  0.4982740000000 1.0
C      1  0.5356340000000  0.5070840000000  0.4337700000000 1.0
C      1  0.4892280000000  0.5247020000000  0.4848960000000 1.0
C      1  0.5635580000000  0.5196190000000  0.5214420000000 1.0
C      1  0.5114950000000  0.5182550000000  0.5005190000000 1.0
C      1  0.4834420000000  0.4746230000000  0.4885720000000 1.0
C      1  0.4014020000000  0.5114280000000  0.4271650000000 1.0
C      1  0.4816610000000  0.5544730000000  0.5719770000000 1.0
C      1  0.5063860000000  0.4642290000000  0.4991520000000 1.0
C      1  0.5745510000000  0.4522950000000  0.5079290000000 1.0
C      1  0.5392720000000  0.4765080000000  0.5957400000000 1.0
C      1  0.5110440000000  0.4628510000000  0.4368920000000 1.0
C      1  0.5229820000000  0.5715180000000  0.5124170000000 1.0
C      1  0.4273920000000  0.5024010000000  0.5376280000000 1.0
C      1  0.3578010000000  0.4855990000000  0.4454420000000 1.0
C      1  0.5827620000000  0.4888600000000  0.4494620000000 1.0
C      1  0.4974830000000  0.5397290000000  0.5878210000000 1.0
C      1  0.4741330000000  0.5664030000000  0.5491930000000 1.0
C      1  0.5457640000000  0.5546750000000  0.4442100000000 1.0
C      1  0.4459100000000  0.5311380000000  0.4483170000000 1.0
C      1  0.5433700000000  0.5617870000000  0.5296200000000 1.0
C      1  0.5398520000000  0.4986360000000  0.4602140000000 1.0
C      1  0.5420000000000  0.5579480000000  0.5579890000000 1.0
C      1  0.5338380000000  0.4508090000000  0.4505800000000 1.0
C      1  0.5062640000000  0.4797340000000  0.5570820000000 1.0
C      1  0.5029710000000  0.4105240000000  0.5242320000000 1.0
C      1  0.4033160000000  0.4915080000000  0.5346170000000 1.0
C      1  0.3354820000000  0.4767040000000  0.4312250000000 1.0
C      1  0.4795350000000  0.4859530000000  0.5541780000000 1.0
C      1  0.5594440000000  0.4678860000000  0.4901350000000 1.0
C      1  0.5231430000000  0.4979160000000  0.5422490000000 1.0
C      1  0.5301230000000  0.5026970000000  0.4867980000000 1.0
C      1  0.5040490000000  0.5136510000000  0.5271510000000 1.0
C      1  0.4916110000000  0.5536350000000  0.4501480000000 1.0
C      1  0.5155250000000  0.5239650000000  0.4248090000000 1.0
C      1  0.5180860000000  0.5501450000000  0.4375340000000 1.0
C      1  0.5827670000000  0.4590220000000  0.5344240000000 1.0
C      1  0.5222220000000  0.5269970000000  0.5922520000000 1.0
C      1  0.5832650000000  0.5165530000000  0.4460600000000 1.0
C      1  0.4928310000000  0.4825670000000  0.4301590000000 1.0
C      1  0.4727530000000  0.5329190000000  0.4385870000000 1.0
C      1  0.4760770000000  0.4994650000000  0.4798640000000 1.0
C      1  0.5680320000000  0.5214000000000  0.5790630000000 1.0
C      1  0.3786650000000  0.4986980000000  0.4321710000000 1.0
C      1  0.5226520000000  0.4178800000000  0.5411230000000 1.0
C      1  0.5691520000000  0.5401490000000  0.4455990000000 1.0
C      1  0.4963090000000  0.5690420000000  0.5023880000000 1.0
C      1  0.5600980000000  0.4269130000000  0.5110860000000 1.0
C      1  0.5646260000000  0.5473260000000  0.5169350000000 1.0
C      1  0.4402670000000  0.5344810000000  0.4760600000000 1.0
C      1  0.4901180000000  0.5530600000000  0.4789140000000 1.0
C      1  0.5505930000000  0.4178670000000  0.4859560000000 1.0
C      1  0.5323280000000  0.4757520000000  0.4982800000000 1.0
C      1  0.5052920000000  0.4167060000000  0.4738670000000 1.0
C      1  0.3823110000000  0.4840690000000  0.5201450000000 1.0
C      1  0.5509930000000  0.5026370000000  0.5399200000000 1.0
C      1  0.5629780000000  0.4502560000000  0.5547100000000 1.0
C      1  0.5259510000000  0.4999040000000  0.6014840000000 1.0
C      1  0.4497330000000  0.5147040000000  0.5256460000000 1.0
C      1  0.4757390000000  0.5078060000000  0.5352640000000 1.0
C      1  0.4770790000000  0.5721860000000  0.5230920000000 1.0
C      1  0.5586680000000  0.4744370000000  0.4603560000000 1.0
C      1  0.4435810000000  0.5296960000000  0.5023070000000 1.0
C      1  0.5309930000000  0.4270790000000  0.4670230000000 1.0
C      1  0.5845440000000  0.5595800000000  0.5029900000000 1.0
C      1  0.5579450000000  0.4710320000000  0.5744670000000 1.0
C      1  0.3674760000000  0.4808380000000  0.4983600000000 1.0
C      1  0.3146460000000  0.4683920000000  0.4179590000000 1.0
END
