TITL C-599894-471-811 3.33902265511224e-06 125000 -892.876970146549 0 0 146 (C1) n - 1
REM
REM in /home/nfs/bkarasulu/CARBON/AIRSS/Generating-Clusters/TERSOFF/Only-C1/FIRE-HFTN
REM
REM
REM
REM
REM
REM ./C.cell (11c1c37f851c82e70ff6c80c92926a4b)
REM AIRSS Version 0.9.1 bugfix July 2018 build 013d7b7c2542+ Fri, 06 Jul 2018 19:26:36 +0100
REM compiler GCC version 9.2.1 20190827 (Red Hat 9.2.1-1)
REM options -cpp -mtune=generic -march=x86-64 -g -O0 -fpre-include=/usr/include/finclude/math-vector-fortran.h
REM seed -785815592 179149539 397546354 257092647 -45510961 1472252335 -24320511 -1088460562 739537411 -1910942282 514295659 1486949900 736824126 1378185223 -1207704711 -705420076 -673271106 -1025754046 238716711 1031381708 1520811864 -1597255933 -2014382501 569737161 196570510 -827797262 -1424936024 555912596 1823558144 -1492270762 500758047 1560734199 30023460
REM
CELL 1.54180   50.00000   50.00000   50.00000   90.00000   90.00000   90.00000
LATT -1
SFAC C  
C      1  0.5843920000000  0.5896050000000  0.5198380000000 1.0
C      1  0.5654520000000  0.5048360000000  0.4013020000000 1.0
C      1  0.4498980000000  0.4447030000000  0.5252680000000 1.0
C      1  0.4575370000000  0.4756950000000  0.4901510000000 1.0
C      1  0.4172820000000  0.5010010000000  0.4432020000000 1.0
C      1  0.5110790000000  0.4458510000000  0.5164530000000 1.0
C      1  0.4663470000000  0.4601230000000  0.4684950000000 1.0
C      1  0.4304650000000  0.4930360000000  0.5751140000000 1.0
C      1  0.4939360000000  0.4350870000000  0.4112140000000 1.0
C      1  0.4381440000000  0.4240670000000  0.5096060000000 1.0
C      1  0.5553610000000  0.4612300000000  0.4185760000000 1.0
C      1  0.4517540000000  0.5113420000000  0.5679280000000 1.0
C      1  0.5994220000000  0.5798060000000  0.5427680000000 1.0
C      1  0.4664700000000  0.5751850000000  0.5902580000000 1.0
C      1  0.5274460000000  0.6014240000000  0.4668460000000 1.0
C      1  0.5325310000000  0.4635810000000  0.5229400000000 1.0
C      1  0.4280020000000  0.5910170000000  0.5055970000000 1.0
C      1  0.4861060000000  0.3727130000000  0.5354380000000 1.0
C      1  0.5917690000000  0.5262910000000  0.4818420000000 1.0
C      1  0.4776460000000  0.5430660000000  0.4355730000000 1.0
C      1  0.3979540000000  0.5157960000000  0.5115870000000 1.0
C      1  0.4493440000000  0.5367900000000  0.4291420000000 1.0
C      1  0.4749640000000  0.5891760000000  0.5220680000000 1.0
C      1  0.4975550000000  0.5321830000000  0.5665890000000 1.0
C      1  0.5258320000000  0.5300390000000  0.5749600000000 1.0
C      1  0.4811110000000  0.4410810000000  0.5872900000000 1.0
C      1  0.4548360000000  0.4673540000000  0.4441500000000 1.0
C      1  0.5178550000000  0.5717530000000  0.5976060000000 1.0
C      1  0.5302190000000  0.5666290000000  0.4060540000000 1.0
C      1  0.5862950000000  0.4641300000000  0.5705700000000 1.0
C      1  0.5429980000000  0.5545740000000  0.5257190000000 1.0
C      1  0.4776500000000  0.5092520000000  0.5256210000000 1.0
C      1  0.4761040000000  0.5072830000000  0.4655590000000 1.0
C      1  0.5812760000000  0.4702640000000  0.5242640000000 1.0
C      1  0.4389100000000  0.4626520000000  0.5752680000000 1.0
C      1  0.4319810000000  0.4939440000000  0.5294310000000 1.0
C      1  0.5756170000000  0.4404970000000  0.4588640000000 1.0
C      1  0.5493040000000  0.5061160000000  0.5401830000000 1.0
C      1  0.5526620000000  0.4098880000000  0.4981110000000 1.0
C      1  0.4193630000000  0.5858440000000  0.4802760000000 1.0
C      1  0.4931080000000  0.4600460000000  0.3963780000000 1.0
C      1  0.5236030000000  0.4769660000000  0.5739200000000 1.0
C      1  0.4648900000000  0.4660170000000  0.5150160000000 1.0
C      1  0.4950910000000  0.5296140000000  0.5166660000000 1.0
C      1  0.5460340000000  0.4344940000000  0.4228880000000 1.0
C      1  0.5470650000000  0.5964090000000  0.4464810000000 1.0
C      1  0.5287200000000  0.5100200000000  0.4795940000000 1.0
C      1  0.5208420000000  0.4091470000000  0.5472050000000 1.0
C      1  0.4582730000000  0.4871600000000  0.4240990000000 1.0
C      1  0.4532880000000  0.4431150000000  0.5525320000000 1.0
C      1  0.5433210000000  0.5159500000000  0.3877400000000 1.0
C      1  0.5465410000000  0.5821870000000  0.4233540000000 1.0
C      1  0.5141840000000  0.4103520000000  0.4490700000000 1.0
C      1  0.4101920000000  0.4718160000000  0.4500890000000 1.0
C      1  0.4516580000000  0.5159240000000  0.5385090000000 1.0
C      1  0.4864700000000  0.4181940000000  0.4541730000000 1.0
C      1  0.4465130000000  0.5859680000000  0.5273290000000 1.0
C      1  0.4404830000000  0.5091460000000  0.4276070000000 1.0
C      1  0.5084740000000  0.3824310000000  0.5467060000000 1.0
C      1  0.5081840000000  0.5335450000000  0.4861260000000 1.0
C      1  0.5810880000000  0.4414200000000  0.5211670000000 1.0
C      1  0.5593510000000  0.4213160000000  0.4453960000000 1.0
C      1  0.5385390000000  0.4492500000000  0.5760220000000 1.0
C      1  0.5100130000000  0.4834820000000  0.6003020000000 1.0
C      1  0.4846210000000  0.4393130000000  0.4731540000000 1.0
C      1  0.4640510000000  0.3793450000000  0.5219020000000 1.0
C      1  0.4363210000000  0.5292420000000  0.4833700000000 1.0
C      1  0.4608030000000  0.5512950000000  0.4778970000000 1.0
C      1  0.4836050000000  0.4820330000000  0.5298740000000 1.0
C      1  0.5558260000000  0.4585740000000  0.4690290000000 1.0
C      1  0.5948170000000  0.4299100000000  0.4761060000000 1.0
C      1  0.5644560000000  0.4880340000000  0.4240410000000 1.0
C      1  0.4042130000000  0.4995250000000  0.5636310000000 1.0
C      1  0.4721300000000  0.4780810000000  0.4019620000000 1.0
C      1  0.3970740000000  0.4737180000000  0.4778130000000 1.0
C      1  0.5797520000000  0.4236440000000  0.4990410000000 1.0
C      1  0.5645680000000  0.5023500000000  0.4487950000000 1.0
C      1  0.5371920000000  0.5042010000000  0.5660320000000 1.0
C      1  0.4773730000000  0.5135550000000  0.5799270000000 1.0
C      1  0.6212830000000  0.4264940000000  0.4719560000000 1.0
C      1  0.5227680000000  0.4835300000000  0.6243180000000 1.0
C      1  0.4038980000000  0.5003490000000  0.5349660000000 1.0
C      1  0.5137020000000  0.4725080000000  0.3814800000000 1.0
C      1  0.5294220000000  0.4571190000000  0.4742360000000 1.0
C      1  0.4691240000000  0.5795050000000  0.4730950000000 1.0
C      1  0.5024590000000  0.5737190000000  0.4052610000000 1.0
C      1  0.4870750000000  0.5690680000000  0.4284770000000 1.0
C      1  0.5664530000000  0.4288120000000  0.5427860000000 1.0
C      1  0.5074590000000  0.4457440000000  0.4883560000000 1.0
C      1  0.5767160000000  0.5023810000000  0.4758830000000 1.0
C      1  0.5588680000000  0.5321150000000  0.5346200000000 1.0
C      1  0.4305420000000  0.5576360000000  0.4366010000000 1.0
C      1  0.5013750000000  0.4761170000000  0.5513730000000 1.0
C      1  0.5653270000000  0.4453050000000  0.5667860000000 1.0
C      1  0.4543320000000  0.5026840000000  0.4831720000000 1.0
C      1  0.5456580000000  0.4113870000000  0.5290930000000 1.0
C      1  0.4204090000000  0.5356050000000  0.5089120000000 1.0
C      1  0.5589790000000  0.5729520000000  0.5707110000000 1.0
C      1  0.4103050000000  0.4501020000000  0.5719350000000 1.0
C      1  0.5379850000000  0.5432530000000  0.3922520000000 1.0
C      1  0.5256010000000  0.4963940000000  0.3774970000000 1.0
C      1  0.4829200000000  0.5881190000000  0.4492640000000 1.0
C      1  0.4204160000000  0.5743490000000  0.4556120000000 1.0
C      1  0.4476820000000  0.5688890000000  0.5722250000000 1.0
C      1  0.4916480000000  0.5773800000000  0.5991210000000 1.0
C      1  0.5539990000000  0.4842760000000  0.5199340000000 1.0
C      1  0.5526550000000  0.5976820000000  0.5568480000000 1.0
C      1  0.4847000000000  0.5352140000000  0.4647610000000 1.0
C      1  0.5430500000000  0.5211620000000  0.4544360000000 1.0
C      1  0.3874950000000  0.4527790000000  0.5243460000000 1.0
C      1  0.5270100000000  0.4222420000000  0.5746190000000 1.0
C      1  0.5848180000000  0.5628110000000  0.5608840000000 1.0
C      1  0.5268740000000  0.5566550000000  0.4783930000000 1.0
C      1  0.4795690000000  0.4337020000000  0.5594130000000 1.0
C      1  0.4913950000000  0.5847380000000  0.3828270000000 1.0
C      1  0.4121460000000  0.5173340000000  0.4663320000000 1.0
C      1  0.4755970000000  0.5961030000000  0.4948790000000 1.0
C      1  0.4654550000000  0.4653330000000  0.5936660000000 1.0
C      1  0.4422850000000  0.4278090000000  0.4290980000000 1.0
C      1  0.4405470000000  0.5650580000000  0.5452960000000 1.0
C      1  0.4999530000000  0.4295470000000  0.5380670000000 1.0
C      1  0.6180920000000  0.5256660000000  0.4890120000000 1.0
C      1  0.4302660000000  0.4522500000000  0.4398100000000 1.0
C      1  0.3974490000000  0.4524460000000  0.4974550000000 1.0
C      1  0.5190810000000  0.4248850000000  0.4225460000000 1.0
C      1  0.4715220000000  0.4237440000000  0.4285940000000 1.0
C      1  0.5947840000000  0.4778290000000  0.5484470000000 1.0
C      1  0.5260930000000  0.5828490000000  0.4893670000000 1.0
C      1  0.4824410000000  0.4895680000000  0.5960380000000 1.0
C      1  0.5243360000000  0.5765480000000  0.5179230000000 1.0
C      1  0.4955350000000  0.5472760000000  0.5403130000000 1.0
C      1  0.5371420000000  0.5566510000000  0.5826650000000 1.0
C      1  0.5827770000000  0.5740290000000  0.4957700000000 1.0
C      1  0.5822820000000  0.5373620000000  0.5495800000000 1.0
C      1  0.4162070000000  0.4315040000000  0.4936750000000 1.0
C      1  0.5630460000000  0.6049060000000  0.5322520000000 1.0
C      1  0.5764870000000  0.5510190000000  0.4794030000000 1.0
C      1  0.4366120000000  0.5406130000000  0.5318650000000 1.0
C      1  0.5509940000000  0.5475880000000  0.4653280000000 1.0
C      1  0.5400640000000  0.4082790000000  0.4651590000000 1.0
C      1  0.4476140000000  0.3978350000000  0.5119530000000 1.0
C      1  0.5023420000000  0.6080510000000  0.4550040000000 1.0
C      1  0.4982600000000  0.5746970000000  0.5315550000000 1.0
C      1  0.3935030000000  0.4484840000000  0.5505010000000 1.0
C      1  0.5523320000000  0.4979500000000  0.4933220000000 1.0
C      1  0.3951880000000  0.5023180000000  0.4860080000000 1.0
END
