TITL C-599891-72-1096 1067.32034018575 125000 -958.779595037706 0 0 158 (C1) n - 1
REM
REM in /home/nfs/bkarasulu/CARBON/AIRSS/Generating-Clusters/TERSOFF/Only-C1/FIRE-HFTN
REM
REM
REM
REM
REM
REM ./C.cell (11c1c37f851c82e70ff6c80c92926a4b)
REM AIRSS Version 0.9.1 bugfix July 2018 build 013d7b7c2542+ Fri, 06 Jul 2018 19:26:36 +0100
REM compiler GCC version 9.2.1 20190827 (Red Hat 9.2.1-1)
REM options -cpp -mtune=generic -march=x86-64 -g -O0 -fpre-include=/usr/include/finclude/math-vector-fortran.h
REM seed 1712710947 1140248698 1504180879 -1296360861 -1500863085 -970362523 -117007804 -1814055676 -1457676561 -1580498417 -1681255478 -1882605053 917754016 1681307292 1200446635 -1447630796 -287256953 -42848379 -424024775 -2009739809 -1870031001 -1384004005 -1445829132 -2102129049 -402817833 -382225716 1422681026 -811586501 292906965 -2131829535 966305561 111448312 -1840165805
REM
CELL 1.54180   50.00000   50.00000   50.00000   90.00000   90.00000   90.00000
LATT -1
SFAC C  
C      1  0.5527210000000  0.5078620000000  0.4196510000000 1.0
C      1  0.4514570000000  0.4732350000000  0.5022480000000 1.0
C      1  0.5589570000000  0.4435310000000  0.5775920000000 1.0
C      1  0.4582060000000  0.5118840000000  0.4111980000000 1.0
C      1  0.4266440000000  0.6158760000000  0.4901820000000 1.0
C      1  0.5558370000000  0.4089010000000  0.5491920000000 1.0
C      1  0.4073040000000  0.5784330000000  0.5158400000000 1.0
C      1  0.5538500000000  0.5403730000000  0.5667400000000 1.0
C      1  0.4675350000000  0.4912690000000  0.6060880000000 1.0
C      1  0.5008560000000  0.4459730000000  0.4666440000000 1.0
C      1  0.4910180000000  0.5393660000000  0.4707870000000 1.0
C      1  0.5769370000000  0.4653790000000  0.4403680000000 1.0
C      1  0.4766050000000  0.4430300000000  0.5873520000000 1.0
C      1  0.4351060000000  0.4540990000000  0.4421120000000 1.0
C      1  0.4119090000000  0.4947700000000  0.4772360000000 1.0
C      1  0.4490610000000  0.4156360000000  0.5094410000000 1.0
C      1  0.3882380000000  0.4155970000000  0.5577230000000 1.0
C      1  0.5433240000000  0.4466350000000  0.4895930000000 1.0
C      1  0.5124860000000  0.4215670000000  0.5336300000000 1.0
C      1  0.4587700000000  0.4705980000000  0.4429410000000 1.0
C      1  0.4713620000000  0.4181680000000  0.4047460000000 1.0
C      1  0.4855430000000  0.5402410000000  0.5934530000000 1.0
C      1  0.4654110000000  0.5405180000000  0.4798910000000 1.0
C      1  0.5175430000000  0.4858890000000  0.4874870000000 1.0
C      1  0.5368740000000  0.5403160000000  0.4790240000000 1.0
C      1  0.5390980000000  0.5207940000000  0.5204650000000 1.0
C      1  0.5274270000000  0.5796170000000  0.5583360000000 1.0
C      1  0.3980180000000  0.4169140000000  0.5323550000000 1.0
C      1  0.5919020000000  0.5431650000000  0.5172170000000 1.0
C      1  0.5932500000000  0.4309410000000  0.5065790000000 1.0
C      1  0.5714290000000  0.4986050000000  0.4862140000000 1.0
C      1  0.5739360000000  0.4307720000000  0.5548550000000 1.0
C      1  0.4306040000000  0.5380510000000  0.5595780000000 1.0
C      1  0.4774700000000  0.5823270000000  0.4420560000000 1.0
C      1  0.5923610000000  0.5599940000000  0.4494580000000 1.0
C      1  0.5054830000000  0.4437170000000  0.5906940000000 1.0
C      1  0.4585400000000  0.4669280000000  0.5919490000000 1.0
C      1  0.4198230000000  0.5047820000000  0.4502490000000 1.0
C      1  0.4306020000000  0.5923860000000  0.4496610000000 1.0
C      1  0.5960850000000  0.5361020000000  0.4643390000000 1.0
C      1  0.5429650000000  0.5505700000000  0.4018200000000 1.0
C      1  0.4989290000000  0.5230960000000  0.4493420000000 1.0
C      1  0.4716960000000  0.5634530000000  0.5831460000000 1.0
C      1  0.4669080000000  0.4887140000000  0.4626710000000 1.0
C      1  0.5011950000000  0.5564960000000  0.5167260000000 1.0
C      1  0.5801170000000  0.5504710000000  0.5756730000000 1.0
C      1  0.5084880000000  0.4644960000000  0.3770840000000 1.0
C      1  0.5345940000000  0.5322230000000  0.3830490000000 1.0
C      1  0.4387510000000  0.6165820000000  0.4636330000000 1.0
C      1  0.4950940000000  0.4428170000000  0.5276440000000 1.0
C      1  0.4887470000000  0.5016890000000  0.5651970000000 1.0
C      1  0.5104760000000  0.5486200000000  0.4891350000000 1.0
C      1  0.6035950000000  0.5599390000000  0.5834430000000 1.0
C      1  0.5042930000000  0.5212500000000  0.5533740000000 1.0
C      1  0.5493990000000  0.5373060000000  0.4264310000000 1.0
C      1  0.5128950000000  0.5066940000000  0.6143010000000 1.0
C      1  0.5440690000000  0.5458040000000  0.4524810000000 1.0
C      1  0.6123640000000  0.4783810000000  0.5112250000000 1.0
C      1  0.5062940000000  0.6049300000000  0.4791360000000 1.0
C      1  0.4080540000000  0.5237590000000  0.5629530000000 1.0
C      1  0.5306180000000  0.5578960000000  0.5768850000000 1.0
C      1  0.5824450000000  0.5102530000000  0.4597420000000 1.0
C      1  0.5115140000000  0.5139040000000  0.5259690000000 1.0
C      1  0.5287900000000  0.4168660000000  0.5559350000000 1.0
C      1  0.5386670000000  0.4174680000000  0.4936140000000 1.0
C      1  0.5484310000000  0.5449100000000  0.5355810000000 1.0
C      1  0.5185020000000  0.4059010000000  0.5110390000000 1.0
C      1  0.3991480000000  0.4987410000000  0.5529190000000 1.0
C      1  0.5075490000000  0.4998130000000  0.4394500000000 1.0
C      1  0.4107690000000  0.4767280000000  0.5674700000000 1.0
C      1  0.4700170000000  0.3971680000000  0.5230880000000 1.0
C      1  0.5810320000000  0.4922010000000  0.5453480000000 1.0
C      1  0.4529400000000  0.4806160000000  0.5474130000000 1.0
C      1  0.5895230000000  0.4418430000000  0.5335090000000 1.0
C      1  0.4312880000000  0.4326570000000  0.4240330000000 1.0
C      1  0.5084220000000  0.5398410000000  0.5752650000000 1.0
C      1  0.5731740000000  0.4946260000000  0.4370000000000 1.0
C      1  0.4936240000000  0.4146540000000  0.3867500000000 1.0
C      1  0.4657550000000  0.6241190000000  0.4601080000000 1.0
C      1  0.4386990000000  0.4721320000000  0.5705390000000 1.0
C      1  0.3893090000000  0.4179320000000  0.4838330000000 1.0
C      1  0.5056050000000  0.4731720000000  0.4299500000000 1.0
C      1  0.4932330000000  0.3927080000000  0.5048880000000 1.0
C      1  0.4807740000000  0.5041350000000  0.3964480000000 1.0
C      1  0.3941280000000  0.5021860000000  0.4985920000000 1.0
C      1  0.4733960000000  0.4897310000000  0.4901540000000 1.0
C      1  0.5978470000000  0.4690680000000  0.5352600000000 1.0
C      1  0.5697660000000  0.5611700000000  0.5213860000000 1.0
C      1  0.4451900000000  0.5469110000000  0.5344850000000 1.0
C      1  0.4872060000000  0.4015920000000  0.4786840000000 1.0
C      1  0.4233570000000  0.5494660000000  0.4680220000000 1.0
C      1  0.4144820000000  0.4240260000000  0.4732520000000 1.0
C      1  0.5300620000000  0.4355430000000  0.5787650000000 1.0
C      1  0.4364960000000  0.4069360000000  0.4753800000000 1.0
C      1  0.4087180000000  0.5923370000000  0.4914330000000 1.0
C      1  0.4460150000000  0.5999800000000  0.5326220000000 1.0
C      1  0.5305950000000  0.4750910000000  0.5462410000000 1.0
C      1  0.5898630000000  0.5157310000000  0.5280980000000 1.0
C      1  0.6269980000000  0.5692580000000  0.5901470000000 1.0
C      1  0.5283970000000  0.4567290000000  0.4268260000000 1.0
C      1  0.4499340000000  0.4105480000000  0.4242870000000 1.0
C      1  0.4855660000000  0.5143290000000  0.6084520000000 1.0
C      1  0.5491590000000  0.5112970000000  0.5758150000000 1.0
C      1  0.5362150000000  0.5058070000000  0.6005770000000 1.0
C      1  0.6042630000000  0.5427830000000  0.4913230000000 1.0
C      1  0.5234320000000  0.5633400000000  0.5337290000000 1.0
C      1  0.5720150000000  0.5922410000000  0.4826240000000 1.0
C      1  0.5966310000000  0.4520310000000  0.4585640000000 1.0
C      1  0.4694290000000  0.6333550000000  0.5122790000000 1.0
C      1  0.4900310000000  0.6159170000000  0.5240220000000 1.0
C      1  0.5540820000000  0.4906980000000  0.5561030000000 1.0
C      1  0.4824850000000  0.4302500000000  0.4791400000000 1.0
C      1  0.6292580000000  0.4696400000000  0.4906940000000 1.0
C      1  0.6215720000000  0.4641510000000  0.4652020000000 1.0
C      1  0.5326820000000  0.5051990000000  0.3948380000000 1.0
C      1  0.4133020000000  0.5766190000000  0.4680040000000 1.0
C      1  0.4697230000000  0.4016610000000  0.5518330000000 1.0
C      1  0.4734450000000  0.5994880000000  0.5432540000000 1.0
C      1  0.5536100000000  0.4003640000000  0.4767770000000 1.0
C      1  0.4863430000000  0.6042120000000  0.4587340000000 1.0
C      1  0.4755990000000  0.3870370000000  0.4581270000000 1.0
C      1  0.5026740000000  0.4662300000000  0.5402670000000 1.0
C      1  0.5071900000000  0.4914380000000  0.3882270000000 1.0
C      1  0.4675900000000  0.4413440000000  0.5046570000000 1.0
C      1  0.4980540000000  0.4988750000000  0.5035460000000 1.0
C      1  0.5208460000000  0.4599950000000  0.4788970000000 1.0
C      1  0.5781410000000  0.4066640000000  0.4675870000000 1.0
C      1  0.5626210000000  0.4686680000000  0.4905410000000 1.0
C      1  0.4505380000000  0.3976930000000  0.4508330000000 1.0
C      1  0.4678610000000  0.4198180000000  0.5721780000000 1.0
C      1  0.4383230000000  0.5199990000000  0.4317820000000 1.0
C      1  0.5829720000000  0.5832600000000  0.4597690000000 1.0
C      1  0.4314300000000  0.5752660000000  0.5299990000000 1.0
C      1  0.4791110000000  0.4640760000000  0.4248120000000 1.0
C      1  0.5611730000000  0.5865980000000  0.5082400000000 1.0
C      1  0.4757950000000  0.5551460000000  0.5335300000000 1.0
C      1  0.4502810000000  0.5739390000000  0.4377430000000 1.0
C      1  0.4704760000000  0.4471230000000  0.4049640000000 1.0
C      1  0.5394310000000  0.6038440000000  0.5190250000000 1.0
C      1  0.4768460000000  0.5744790000000  0.5567550000000 1.0
C      1  0.5130380000000  0.6092200000000  0.5068070000000 1.0
C      1  0.5380580000000  0.6036760000000  0.5479840000000 1.0
C      1  0.4807290000000  0.4802910000000  0.5507180000000 1.0
C      1  0.5544120000000  0.4511850000000  0.4304680000000 1.0
C      1  0.4431460000000  0.6211700000000  0.5126200000000 1.0
C      1  0.3815860000000  0.4155350000000  0.5094860000000 1.0
C      1  0.5958540000000  0.5004370000000  0.5040120000000 1.0
C      1  0.4254340000000  0.4194770000000  0.5266080000000 1.0
C      1  0.5065180000000  0.4371020000000  0.3764970000000 1.0
C      1  0.3903740000000  0.4985700000000  0.5254650000000 1.0
C      1  0.5913660000000  0.4297020000000  0.4771920000000 1.0
C      1  0.4394960000000  0.5233320000000  0.5151390000000 1.0
C      1  0.4266790000000  0.4711290000000  0.4847540000000 1.0
C      1  0.4222660000000  0.4502060000000  0.4668790000000 1.0
C      1  0.4382580000000  0.5472530000000  0.4413910000000 1.0
C      1  0.5494210000000  0.5190620000000  0.4940730000000 1.0
C      1  0.4390700000000  0.5359300000000  0.4886360000000 1.0
C      1  0.4433240000000  0.4937340000000  0.5237970000000 1.0
END
