TITL C-599897-7526-672 4.25399664193683e-05 125000 -819.81949320697 0 0 132 (C1) n - 1
REM
REM in /home/nfs/bkarasulu/CARBON/AIRSS/Generating-Clusters/TERSOFF/Only-C1/FIRE-HFTN
REM
REM
REM
REM
REM
REM ./C.cell (11c1c37f851c82e70ff6c80c92926a4b)
REM AIRSS Version 0.9.1 bugfix July 2018 build 013d7b7c2542+ Fri, 06 Jul 2018 19:26:36 +0100
REM compiler GCC version 9.2.1 20190827 (Red Hat 9.2.1-1)
REM options -cpp -mtune=generic -march=x86-64 -g -O0 -fpre-include=/usr/include/finclude/math-vector-fortran.h
REM seed 1063217344 -2116012333 429961990 521750595 -2091515693 1274880293 -1270678776 -1033563660 -198361562 -1723664247 -1594460640 -79558793 1510460477 2074564016 -850566808 -292971790 493650895 1647379 1045159799 600012323 1275695496 -1872942579 -1665711343 -382498410 1365049908 -1651977750 161807644 1641521531 -1008531339 1850073867 282894039 -902446780 300246275
REM
CELL 1.54180   50.00000   50.00000   50.00000   90.00000   90.00000   90.00000
LATT -1
SFAC C  
C      1  0.4438460000000  0.5890940000000  0.5535440000000 1.0
C      1  0.3850210000000  0.4758950000000  0.4856990000000 1.0
C      1  0.5584580000000  0.5589990000000  0.4466110000000 1.0
C      1  0.5448450000000  0.5826430000000  0.4350590000000 1.0
C      1  0.5596530000000  0.5707720000000  0.5754660000000 1.0
C      1  0.5696130000000  0.4656120000000  0.4544920000000 1.0
C      1  0.4162200000000  0.4624610000000  0.4173580000000 1.0
C      1  0.4102770000000  0.5484860000000  0.4800790000000 1.0
C      1  0.5064130000000  0.4520820000000  0.5594530000000 1.0
C      1  0.4830480000000  0.4263780000000  0.4972260000000 1.0
C      1  0.4010630000000  0.4560450000000  0.4722500000000 1.0
C      1  0.4939550000000  0.5817890000000  0.4343420000000 1.0
C      1  0.5198110000000  0.3974280000000  0.4893240000000 1.0
C      1  0.4134300000000  0.5328260000000  0.4300770000000 1.0
C      1  0.5476310000000  0.4646650000000  0.5839490000000 1.0
C      1  0.4679620000000  0.5134700000000  0.4451040000000 1.0
C      1  0.5577690000000  0.5091230000000  0.4255470000000 1.0
C      1  0.5600680000000  0.4136490000000  0.5121910000000 1.0
C      1  0.4930360000000  0.5186650000000  0.6264910000000 1.0
C      1  0.5722590000000  0.4955000000000  0.4493930000000 1.0
C      1  0.4705690000000  0.4801970000000  0.5446740000000 1.0
C      1  0.5390370000000  0.5091560000000  0.6020840000000 1.0
C      1  0.5492270000000  0.4416180000000  0.4165310000000 1.0
C      1  0.4704220000000  0.5316300000000  0.6191080000000 1.0
C      1  0.4229650000000  0.4912710000000  0.4508280000000 1.0
C      1  0.5374210000000  0.5264230000000  0.5799320000000 1.0
C      1  0.5182470000000  0.5108440000000  0.6209940000000 1.0
C      1  0.5744920000000  0.5822240000000  0.5008530000000 1.0
C      1  0.5582310000000  0.4890550000000  0.5953590000000 1.0
C      1  0.5337290000000  0.4351310000000  0.4636630000000 1.0
C      1  0.4607050000000  0.4198790000000  0.4475910000000 1.0
C      1  0.4830500000000  0.4775520000000  0.4896540000000 1.0
C      1  0.4483610000000  0.5175130000000  0.5249440000000 1.0
C      1  0.5022930000000  0.5180670000000  0.5499060000000 1.0
C      1  0.4968520000000  0.3937990000000  0.4272390000000 1.0
C      1  0.5341500000000  0.4007380000000  0.5144500000000 1.0
C      1  0.5255690000000  0.4638840000000  0.5097580000000 1.0
C      1  0.4386210000000  0.5523170000000  0.5828660000000 1.0
C      1  0.5006620000000  0.5274740000000  0.4866430000000 1.0
C      1  0.4485280000000  0.4816170000000  0.5925920000000 1.0
C      1  0.5381220000000  0.4991050000000  0.4035720000000 1.0
C      1  0.5283720000000  0.4069600000000  0.4637940000000 1.0
C      1  0.5486920000000  0.5049340000000  0.5144660000000 1.0
C      1  0.5986500000000  0.5705140000000  0.5097060000000 1.0
C      1  0.4307420000000  0.4790710000000  0.4002030000000 1.0
C      1  0.5207690000000  0.5368140000000  0.4686430000000 1.0
C      1  0.4112690000000  0.5563050000000  0.5079600000000 1.0
C      1  0.5163520000000  0.4006280000000  0.5372670000000 1.0
C      1  0.4369930000000  0.4959390000000  0.5719680000000 1.0
C      1  0.5123120000000  0.5293720000000  0.4423160000000 1.0
C      1  0.4713750000000  0.4646530000000  0.5907880000000 1.0
C      1  0.4639510000000  0.5477750000000  0.5967280000000 1.0
C      1  0.5402840000000  0.5548130000000  0.5191630000000 1.0
C      1  0.4744110000000  0.4501650000000  0.4854020000000 1.0
C      1  0.4791610000000  0.6013060000000  0.5207520000000 1.0
C      1  0.4137490000000  0.4373200000000  0.4897810000000 1.0
C      1  0.4772650000000  0.4583640000000  0.5627760000000 1.0
C      1  0.5198630000000  0.3927500000000  0.4411530000000 1.0
C      1  0.5627820000000  0.4566520000000  0.5613010000000 1.0
C      1  0.5934270000000  0.5144900000000  0.5625390000000 1.0
C      1  0.5920880000000  0.5379730000000  0.5459730000000 1.0
C      1  0.5786730000000  0.5596030000000  0.5598980000000 1.0
C      1  0.4483500000000  0.4976180000000  0.5456340000000 1.0
C      1  0.5018710000000  0.4996480000000  0.4918040000000 1.0
C      1  0.5644000000000  0.4377530000000  0.4970180000000 1.0
C      1  0.4966120000000  0.4919840000000  0.5395250000000 1.0
C      1  0.4278880000000  0.5660180000000  0.5594020000000 1.0
C      1  0.4900930000000  0.4018270000000  0.5452260000000 1.0
C      1  0.4949410000000  0.5078660000000  0.4406070000000 1.0
C      1  0.5501030000000  0.4479080000000  0.4436790000000 1.0
C      1  0.5273250000000  0.4913420000000  0.5012050000000 1.0
C      1  0.4369740000000  0.5270110000000  0.4130380000000 1.0
C      1  0.4877740000000  0.5539290000000  0.5815940000000 1.0
C      1  0.4803940000000  0.5716540000000  0.4804950000000 1.0
C      1  0.4733540000000  0.5560510000000  0.5369020000000 1.0
C      1  0.4639290000000  0.5399080000000  0.5156710000000 1.0
C      1  0.5533290000000  0.5382440000000  0.4263030000000 1.0
C      1  0.3843540000000  0.5028360000000  0.4892040000000 1.0
C      1  0.4509820000000  0.4913440000000  0.4495450000000 1.0
C      1  0.5796390000000  0.4572490000000  0.4814910000000 1.0
C      1  0.5070370000000  0.4359850000000  0.3920260000000 1.0
C      1  0.4916640000000  0.3997570000000  0.4920580000000 1.0
C      1  0.4673910000000  0.5840160000000  0.5391470000000 1.0
C      1  0.4769000000000  0.5031920000000  0.3868680000000 1.0
C      1  0.5728920000000  0.4695280000000  0.5400440000000 1.0
C      1  0.5989720000000  0.5426130000000  0.5170730000000 1.0
C      1  0.4058930000000  0.5133990000000  0.4485980000000 1.0
C      1  0.4137590000000  0.5572630000000  0.5353970000000 1.0
C      1  0.4975450000000  0.4612820000000  0.6035470000000 1.0
C      1  0.5635460000000  0.6055240000000  0.5130820000000 1.0
C      1  0.4426820000000  0.4169390000000  0.5305290000000 1.0
C      1  0.5868340000000  0.5049880000000  0.4757870000000 1.0
C      1  0.5303010000000  0.5779030000000  0.5326770000000 1.0
C      1  0.4607950000000  0.4448750000000  0.4610450000000 1.0
C      1  0.3967140000000  0.5232330000000  0.4740610000000 1.0
C      1  0.5415370000000  0.6025990000000  0.5290650000000 1.0
C      1  0.5426710000000  0.5284470000000  0.5292060000000 1.0
C      1  0.4868390000000  0.4384140000000  0.4114280000000 1.0
C      1  0.5364550000000  0.4460690000000  0.4907490000000 1.0
C      1  0.4832070000000  0.4634380000000  0.4246030000000 1.0
C      1  0.5200780000000  0.4565950000000  0.5851110000000 1.0
C      1  0.4738350000000  0.5745010000000  0.4531340000000 1.0
C      1  0.5715870000000  0.4876880000000  0.5186370000000 1.0
C      1  0.5107770000000  0.5688510000000  0.5886900000000 1.0
C      1  0.5084590000000  0.4954120000000  0.3985490000000 1.0
C      1  0.4628230000000  0.3974320000000  0.5364660000000 1.0
C      1  0.4872800000000  0.5415400000000  0.5562130000000 1.0
C      1  0.5969910000000  0.5261200000000  0.4929740000000 1.0
C      1  0.4750010000000  0.3773020000000  0.4957380000000 1.0
C      1  0.4468130000000  0.5036780000000  0.3965730000000 1.0
C      1  0.4611550000000  0.3748300000000  0.5189660000000 1.0
C      1  0.4244620000000  0.5575710000000  0.4551120000000 1.0
C      1  0.5370480000000  0.5798620000000  0.5903960000000 1.0
C      1  0.5191480000000  0.5737990000000  0.4242500000000 1.0
C      1  0.5823240000000  0.4997960000000  0.5827350000000 1.0
C      1  0.5241910000000  0.5447600000000  0.4213850000000 1.0
C      1  0.4261890000000  0.4278120000000  0.5118930000000 1.0
C      1  0.4624970000000  0.4662840000000  0.4434710000000 1.0
C      1  0.5137630000000  0.4670500000000  0.5358500000000 1.0
C      1  0.5542470000000  0.5621940000000  0.4954860000000 1.0
C      1  0.5000750000000  0.4856700000000  0.4240140000000 1.0
C      1  0.4855150000000  0.5946410000000  0.4956140000000 1.0
C      1  0.5457500000000  0.5514270000000  0.4713830000000 1.0
C      1  0.4110500000000  0.4652970000000  0.4461580000000 1.0
C      1  0.5855350000000  0.4819450000000  0.4945570000000 1.0
C      1  0.5409080000000  0.6008550000000  0.6077260000000 1.0
C      1  0.4782640000000  0.4148800000000  0.4257470000000 1.0
C      1  0.5296820000000  0.5235950000000  0.5535230000000 1.0
C      1  0.4576360000000  0.5357730000000  0.4312650000000 1.0
C      1  0.5336690000000  0.4369770000000  0.3953110000000 1.0
C      1  0.4511550000000  0.5596150000000  0.4458870000000 1.0
C      1  0.4793390000000  0.5451140000000  0.4923860000000 1.0
END
