TITL C-599895-9959-721 2738.18941610721 125000 -390.248175401635 0 0 67 (C1) n - 1
REM
REM in /home/nfs/bkarasulu/CARBON/AIRSS/Generating-Clusters/TERSOFF/Only-C1/FIRE-HFTN
REM
REM
REM
REM
REM
REM ./C.cell (11c1c37f851c82e70ff6c80c92926a4b)
REM AIRSS Version 0.9.1 bugfix July 2018 build 013d7b7c2542+ Fri, 06 Jul 2018 19:26:36 +0100
REM compiler GCC version 9.2.1 20190827 (Red Hat 9.2.1-1)
REM options -cpp -mtune=generic -march=x86-64 -g -O0 -fpre-include=/usr/include/finclude/math-vector-fortran.h
REM seed 2137554734 130317099 1353118056 623068836 373567602 1763283791 1831653040 -2144880100 -474957321 729322285 1496679445 -1175480070 1600441006 -581478252 -989680324 658635891 -1417039120 1020301358 -558589269 -2128222418 625762994 -366040985 533179292 -1445038681 1404358222 1014437364 -155772771 443577230 1094265810 -1104995174 1688820672 -1310573464 2118560240
REM
CELL 1.54180   50.00000   50.00000   50.00000   90.00000   90.00000   90.00000
LATT -1
SFAC C  
C      1  0.5369720000000  0.5604540000000  0.4598180000000 1.0
C      1  0.5102460000000  0.4709140000000  0.4857900000000 1.0
C      1  0.4820580000000  0.5481790000000  0.5074420000000 1.0
C      1  0.4544360000000  0.4833940000000  0.4061480000000 1.0
C      1  0.5241320000000  0.5076980000000  0.5809130000000 1.0
C      1  0.4756370000000  0.5992140000000  0.4914280000000 1.0
C      1  0.5079310000000  0.4711220000000  0.4575800000000 1.0
C      1  0.4395220000000  0.4457160000000  0.5087080000000 1.0
C      1  0.4978210000000  0.5327140000000  0.4232730000000 1.0
C      1  0.4146490000000  0.4892020000000  0.4645840000000 1.0
C      1  0.5238990000000  0.4166960000000  0.5187150000000 1.0
C      1  0.4599700000000  0.5756750000000  0.4796870000000 1.0
C      1  0.5093620000000  0.5657870000000  0.4647090000000 1.0
C      1  0.4470740000000  0.4146140000000  0.4702080000000 1.0
C      1  0.5964570000000  0.5844180000000  0.5360170000000 1.0
C      1  0.4319220000000  0.4742220000000  0.5128120000000 1.0
C      1  0.5351710000000  0.5352730000000  0.4471720000000 1.0
C      1  0.5353200000000  0.5095560000000  0.4913290000000 1.0
C      1  0.5440370000000  0.4629010000000  0.5826160000000 1.0
C      1  0.5506040000000  0.4613650000000  0.5092680000000 1.0
C      1  0.4923610000000  0.5491980000000  0.4463620000000 1.0
C      1  0.5329890000000  0.4398310000000  0.5747010000000 1.0
C      1  0.5539110000000  0.5784710000000  0.5025530000000 1.0
C      1  0.4639840000000  0.4917650000000  0.5514150000000 1.0
C      1  0.4865990000000  0.4484110000000  0.5715880000000 1.0
C      1  0.5194920000000  0.4873190000000  0.4366150000000 1.0
C      1  0.5311850000000  0.5971430000000  0.5050130000000 1.0
C      1  0.4178140000000  0.4850270000000  0.4906530000000 1.0
C      1  0.4638880000000  0.4363310000000  0.5201580000000 1.0
C      1  0.4415380000000  0.4944520000000  0.5321740000000 1.0
C      1  0.5362940000000  0.4810520000000  0.4951560000000 1.0
C      1  0.5479140000000  0.4935550000000  0.4398340000000 1.0
C      1  0.4854880000000  0.5137690000000  0.5449800000000 1.0
C      1  0.5441860000000  0.4364830000000  0.5176930000000 1.0
C      1  0.4802810000000  0.4581580000000  0.5257980000000 1.0
C      1  0.4651960000000  0.6244310000000  0.4923750000000 1.0
C      1  0.4760080000000  0.4664490000000  0.5531410000000 1.0
C      1  0.5542170000000  0.5562120000000  0.4837240000000 1.0
C      1  0.5123780000000  0.5193370000000  0.4737210000000 1.0
C      1  0.4768060000000  0.4131420000000  0.5307150000000 1.0
C      1  0.4321440000000  0.4307170000000  0.4858430000000 1.0
C      1  0.5032720000000  0.5642450000000  0.4952100000000 1.0
C      1  0.4998330000000  0.4999650000000  0.5222110000000 1.0
C      1  0.4699120000000  0.5349340000000  0.5294210000000 1.0
C      1  0.4940150000000  0.4754320000000  0.5088350000000 1.0
C      1  0.5037540000000  0.5184850000000  0.5673480000000 1.0
C      1  0.5760060000000  0.5822290000000  0.5193180000000 1.0
C      1  0.4655010000000  0.5461380000000  0.4834400000000 1.0
C      1  0.5028100000000  0.5925460000000  0.5016000000000 1.0
C      1  0.5570040000000  0.5179280000000  0.4525760000000 1.0
C      1  0.4272170000000  0.4812190000000  0.4124480000000 1.0
C      1  0.5672830000000  0.5008140000000  0.6018030000000 1.0
C      1  0.5011890000000  0.5038630000000  0.4205510000000 1.0
C      1  0.4431560000000  0.5230660000000  0.5260610000000 1.0
C      1  0.4186000000000  0.4874990000000  0.4383810000000 1.0
C      1  0.4715750000000  0.4040880000000  0.4675200000000 1.0
C      1  0.5159240000000  0.4041370000000  0.4945980000000 1.0
C      1  0.5590180000000  0.5250350000000  0.4821000000000 1.0
C      1  0.5450530000000  0.4904200000000  0.5884270000000 1.0
C      1  0.4092520000000  0.4730470000000  0.3935160000000 1.0
C      1  0.4799760000000  0.4905360000000  0.4076870000000 1.0
C      1  0.4839970000000  0.5295110000000  0.4667640000000 1.0
C      1  0.5044160000000  0.4159150000000  0.5401140000000 1.0
C      1  0.5082930000000  0.4310820000000  0.5645230000000 1.0
C      1  0.5881190000000  0.5107250000000  0.6139220000000 1.0
C      1  0.6164090000000  0.5862540000000  0.5526960000000 1.0
C      1  0.4965230000000  0.4005260000000  0.4765040000000 1.0
END
