TITL C-599892-9790-863 12.6779741615412 125000 -740.082536081851 0 0 120 (C1) n - 1
REM
REM in /home/nfs/bkarasulu/CARBON/AIRSS/Generating-Clusters/TERSOFF/Only-C1/FIRE-HFTN
REM
REM
REM
REM
REM
REM ./C.cell (11c1c37f851c82e70ff6c80c92926a4b)
REM AIRSS Version 0.9.1 bugfix July 2018 build 013d7b7c2542+ Fri, 06 Jul 2018 19:26:36 +0100
REM compiler GCC version 9.2.1 20190827 (Red Hat 9.2.1-1)
REM options -cpp -mtune=generic -march=x86-64 -g -O0 -fpre-include=/usr/include/finclude/math-vector-fortran.h
REM seed -1730969948 -1051731537 -2081132723 -235044217 916549984 -2132589583 1783318116 -713508547 -685965062 1204710210 1605960598 -288990923 -1055050667 2096830454 -369024587 33229656 -2104930659 -443772801 -165565716 -368936981 501742673 1432990829 1985256506 -199681797 2074663708 127568832 2089677273 -1159704899 1560220337 1273645163 -901426354 -2094479922 1920773127
REM
CELL 1.54180   50.00000   50.00000   50.00000   90.00000   90.00000   90.00000
LATT -1
SFAC C  
C      1  0.4715710000000  0.4400250000000  0.5841670000000 1.0
C      1  0.4149520000000  0.4684950000000  0.5444660000000 1.0
C      1  0.4885710000000  0.5916370000000  0.5863130000000 1.0
C      1  0.4546910000000  0.6115920000000  0.5514910000000 1.0
C      1  0.4671560000000  0.4695580000000  0.4796610000000 1.0
C      1  0.4745200000000  0.6144370000000  0.5059660000000 1.0
C      1  0.4473170000000  0.4165520000000  0.4686350000000 1.0
C      1  0.5298480000000  0.4690310000000  0.4116980000000 1.0
C      1  0.6085160000000  0.5130000000000  0.4845080000000 1.0
C      1  0.4528370000000  0.5388920000000  0.5755840000000 1.0
C      1  0.5294430000000  0.4029990000000  0.5172580000000 1.0
C      1  0.4303230000000  0.5895900000000  0.4554600000000 1.0
C      1  0.4531850000000  0.6140580000000  0.5245550000000 1.0
C      1  0.4539810000000  0.4421950000000  0.5620460000000 1.0
C      1  0.5315680000000  0.5044120000000  0.6082350000000 1.0
C      1  0.5521390000000  0.4630300000000  0.5146960000000 1.0
C      1  0.4185000000000  0.5201070000000  0.5510220000000 1.0
C      1  0.4338540000000  0.5440570000000  0.4044780000000 1.0
C      1  0.4741780000000  0.3092010000000  0.3441040000000 1.0
C      1  0.5993330000000  0.5131490000000  0.4374610000000 1.0
C      1  0.5245950000000  0.4395280000000  0.4504320000000 1.0
C      1  0.5482190000000  0.5710440000000  0.5465870000000 1.0
C      1  0.4875820000000  0.4896080000000  0.4034160000000 1.0
C      1  0.4753000000000  0.3948110000000  0.4058550000000 1.0
C      1  0.5458890000000  0.5664580000000  0.5753650000000 1.0
C      1  0.4954270000000  0.4446350000000  0.5952130000000 1.0
C      1  0.3863050000000  0.5173440000000  0.4973810000000 1.0
C      1  0.5426370000000  0.4633030000000  0.4883850000000 1.0
C      1  0.4804900000000  0.4621130000000  0.3996670000000 1.0
C      1  0.4863650000000  0.4672240000000  0.5240300000000 1.0
C      1  0.5181680000000  0.4451640000000  0.4233080000000 1.0
C      1  0.4616550000000  0.4178970000000  0.4461870000000 1.0
C      1  0.4967500000000  0.5651400000000  0.5924530000000 1.0
C      1  0.4063510000000  0.4327320000000  0.4902100000000 1.0
C      1  0.4530260000000  0.6002690000000  0.4642580000000 1.0
C      1  0.5313450000000  0.4047690000000  0.4891150000000 1.0
C      1  0.4185050000000  0.5595430000000  0.4198180000000 1.0
C      1  0.5210840000000  0.5727390000000  0.5383400000000 1.0
C      1  0.5107610000000  0.5745890000000  0.4565940000000 1.0
C      1  0.5257460000000  0.5185520000000  0.4187880000000 1.0
C      1  0.5516260000000  0.4062260000000  0.5350670000000 1.0
C      1  0.5000630000000  0.4993010000000  0.5565030000000 1.0
C      1  0.5332920000000  0.4681780000000  0.5347530000000 1.0
C      1  0.5082200000000  0.4848470000000  0.4603890000000 1.0
C      1  0.5027160000000  0.5989030000000  0.4687650000000 1.0
C      1  0.3969160000000  0.4720140000000  0.5228250000000 1.0
C      1  0.4526860000000  0.5252780000000  0.4027440000000 1.0
C      1  0.4695970000000  0.4798530000000  0.5056590000000 1.0
C      1  0.4684520000000  0.5084590000000  0.5073060000000 1.0
C      1  0.4580880000000  0.4232760000000  0.5407870000000 1.0
C      1  0.4445070000000  0.5155380000000  0.4585000000000 1.0
C      1  0.5073460000000  0.4770350000000  0.5398950000000 1.0
C      1  0.4700910000000  0.6057460000000  0.5727450000000 1.0
C      1  0.4763420000000  0.6050430000000  0.4789160000000 1.0
C      1  0.3931420000000  0.4505230000000  0.5050960000000 1.0
C      1  0.5159860000000  0.4940100000000  0.4078260000000 1.0
C      1  0.5930910000000  0.5652490000000  0.5267010000000 1.0
C      1  0.6227810000000  0.4943400000000  0.5537270000000 1.0
C      1  0.6051030000000  0.4713490000000  0.4587260000000 1.0
C      1  0.6140950000000  0.4966820000000  0.5281260000000 1.0
C      1  0.4340480000000  0.5339180000000  0.5310350000000 1.0
C      1  0.5269410000000  0.5294200000000  0.4450580000000 1.0
C      1  0.5252080000000  0.4629380000000  0.4666490000000 1.0
C      1  0.5559650000000  0.5608890000000  0.4731670000000 1.0
C      1  0.4930850000000  0.5214330000000  0.5028820000000 1.0
C      1  0.5470620000000  0.6049620000000  0.4906200000000 1.0
C      1  0.4777480000000  0.5550380000000  0.5374070000000 1.0
C      1  0.4744450000000  0.3303380000000  0.3593630000000 1.0
C      1  0.5046300000000  0.5498730000000  0.5421700000000 1.0
C      1  0.4035980000000  0.5318800000000  0.4806900000000 1.0
C      1  0.6020730000000  0.4861160000000  0.4360940000000 1.0
C      1  0.5283950000000  0.4155180000000  0.4646590000000 1.0
C      1  0.6063070000000  0.4833950000000  0.4840880000000 1.0
C      1  0.5185690000000  0.5191260000000  0.4914950000000 1.0
C      1  0.3984410000000  0.5536110000000  0.4636990000000 1.0
C      1  0.5760750000000  0.3956770000000  0.5287160000000 1.0
C      1  0.4530930000000  0.5483520000000  0.5476520000000 1.0
C      1  0.4760820000000  0.4176150000000  0.4220000000000 1.0
C      1  0.4638760000000  0.5014650000000  0.4436770000000 1.0
C      1  0.4308640000000  0.5237130000000  0.4816940000000 1.0
C      1  0.6143630000000  0.5206440000000  0.5117190000000 1.0
C      1  0.5247560000000  0.5560040000000  0.5929070000000 1.0
C      1  0.5322400000000  0.5558100000000  0.4562350000000 1.0
C      1  0.6029150000000  0.4755130000000  0.5116500000000 1.0
C      1  0.4497180000000  0.4902470000000  0.5726020000000 1.0
C      1  0.4817220000000  0.4080340000000  0.5406680000000 1.0
C      1  0.3861670000000  0.4967280000000  0.5145540000000 1.0
C      1  0.4744980000000  0.5467830000000  0.5920970000000 1.0
C      1  0.5567590000000  0.5788900000000  0.4964370000000 1.0
C      1  0.5801050000000  0.5484250000000  0.4656950000000 1.0
C      1  0.5141380000000  0.5240670000000  0.5523840000000 1.0
C      1  0.4915260000000  0.4398920000000  0.4136630000000 1.0
C      1  0.4777630000000  0.4942350000000  0.5727590000000 1.0
C      1  0.5224330000000  0.4526420000000  0.5939490000000 1.0
C      1  0.5479890000000  0.4199340000000  0.5595420000000 1.0
C      1  0.4747170000000  0.3518280000000  0.3748770000000 1.0
C      1  0.5042470000000  0.4001060000000  0.5291450000000 1.0
C      1  0.4682080000000  0.5061250000000  0.4158810000000 1.0
C      1  0.4426360000000  0.4205590000000  0.5176590000000 1.0
C      1  0.5662290000000  0.5727890000000  0.5238270000000 1.0
C      1  0.5797860000000  0.4617550000000  0.5190880000000 1.0
C      1  0.5251080000000  0.6140060000000  0.4777410000000 1.0
C      1  0.4991760000000  0.6170120000000  0.5192420000000 1.0
C      1  0.4135970000000  0.5692700000000  0.4457140000000 1.0
C      1  0.5423650000000  0.5204730000000  0.5512800000000 1.0
C      1  0.5978220000000  0.5271960000000  0.4622010000000 1.0
C      1  0.5126600000000  0.5985090000000  0.5325760000000 1.0
C      1  0.4749900000000  0.3733130000000  0.3903870000000 1.0
C      1  0.4352830000000  0.5148030000000  0.5741740000000 1.0
C      1  0.6111350000000  0.5463630000000  0.5216210000000 1.0
C      1  0.5433600000000  0.5197690000000  0.5042340000000 1.0
C      1  0.4797980000000  0.4824700000000  0.4579590000000 1.0
C      1  0.5186510000000  0.5107350000000  0.4647070000000 1.0
C      1  0.5555530000000  0.5185810000000  0.5279530000000 1.0
C      1  0.4437280000000  0.5224660000000  0.5069410000000 1.0
C      1  0.4384300000000  0.4664800000000  0.5603080000000 1.0
C      1  0.5399210000000  0.4359910000000  0.5793290000000 1.0
C      1  0.5300660000000  0.4780090000000  0.6038130000000 1.0
C      1  0.4321790000000  0.4218620000000  0.4916360000000 1.0
C      1  0.5299340000000  0.5310820000000  0.6057740000000 1.0
END
