TITL C-599890-3321-783 -119995.966186893 125000 -673.796531388246 0 0 112 (C1) n - 1
REM
REM in /home/nfs/bkarasulu/CARBON/AIRSS/Generating-Clusters/TERSOFF/Only-C1/FIRE-HFTN
REM
REM
REM
REM
REM
REM ./C.cell (11c1c37f851c82e70ff6c80c92926a4b)
REM AIRSS Version 0.9.1 bugfix July 2018 build 013d7b7c2542+ Fri, 06 Jul 2018 19:26:36 +0100
REM compiler GCC version 9.2.1 20190827 (Red Hat 9.2.1-1)
REM options -cpp -mtune=generic -march=x86-64 -g -O0 -fpre-include=/usr/include/finclude/math-vector-fortran.h
REM seed -842443603 -1839253737 2086356381 -1707982716 -1708108193 86936707 -1760844089 -709984670 1039202325 -1285154117 -2088190690 -436964719 -1375475746 66000608 -1119561121 -342496126 -1221265175 -1948129660 -1761275339 -921020779 579411683 -1311106842 -1046235531 -1576242904 -817021057 -1295301810 -2019556354 -1336020784 1062987128 -1197489899 616673266 2061754666 773344327
REM
CELL 1.54180   50.00000   50.00000   50.00000   90.00000   90.00000   90.00000
LATT -1
SFAC C  
C      1  0.5112520000000  0.5694540000000  0.4961030000000 1.0
C      1  0.5629350000000  0.4353070000000  0.5274990000000 1.0
C      1  0.5611170000000  0.4214540000000  0.4784910000000 1.0
C      1  0.4829420000000  0.5166020000000  0.5869140000000 1.0
C      1  0.5203300000000  0.5867650000000  0.5428570000000 1.0
C      1  0.4770790000000  0.5397160000000  0.4643600000000 1.0
C      1  0.4490960000000  0.4098520000000  0.5068480000000 1.0
C      1  0.4941690000000  0.4179550000000  0.5641800000000 1.0
C      1  0.4299670000000  0.4536360000000  0.5138720000000 1.0
C      1  0.4888170000000  0.5576680000000  0.4829230000000 1.0
C      1  0.4103500000000  0.5233120000000  0.4947790000000 1.0
C      1  0.4776360000000  0.4933590000000  0.4991900000000 1.0
C      1  0.4161230000000  0.5418490000000  0.5475110000000 1.0
C      1  0.5144340000000  0.5669150000000  0.5243880000000 1.0
C      1  0.5147270000000  0.4136350000000  0.4622900000000 1.0
C      1  0.5139850000000  0.5167870000000  0.5447690000000 1.0
C      1  0.5633620000000  0.5767690000000  0.5633140000000 1.0
C      1  0.5289470000000  0.5738480000000  0.4470130000000 1.0
C      1  0.5415750000000  0.4231360000000  0.4566120000000 1.0
C      1  0.5178260000000  0.4922050000000  0.5296860000000 1.0
C      1  0.4562640000000  0.4938840000000  0.3907310000000 1.0
C      1  0.5047530000000  0.4375260000000  0.5024070000000 1.0
C      1  0.4334070000000  0.4825770000000  0.3991250000000 1.0
C      1  0.5285230000000  0.5039400000000  0.4152220000000 1.0
C      1  0.4618290000000  0.4745560000000  0.5910840000000 1.0
C      1  0.4320620000000  0.5415710000000  0.5725000000000 1.0
C      1  0.5723220000000  0.5980560000000  0.4640090000000 1.0
C      1  0.4916330000000  0.5539490000000  0.4159350000000 1.0
C      1  0.5725550000000  0.5076170000000  0.4921440000000 1.0
C      1  0.5633140000000  0.5362950000000  0.4204220000000 1.0
C      1  0.6042810000000  0.5051770000000  0.5215910000000 1.0
C      1  0.5181030000000  0.5177220000000  0.4604080000000 1.0
C      1  0.5716160000000  0.5305160000000  0.5395250000000 1.0
C      1  0.5189000000000  0.5390850000000  0.5282080000000 1.0
C      1  0.4261420000000  0.5335040000000  0.4715540000000 1.0
C      1  0.4706300000000  0.5345680000000  0.4127980000000 1.0
C      1  0.5809680000000  0.4636380000000  0.4918690000000 1.0
C      1  0.4165740000000  0.4521390000000  0.5386550000000 1.0
C      1  0.4817260000000  0.5461250000000  0.5875370000000 1.0
C      1  0.4072360000000  0.4949240000000  0.4902220000000 1.0
C      1  0.5101470000000  0.4710450000000  0.4686470000000 1.0
C      1  0.5386570000000  0.4486780000000  0.5409240000000 1.0
C      1  0.5190580000000  0.5559080000000  0.4244970000000 1.0
C      1  0.5283270000000  0.4553440000000  0.5708540000000 1.0
C      1  0.5008060000000  0.4909970000000  0.4116390000000 1.0
C      1  0.5088390000000  0.5934360000000  0.4572190000000 1.0
C      1  0.5602960000000  0.4710160000000  0.4727340000000 1.0
C      1  0.5351670000000  0.5319140000000  0.5054750000000 1.0
C      1  0.4783640000000  0.4474240000000  0.4974700000000 1.0
C      1  0.4773450000000  0.4438410000000  0.4365680000000 1.0
C      1  0.5427270000000  0.4782350000000  0.5330770000000 1.0
C      1  0.4706850000000  0.3987250000000  0.4654130000000 1.0
C      1  0.4603080000000  0.5064510000000  0.5471720000000 1.0
C      1  0.4963510000000  0.4631840000000  0.4234760000000 1.0
C      1  0.4602660000000  0.5503560000000  0.5674900000000 1.0
C      1  0.5726720000000  0.4371010000000  0.5004430000000 1.0
C      1  0.4628090000000  0.5424440000000  0.5165510000000 1.0
C      1  0.5606450000000  0.5239830000000  0.5139760000000 1.0
C      1  0.5412380000000  0.5912600000000  0.5590350000000 1.0
C      1  0.6028360000000  0.5371180000000  0.5019990000000 1.0
C      1  0.5366810000000  0.5291680000000  0.4766540000000 1.0
C      1  0.5169810000000  0.4608560000000  0.4425970000000 1.0
C      1  0.4345010000000  0.5184450000000  0.5903870000000 1.0
C      1  0.4937900000000  0.5220320000000  0.4517190000000 1.0
C      1  0.4537580000000  0.5277180000000  0.4748750000000 1.0
C      1  0.5541450000000  0.4926870000000  0.4300780000000 1.0
C      1  0.4799030000000  0.4712020000000  0.4783390000000 1.0
C      1  0.4670590000000  0.5673270000000  0.5008030000000 1.0
C      1  0.4247310000000  0.4744350000000  0.4231770000000 1.0
C      1  0.5658700000000  0.5240510000000  0.4684290000000 1.0
C      1  0.5103380000000  0.4116910000000  0.4904110000000 1.0
C      1  0.4247110000000  0.5398390000000  0.4432200000000 1.0
C      1  0.4775920000000  0.5074070000000  0.4036230000000 1.0
C      1  0.5415400000000  0.4467160000000  0.4402710000000 1.0
C      1  0.4689010000000  0.3937390000000  0.4946420000000 1.0
C      1  0.5351330000000  0.5341850000000  0.4140890000000 1.0
C      1  0.5801990000000  0.5502060000000  0.4770080000000 1.0
C      1  0.5292880000000  0.5328080000000  0.6031100000000 1.0
C      1  0.5623980000000  0.4878390000000  0.5540500000000 1.0
C      1  0.5301130000000  0.5069290000000  0.5886510000000 1.0
C      1  0.5082160000000  0.5516940000000  0.5995180000000 1.0
C      1  0.4995170000000  0.4457860000000  0.5727970000000 1.0
C      1  0.5732190000000  0.5535690000000  0.5546410000000 1.0
C      1  0.5010560000000  0.4094530000000  0.5373760000000 1.0
C      1  0.4743090000000  0.4814010000000  0.5457830000000 1.0
C      1  0.3962460000000  0.4656070000000  0.5498880000000 1.0
C      1  0.5338700000000  0.4756670000000  0.4832760000000 1.0
C      1  0.4776860000000  0.4648010000000  0.5693170000000 1.0
C      1  0.5854440000000  0.5055900000000  0.5455480000000 1.0
C      1  0.4627400000000  0.5178020000000  0.4998000000000 1.0
C      1  0.4367550000000  0.4689040000000  0.4464820000000 1.0
C      1  0.5068470000000  0.5107180000000  0.5718160000000 1.0
C      1  0.5616560000000  0.5731930000000  0.4634810000000 1.0
C      1  0.4670560000000  0.5949320000000  0.4912290000000 1.0
C      1  0.5920310000000  0.4883410000000  0.5014640000000 1.0
C      1  0.4622800000000  0.4613800000000  0.4550840000000 1.0
C      1  0.4439860000000  0.5395450000000  0.4234920000000 1.0
C      1  0.4646820000000  0.5350500000000  0.5433260000000 1.0
C      1  0.4876260000000  0.4173330000000  0.4492740000000 1.0
C      1  0.5446130000000  0.4828760000000  0.5790600000000 1.0
C      1  0.4526070000000  0.4380370000000  0.5072170000000 1.0
C      1  0.5156960000000  0.4341440000000  0.5281980000000 1.0
C      1  0.4945430000000  0.3948720000000  0.5096290000000 1.0
C      1  0.5601420000000  0.4683860000000  0.4440010000000 1.0
C      1  0.3829350000000  0.5117010000000  0.5336400000000 1.0
C      1  0.4864870000000  0.6020580000000  0.4717150000000 1.0
C      1  0.4914050000000  0.4842370000000  0.5231160000000 1.0
C      1  0.4587630000000  0.5026800000000  0.5940100000000 1.0
C      1  0.3819820000000  0.4879740000000  0.5461620000000 1.0
C      1  0.4034630000000  0.5295320000000  0.5238350000000 1.0
C      1  0.4180350000000  0.4711390000000  0.4954730000000 1.0
C      1  0.5694230000000  0.5162650000000  0.4400200000000 1.0
END
