TITL C-599896-8500-1177 0.0173135971146928 125000 -325.174190301533 0 0 56 (C1) n - 1
REM
REM in /home/nfs/bkarasulu/CARBON/AIRSS/Generating-Clusters/TERSOFF/Only-C1/FIRE-HFTN
REM
REM
REM
REM
REM
REM ./C.cell (11c1c37f851c82e70ff6c80c92926a4b)
REM AIRSS Version 0.9.1 bugfix July 2018 build 013d7b7c2542+ Fri, 06 Jul 2018 19:26:36 +0100
REM compiler GCC version 9.2.1 20190827 (Red Hat 9.2.1-1)
REM options -cpp -mtune=generic -march=x86-64 -g -O0 -fpre-include=/usr/include/finclude/math-vector-fortran.h
REM seed -344158327 -1564286805 1377234164 41815166 918060247 -632848521 466781713 -1852400928 281636365 -1682605117 1013488221 -1862836715 1752253539 -599444102 -1334620836 99078559 -2011620407 -348827580 439633140 -1191237617 454970590 -726704985 -1113975829 -918578317 -2144338608 -1341047452 791382141 -397756668 1220567237 1719741179 2062945661 -1840843714 -1610069511
REM
CELL 1.54180   50.00000   50.00000   50.00000   90.00000   90.00000   90.00000
LATT -1
SFAC C  
C      1  0.4955060000000  0.4844430000000  0.4147820000000 1.0
C      1  0.4505170000000  0.4706100000000  0.4372340000000 1.0
C      1  0.5039080000000  0.5135450000000  0.4603120000000 1.0
C      1  0.5220360000000  0.4275260000000  0.4650520000000 1.0
C      1  0.4307750000000  0.4884430000000  0.5282220000000 1.0
C      1  0.4657910000000  0.5066580000000  0.5845230000000 1.0
C      1  0.5392930000000  0.5145900000000  0.4942630000000 1.0
C      1  0.5498470000000  0.5403640000000  0.5661750000000 1.0
C      1  0.4409760000000  0.5395890000000  0.5313180000000 1.0
C      1  0.4977420000000  0.5285020000000  0.4375290000000 1.0
C      1  0.5576350000000  0.5651660000000  0.5579530000000 1.0
C      1  0.5375910000000  0.5211480000000  0.5485360000000 1.0
C      1  0.5382840000000  0.4860190000000  0.4891430000000 1.0
C      1  0.5924480000000  0.5429560000000  0.4190030000000 1.0
C      1  0.4967980000000  0.5363420000000  0.5012640000000 1.0
C      1  0.5192960000000  0.5015820000000  0.5607650000000 1.0
C      1  0.5440040000000  0.4432770000000  0.4672020000000 1.0
C      1  0.4617990000000  0.5567280000000  0.5280580000000 1.0
C      1  0.5166400000000  0.5278540000000  0.4822970000000 1.0
C      1  0.5445960000000  0.4716810000000  0.4649260000000 1.0
C      1  0.4747610000000  0.4650790000000  0.4234020000000 1.0
C      1  0.4735780000000  0.4511770000000  0.4963910000000 1.0
C      1  0.5773060000000  0.5223930000000  0.4242430000000 1.0
C      1  0.5419930000000  0.5086460000000  0.6023700000000 1.0
C      1  0.4870900000000  0.4595150000000  0.4733720000000 1.0
C      1  0.5526720000000  0.5315660000000  0.5928840000000 1.0
C      1  0.4377280000000  0.5144770000000  0.5187160000000 1.0
C      1  0.4918710000000  0.4411240000000  0.4292890000000 1.0
C      1  0.5163730000000  0.6048280000000  0.5156990000000 1.0
C      1  0.4939530000000  0.4866580000000  0.4654830000000 1.0
C      1  0.5429040000000  0.4824810000000  0.4376680000000 1.0
C      1  0.4377990000000  0.4806630000000  0.4607450000000 1.0
C      1  0.4225400000000  0.4670770000000  0.4808410000000 1.0
C      1  0.4456960000000  0.4787030000000  0.5508380000000 1.0
C      1  0.4690060000000  0.4925180000000  0.5610820000000 1.0
C      1  0.5099920000000  0.4423410000000  0.6022010000000 1.0
C      1  0.5262470000000  0.4912270000000  0.5866740000000 1.0
C      1  0.5452680000000  0.5213910000000  0.5212240000000 1.0
C      1  0.4471030000000  0.5055830000000  0.4708790000000 1.0
C      1  0.4558020000000  0.5118130000000  0.4967840000000 1.0
C      1  0.4200460000000  0.4712910000000  0.5077570000000 1.0
C      1  0.4922580000000  0.5460300000000  0.4190290000000 1.0
C      1  0.4663590000000  0.4345890000000  0.5152090000000 1.0
C      1  0.4967950000000  0.4377930000000  0.4571730000000 1.0
C      1  0.5173880000000  0.4451880000000  0.4151620000000 1.0
C      1  0.4947890000000  0.4933200000000  0.5482680000000 1.0
C      1  0.4964020000000  0.4911810000000  0.5200930000000 1.0
C      1  0.4868940000000  0.5592680000000  0.5146800000000 1.0
C      1  0.4370520000000  0.4561160000000  0.5638830000000 1.0
C      1  0.5615240000000  0.5018860000000  0.4299100000000 1.0
C      1  0.5181680000000  0.4766620000000  0.5080680000000 1.0
C      1  0.5229940000000  0.4738380000000  0.4184880000000 1.0
C      1  0.5319130000000  0.6257400000000  0.5165900000000 1.0
C      1  0.4823680000000  0.5117510000000  0.5059390000000 1.0
C      1  0.5011220000000  0.5831740000000  0.5151130000000 1.0
C      1  0.5187640000000  0.4658890000000  0.5952920000000 1.0
END
