TITL C-599894-471-1291 0.00161573088288716 125000 -420.507706355896 0 0 69 (C1) n - 1
REM
REM in /home/nfs/bkarasulu/CARBON/AIRSS/Generating-Clusters/TERSOFF/Only-C1/FIRE-HFTN
REM
REM
REM
REM
REM
REM ./C.cell (11c1c37f851c82e70ff6c80c92926a4b)
REM AIRSS Version 0.9.1 bugfix July 2018 build 013d7b7c2542+ Fri, 06 Jul 2018 19:26:36 +0100
REM compiler GCC version 9.2.1 20190827 (Red Hat 9.2.1-1)
REM options -cpp -mtune=generic -march=x86-64 -g -O0 -fpre-include=/usr/include/finclude/math-vector-fortran.h
REM seed 1210287126 -494038769 -1775686487 -1522456636 -1519552653 -304339213 -32597198 701730912 633838347 818733185 181439699 -1092817745 -1143014944 49556529 1133932796 -1941424789 1036757075 1405164611 -166879613 368483378 -968366140 -249009777 -34424662 -1762900895 -2109048587 -482938998 714572811 -506459982 -990032198 2011095807 -120841724 2027599499 -1057877221
REM
CELL 1.54180   50.00000   50.00000   50.00000   90.00000   90.00000   90.00000
LATT -1
SFAC C  
C      1  0.5687260000000  0.5256120000000  0.4249220000000 1.0
C      1  0.4920120000000  0.4335200000000  0.5545020000000 1.0
C      1  0.5271920000000  0.4835330000000  0.5647730000000 1.0
C      1  0.5090370000000  0.5558400000000  0.6115510000000 1.0
C      1  0.4732580000000  0.5412730000000  0.4079750000000 1.0
C      1  0.5240150000000  0.5807040000000  0.4975040000000 1.0
C      1  0.5063970000000  0.5277960000000  0.5714020000000 1.0
C      1  0.5344590000000  0.4942340000000  0.4822880000000 1.0
C      1  0.4188060000000  0.5805290000000  0.4717060000000 1.0
C      1  0.5218560000000  0.5226700000000  0.3992470000000 1.0
C      1  0.4516080000000  0.5308470000000  0.4229610000000 1.0
C      1  0.5441630000000  0.4265890000000  0.4917790000000 1.0
C      1  0.5036750000000  0.5319780000000  0.5995700000000 1.0
C      1  0.5554070000000  0.4449990000000  0.5077500000000 1.0
C      1  0.4748850000000  0.5693550000000  0.4058460000000 1.0
C      1  0.4582660000000  0.4005810000000  0.5948010000000 1.0
C      1  0.4141780000000  0.5055040000000  0.4317590000000 1.0
C      1  0.5010630000000  0.5894870000000  0.4873440000000 1.0
C      1  0.4814200000000  0.3900590000000  0.5824710000000 1.0
C      1  0.5283500000000  0.5121920000000  0.5614960000000 1.0
C      1  0.5941240000000  0.5334270000000  0.4165110000000 1.0
C      1  0.4621480000000  0.5855720000000  0.4508560000000 1.0
C      1  0.4792820000000  0.5435520000000  0.5310720000000 1.0
C      1  0.5437140000000  0.4738090000000  0.4392210000000 1.0
C      1  0.5485700000000  0.4936480000000  0.5068950000000 1.0
C      1  0.5293790000000  0.4659550000000  0.5423150000000 1.0
C      1  0.4698310000000  0.4681780000000  0.6021040000000 1.0
C      1  0.4780110000000  0.4766910000000  0.4476130000000 1.0
C      1  0.5589820000000  0.5406870000000  0.4992250000000 1.0
C      1  0.4547090000000  0.4929150000000  0.5362480000000 1.0
C      1  0.4574150000000  0.4495900000000  0.5849270000000 1.0
C      1  0.4712540000000  0.5884090000000  0.4243800000000 1.0
C      1  0.4636790000000  0.5084390000000  0.5585590000000 1.0
C      1  0.5069620000000  0.4495040000000  0.5358890000000 1.0
C      1  0.4505490000000  0.5094450000000  0.5132920000000 1.0
C      1  0.5471810000000  0.5247480000000  0.4070010000000 1.0
C      1  0.5483700000000  0.4688810000000  0.5211510000000 1.0
C      1  0.4950490000000  0.4082250000000  0.5656750000000 1.0
C      1  0.4580600000000  0.4811650000000  0.4288250000000 1.0
C      1  0.5108880000000  0.4392560000000  0.4553680000000 1.0
C      1  0.4668740000000  0.4488270000000  0.5580630000000 1.0
C      1  0.5639670000000  0.5179810000000  0.4518090000000 1.0
C      1  0.4330730000000  0.5475520000000  0.4393460000000 1.0
C      1  0.4898990000000  0.3644870000000  0.5864640000000 1.0
C      1  0.4632190000000  0.5336310000000  0.5112680000000 1.0
C      1  0.5160960000000  0.4743310000000  0.5890820000000 1.0
C      1  0.4883840000000  0.4546470000000  0.4646040000000 1.0
C      1  0.5484450000000  0.4947900000000  0.4573430000000 1.0
C      1  0.4642900000000  0.4664310000000  0.5349010000000 1.0
C      1  0.4829810000000  0.5294180000000  0.5555140000000 1.0
C      1  0.5247650000000  0.4226660000000  0.4735890000000 1.0
C      1  0.5477690000000  0.5231840000000  0.5445690000000 1.0
C      1  0.4093920000000  0.5308790000000  0.4415950000000 1.0
C      1  0.5063170000000  0.4928060000000  0.4825280000000 1.0
C      1  0.4955560000000  0.5264240000000  0.4000990000000 1.0
C      1  0.4792870000000  0.5912320000000  0.4721920000000 1.0
C      1  0.5698800000000  0.5344380000000  0.4739110000000 1.0
C      1  0.6179910000000  0.5407730000000  0.4090560000000 1.0
C      1  0.5447040000000  0.5646360000000  0.5021230000000 1.0
C      1  0.4950030000000  0.5090810000000  0.6137690000000 1.0
C      1  0.4416360000000  0.5029780000000  0.4230320000000 1.0
C      1  0.5276490000000  0.4523890000000  0.4365480000000 1.0
C      1  0.4932880000000  0.4676770000000  0.4910220000000 1.0
C      1  0.4939250000000  0.4823300000000  0.6048650000000 1.0
C      1  0.4475670000000  0.4252940000000  0.5953540000000 1.0
C      1  0.5548960000000  0.5192880000000  0.5177720000000 1.0
C      1  0.4911070000000  0.5000400000000  0.4592030000000 1.0
C      1  0.4874050000000  0.4612100000000  0.5173860000000 1.0
C      1  0.4377080000000  0.5711800000000  0.4542200000000 1.0
END
