TITL C-599892-9790-622 0.841060341558399 125000 -289.653032152808 0 0 49 (C1) n - 1
REM
REM in /home/nfs/bkarasulu/CARBON/AIRSS/Generating-Clusters/TERSOFF/Only-C1/FIRE-HFTN
REM
REM
REM
REM
REM
REM ./C.cell (11c1c37f851c82e70ff6c80c92926a4b)
REM AIRSS Version 0.9.1 bugfix July 2018 build 013d7b7c2542+ Fri, 06 Jul 2018 19:26:36 +0100
REM compiler GCC version 9.2.1 20190827 (Red Hat 9.2.1-1)
REM options -cpp -mtune=generic -march=x86-64 -g -O0 -fpre-include=/usr/include/finclude/math-vector-fortran.h
REM seed -223018754 -591398819 -1449583564 2089498196 138492230 -1456795364 233054297 1925428579 2081713629 -1404931239 -937725699 258604270 -2109132219 1575858571 74660492 1289246774 277911473 -241507132 -288420076 -1393090893 -2065256319 1483771324 1043618480 -373586435 -776686732 -863064137 182321337 1262050439 1042176049 2075298027 -212588029 -1519939181 300851694
REM
CELL 1.54180   50.00000   50.00000   50.00000   90.00000   90.00000   90.00000
LATT -1
SFAC C  
C      1  0.4636330000000  0.5296280000000  0.4557670000000 1.0
C      1  0.5431540000000  0.5618770000000  0.5160080000000 1.0
C      1  0.4225740000000  0.5037680000000  0.4619070000000 1.0
C      1  0.5741190000000  0.5375580000000  0.4879740000000 1.0
C      1  0.4803470000000  0.4863920000000  0.4210360000000 1.0
C      1  0.5361310000000  0.4769150000000  0.4541610000000 1.0
C      1  0.5978050000000  0.4394220000000  0.4897380000000 1.0
C      1  0.5298580000000  0.4616790000000  0.5432540000000 1.0
C      1  0.5756280000000  0.6188150000000  0.4570980000000 1.0
C      1  0.4400550000000  0.5186330000000  0.5513230000000 1.0
C      1  0.4910400000000  0.5452340000000  0.6265010000000 1.0
C      1  0.5106040000000  0.5279890000000  0.5792790000000 1.0
C      1  0.4349110000000  0.5155110000000  0.5990900000000 1.0
C      1  0.4285970000000  0.4358200000000  0.5390580000000 1.0
C      1  0.5307450000000  0.5576760000000  0.5390560000000 1.0
C      1  0.5055980000000  0.5515360000000  0.4447800000000 1.0
C      1  0.5850940000000  0.5134080000000  0.4878970000000 1.0
C      1  0.4642500000000  0.4482220000000  0.4514730000000 1.0
C      1  0.4868530000000  0.4357580000000  0.4625180000000 1.0
C      1  0.5411540000000  0.4533280000000  0.5207560000000 1.0
C      1  0.5195350000000  0.5465300000000  0.5603390000000 1.0
C      1  0.4337660000000  0.4348390000000  0.4876230000000 1.0
C      1  0.4297310000000  0.4524870000000  0.5596920000000 1.0
C      1  0.4358740000000  0.5035450000000  0.5745490000000 1.0
C      1  0.6146760000000  0.4196140000000  0.4882620000000 1.0
C      1  0.5620640000000  0.5972730000000  0.4626810000000 1.0
C      1  0.4998410000000  0.5366220000000  0.6035310000000 1.0
C      1  0.4886280000000  0.5294170000000  0.4431380000000 1.0
C      1  0.5555020000000  0.5581700000000  0.4912030000000 1.0
C      1  0.4324340000000  0.4758820000000  0.5719130000000 1.0
C      1  0.4982090000000  0.5049750000000  0.4322380000000 1.0
C      1  0.5234960000000  0.4953250000000  0.4396650000000 1.0
C      1  0.4428080000000  0.5209200000000  0.4722880000000 1.0
C      1  0.5257830000000  0.5662650000000  0.4536570000000 1.0
C      1  0.4298460000000  0.4294070000000  0.5133180000000 1.0
C      1  0.4264970000000  0.4760850000000  0.4634860000000 1.0
C      1  0.5875800000000  0.4870300000000  0.4893680000000 1.0
C      1  0.5122310000000  0.4386050000000  0.4702070000000 1.0
C      1  0.4680400000000  0.4638020000000  0.4283360000000 1.0
C      1  0.5517110000000  0.4550520000000  0.4949280000000 1.0
C      1  0.5478060000000  0.5741350000000  0.4689810000000 1.0
C      1  0.3999340000000  0.5141810000000  0.4506650000000 1.0
C      1  0.4421190000000  0.5262410000000  0.5259990000000 1.0
C      1  0.5197800000000  0.4781960000000  0.5614050000000 1.0
C      1  0.5129470000000  0.5006940000000  0.5736710000000 1.0
C      1  0.4406110000000  0.4520800000000  0.4667500000000 1.0
C      1  0.4426800000000  0.5273310000000  0.4995060000000 1.0
C      1  0.5342830000000  0.4558060000000  0.4725900000000 1.0
C      1  0.5794370000000  0.4603220000000  0.4913350000000 1.0
END
