TITL C-599897-7526-1003 457.439756580843 125000 -991.885203403085 0 0 164 (C1) n - 1
REM
REM in /home/nfs/bkarasulu/CARBON/AIRSS/Generating-Clusters/TERSOFF/Only-C1/FIRE-HFTN
REM
REM
REM
REM
REM
REM ./C.cell (11c1c37f851c82e70ff6c80c92926a4b)
REM AIRSS Version 0.9.1 bugfix July 2018 build 013d7b7c2542+ Fri, 06 Jul 2018 19:26:36 +0100
REM compiler GCC version 9.2.1 20190827 (Red Hat 9.2.1-1)
REM options -cpp -mtune=generic -march=x86-64 -g -O0 -fpre-include=/usr/include/finclude/math-vector-fortran.h
REM seed -1865629179 -160493150 -1520094577 1759256640 -1090240536 1625484376 998638884 -1338381496 1959793502 1340648706 -1435428473 -659012436 -381240141 -1364126738 -64123879 -1482956877 1193439376 880677296 474320669 1075596141 -173145917 -2035061907 -1109775044 -1233548591 499098606 -298779687 -858591046 674075575 985501445 246902925 -1527532190 1515921092 194465026
REM
CELL 1.54180   50.00000   50.00000   50.00000   90.00000   90.00000   90.00000
LATT -1
SFAC C  
C      1  0.5595040000000  0.4962350000000  0.5549540000000 1.0
C      1  0.6349760000000  0.5768090000000  0.4130290000000 1.0
C      1  0.4793270000000  0.6412790000000  0.4731210000000 1.0
C      1  0.5056380000000  0.5171140000000  0.4043400000000 1.0
C      1  0.4224240000000  0.4119520000000  0.5252940000000 1.0
C      1  0.5068250000000  0.5310880000000  0.4589150000000 1.0
C      1  0.4552440000000  0.4824410000000  0.5519920000000 1.0
C      1  0.4412590000000  0.5237700000000  0.6009780000000 1.0
C      1  0.4763680000000  0.5863960000000  0.4247920000000 1.0
C      1  0.5874730000000  0.5400940000000  0.5554550000000 1.0
C      1  0.4638790000000  0.5073340000000  0.6084400000000 1.0
C      1  0.5921120000000  0.5633860000000  0.5324860000000 1.0
C      1  0.5407740000000  0.4638170000000  0.5285280000000 1.0
C      1  0.4622010000000  0.4305160000000  0.4961200000000 1.0
C      1  0.5406870000000  0.4191160000000  0.5562680000000 1.0
C      1  0.4990450000000  0.4956380000000  0.5311550000000 1.0
C      1  0.5582380000000  0.5881370000000  0.4766000000000 1.0
C      1  0.4990710000000  0.4888720000000  0.4094280000000 1.0
C      1  0.4619100000000  0.4782540000000  0.6116150000000 1.0
C      1  0.5188330000000  0.5674930000000  0.5742560000000 1.0
C      1  0.5619300000000  0.4649600000000  0.4700000000000 1.0
C      1  0.5868090000000  0.4624030000000  0.4832100000000 1.0
C      1  0.5248700000000  0.4076110000000  0.5319190000000 1.0
C      1  0.4908240000000  0.3865260000000  0.4597990000000 1.0
C      1  0.4689580000000  0.4371390000000  0.5510870000000 1.0
C      1  0.4125250000000  0.5519750000000  0.5120690000000 1.0
C      1  0.4758990000000  0.3823730000000  0.4833550000000 1.0
C      1  0.4372810000000  0.4511410000000  0.4205400000000 1.0
C      1  0.4372270000000  0.4384950000000  0.4457350000000 1.0
C      1  0.4337430000000  0.5429400000000  0.5809090000000 1.0
C      1  0.5613700000000  0.5463400000000  0.5743050000000 1.0
C      1  0.5320660000000  0.5278040000000  0.4011550000000 1.0
C      1  0.4060370000000  0.4801590000000  0.4993490000000 1.0
C      1  0.5808170000000  0.5144870000000  0.4948470000000 1.0
C      1  0.4600050000000  0.6048430000000  0.5360160000000 1.0
C      1  0.5192270000000  0.4840980000000  0.5799970000000 1.0
C      1  0.4951860000000  0.6199110000000  0.4664760000000 1.0
C      1  0.5011260000000  0.4594760000000  0.4485450000000 1.0
C      1  0.4512550000000  0.4674970000000  0.4024110000000 1.0
C      1  0.5802190000000  0.4966230000000  0.5990050000000 1.0
C      1  0.5325010000000  0.5942320000000  0.5221270000000 1.0
C      1  0.5177120000000  0.4880060000000  0.4820650000000 1.0
C      1  0.5238940000000  0.5080480000000  0.5267740000000 1.0
C      1  0.5612910000000  0.4665300000000  0.4418810000000 1.0
C      1  0.4219390000000  0.4993960000000  0.4574140000000 1.0
C      1  0.4443180000000  0.4002950000000  0.5364860000000 1.0
C      1  0.4322960000000  0.5736090000000  0.5104800000000 1.0
C      1  0.4713910000000  0.4835720000000  0.4138070000000 1.0
C      1  0.5657550000000  0.4489240000000  0.5265900000000 1.0
C      1  0.5881910000000  0.4592370000000  0.5116270000000 1.0
C      1  0.5420810000000  0.5528680000000  0.4107090000000 1.0
C      1  0.4988730000000  0.4391380000000  0.5884160000000 1.0
C      1  0.4895080000000  0.5187320000000  0.5991820000000 1.0
C      1  0.4730800000000  0.3185640000000  0.3919500000000 1.0
C      1  0.3929730000000  0.4896530000000  0.3903610000000 1.0
C      1  0.6089770000000  0.4704660000000  0.4675640000000 1.0
C      1  0.4939270000000  0.4761750000000  0.4707380000000 1.0
C      1  0.4131930000000  0.5102590000000  0.4317510000000 1.0
C      1  0.4148920000000  0.5651080000000  0.4470720000000 1.0
C      1  0.3859090000000  0.4659330000000  0.5638830000000 1.0
C      1  0.5144150000000  0.4708530000000  0.4252310000000 1.0
C      1  0.4556410000000  0.5175330000000  0.5254410000000 1.0
C      1  0.4970700000000  0.3999070000000  0.5381130000000 1.0
C      1  0.4554280000000  0.5518580000000  0.4705970000000 1.0
C      1  0.5241550000000  0.4365850000000  0.4828880000000 1.0
C      1  0.6012310000000  0.5122300000000  0.5570820000000 1.0
C      1  0.5465150000000  0.5449170000000  0.5208560000000 1.0
C      1  0.5253870000000  0.5348670000000  0.5369830000000 1.0
C      1  0.5013590000000  0.4937160000000  0.5609760000000 1.0
C      1  0.5813080000000  0.4548230000000  0.5695920000000 1.0
C      1  0.5814120000000  0.5696400000000  0.4803250000000 1.0
C      1  0.4543690000000  0.5600800000000  0.5715550000000 1.0
C      1  0.4248110000000  0.5817130000000  0.4284440000000 1.0
C      1  0.5107600000000  0.5771930000000  0.5995780000000 1.0
C      1  0.4117930000000  0.4869340000000  0.5272060000000 1.0
C      1  0.4626360000000  0.4570460000000  0.5052970000000 1.0
C      1  0.5398570000000  0.6014370000000  0.4945310000000 1.0
C      1  0.5097360000000  0.5582360000000  0.6189820000000 1.0
C      1  0.4866160000000  0.6025620000000  0.4458330000000 1.0
C      1  0.4876110000000  0.4136750000000  0.4517640000000 1.0
C      1  0.4489620000000  0.5883860000000  0.4190250000000 1.0
C      1  0.5512030000000  0.5875710000000  0.5437620000000 1.0
C      1  0.4599870000000  0.5268290000000  0.4214370000000 1.0
C      1  0.4704470000000  0.4100640000000  0.5426710000000 1.0
C      1  0.4932670000000  0.5663070000000  0.4125660000000 1.0
C      1  0.4690870000000  0.4818710000000  0.4871620000000 1.0
C      1  0.4316430000000  0.5285250000000  0.4187090000000 1.0
C      1  0.4714810000000  0.4426260000000  0.5790350000000 1.0
C      1  0.4378520000000  0.4732580000000  0.3783370000000 1.0
C      1  0.4084290000000  0.5046880000000  0.4821880000000 1.0
C      1  0.5789660000000  0.5878590000000  0.5388370000000 1.0
C      1  0.4118890000000  0.5343350000000  0.4878540000000 1.0
C      1  0.5014580000000  0.5462830000000  0.5585420000000 1.0
C      1  0.5068010000000  0.4332500000000  0.4591210000000 1.0
C      1  0.4768780000000  0.5643970000000  0.5552250000000 1.0
C      1  0.5421530000000  0.4682590000000  0.4233180000000 1.0
C      1  0.4843710000000  0.3343760000000  0.4099790000000 1.0
C      1  0.5341220000000  0.3660080000000  0.4527040000000 1.0
C      1  0.4760830000000  0.5017480000000  0.5116950000000 1.0
C      1  0.4123120000000  0.4806500000000  0.3739450000000 1.0
C      1  0.4825540000000  0.5884070000000  0.5403320000000 1.0
C      1  0.5593320000000  0.3667090000000  0.4592690000000 1.0
C      1  0.4616280000000  0.5114670000000  0.5531770000000 1.0
C      1  0.6160730000000  0.4967790000000  0.5378190000000 1.0
C      1  0.4116040000000  0.4314490000000  0.5100690000000 1.0
C      1  0.5212880000000  0.5742420000000  0.4105670000000 1.0
C      1  0.5481580000000  0.5850200000000  0.4488670000000 1.0
C      1  0.5010680000000  0.5363290000000  0.5016490000000 1.0
C      1  0.5144740000000  0.5319060000000  0.6088140000000 1.0
C      1  0.4956010000000  0.3502780000000  0.4279400000000 1.0
C      1  0.6203990000000  0.5596230000000  0.4261170000000 1.0
C      1  0.4544710000000  0.5687700000000  0.4932950000000 1.0
C      1  0.6152710000000  0.4901020000000  0.4503790000000 1.0
C      1  0.6088400000000  0.4741000000000  0.5246800000000 1.0
C      1  0.5836670000000  0.4906390000000  0.5705490000000 1.0
C      1  0.4631890000000  0.5007680000000  0.4354370000000 1.0
C      1  0.4509780000000  0.4614770000000  0.5904090000000 1.0
C      1  0.5106870000000  0.5164250000000  0.4835700000000 1.0
C      1  0.4635000000000  0.4602400000000  0.5345830000000 1.0
C      1  0.4805300000000  0.5436770000000  0.4592510000000 1.0
C      1  0.5317690000000  0.5950980000000  0.4276820000000 1.0
C      1  0.6040910000000  0.5420150000000  0.4405130000000 1.0
C      1  0.5541940000000  0.5553120000000  0.4397690000000 1.0
C      1  0.5285710000000  0.4607080000000  0.6199750000000 1.0
C      1  0.5281400000000  0.4182230000000  0.5047900000000 1.0
C      1  0.5539290000000  0.5030430000000  0.6063290000000 1.0
C      1  0.5988450000000  0.5623710000000  0.5036570000000 1.0
C      1  0.5814250000000  0.5527360000000  0.4541810000000 1.0
C      1  0.4619880000000  0.3030320000000  0.3741920000000 1.0
C      1  0.4498210000000  0.4939330000000  0.4598650000000 1.0
C      1  0.3930240000000  0.4995870000000  0.4153700000000 1.0
C      1  0.4108140000000  0.5425680000000  0.5640680000000 1.0
C      1  0.4639490000000  0.4037680000000  0.4946440000000 1.0
C      1  0.4030170000000  0.5465970000000  0.5384120000000 1.0
C      1  0.5451140000000  0.4911720000000  0.5321660000000 1.0
C      1  0.6076370000000  0.5178540000000  0.4931030000000 1.0
C      1  0.4106670000000  0.4522660000000  0.4902320000000 1.0
C      1  0.4097600000000  0.4749390000000  0.5539770000000 1.0
C      1  0.4286210000000  0.5099410000000  0.5241710000000 1.0
C      1  0.5068550000000  0.3675310000000  0.4467950000000 1.0
C      1  0.4871720000000  0.5189510000000  0.5684130000000 1.0
C      1  0.5194550000000  0.4370690000000  0.5670630000000 1.0
C      1  0.4267150000000  0.5475630000000  0.4657430000000 1.0
C      1  0.5353400000000  0.4820600000000  0.6032410000000 1.0
C      1  0.4847040000000  0.5378060000000  0.4103910000000 1.0
C      1  0.5329110000000  0.5393890000000  0.4531800000000 1.0
C      1  0.5667610000000  0.4352550000000  0.5528940000000 1.0
C      1  0.5430840000000  0.5283400000000  0.5985770000000 1.0
C      1  0.5181480000000  0.4547010000000  0.5439330000000 1.0
C      1  0.3895130000000  0.4368220000000  0.4501600000000 1.0
C      1  0.5192890000000  0.6159480000000  0.4807490000000 1.0
C      1  0.5032120000000  0.4491770000000  0.6153490000000 1.0
C      1  0.4136330000000  0.4429450000000  0.4625520000000 1.0
C      1  0.5008730000000  0.5626590000000  0.5058830000000 1.0
C      1  0.5610030000000  0.5303670000000  0.5033250000000 1.0
C      1  0.6106360000000  0.5146610000000  0.4409170000000 1.0
C      1  0.5452940000000  0.5694170000000  0.5655010000000 1.0
C      1  0.6181680000000  0.5424150000000  0.4974070000000 1.0
C      1  0.4603250000000  0.4223130000000  0.4487670000000 1.0
C      1  0.5049830000000  0.5848360000000  0.5229790000000 1.0
C      1  0.5363580000000  0.4643240000000  0.4826940000000 1.0
C      1  0.4811850000000  0.4636100000000  0.6267540000000 1.0
C      1  0.4359180000000  0.5964720000000  0.5266190000000 1.0
C      1  0.4344140000000  0.4734220000000  0.5694870000000 1.0
END
