TITL C-599894-471-907 -1383.00099677732 125000 -1180.43332669568 0 0 193 (C1) n - 1
REM
REM in /home/nfs/bkarasulu/CARBON/AIRSS/Generating-Clusters/TERSOFF/Only-C1/FIRE-HFTN
REM
REM
REM
REM
REM
REM ./C.cell (11c1c37f851c82e70ff6c80c92926a4b)
REM AIRSS Version 0.9.1 bugfix July 2018 build 013d7b7c2542+ Fri, 06 Jul 2018 19:26:36 +0100
REM compiler GCC version 9.2.1 20190827 (Red Hat 9.2.1-1)
REM options -cpp -mtune=generic -march=x86-64 -g -O0 -fpre-include=/usr/include/finclude/math-vector-fortran.h
REM seed 449771937 1547980401 -756212242 -1801070778 -375938182 1233730996 -1502032803 1321398333 992525582 1014415099 -1663623655 717655030 -531957528 386522862 6908921 -1292446323 1350548120 39613331 -1643965747 -1814128008 -309998271 164527911 -755654367 -1475472261 757466361 -1352194176 -827814655 768802953 579108199 507452241 307906485 -663622132 595771306
REM
CELL 1.54180   50.00000   50.00000   50.00000   90.00000   90.00000   90.00000
LATT -1
SFAC C  
C      1  0.4788610000000  0.4296930000000  0.2532010000000 1.0
C      1  0.4641610000000  0.6128530000000  0.5188950000000 1.0
C      1  0.5154430000000  0.5697200000000  0.5056050000000 1.0
C      1  0.5327260000000  0.4565230000000  0.5562200000000 1.0
C      1  0.5340460000000  0.6101970000000  0.4804830000000 1.0
C      1  0.4391590000000  0.5098760000000  0.4230090000000 1.0
C      1  0.4500200000000  0.5297090000000  0.4848790000000 1.0
C      1  0.4815560000000  0.5074720000000  0.6360260000000 1.0
C      1  0.4120640000000  0.4995690000000  0.4202970000000 1.0
C      1  0.5143350000000  0.6027560000000  0.5842080000000 1.0
C      1  0.5853290000000  0.4824670000000  0.5041090000000 1.0
C      1  0.5654970000000  0.4748300000000  0.6214210000000 1.0
C      1  0.4349810000000  0.5146240000000  0.6016130000000 1.0
C      1  0.5581240000000  0.4698230000000  0.5007090000000 1.0
C      1  0.5224010000000  0.5916980000000  0.4190770000000 1.0
C      1  0.4891220000000  0.5945800000000  0.5747440000000 1.0
C      1  0.5693860000000  0.5006070000000  0.6271200000000 1.0
C      1  0.4892030000000  0.5688960000000  0.5626060000000 1.0
C      1  0.3844600000000  0.4416930000000  0.4893880000000 1.0
C      1  0.4221310000000  0.5927150000000  0.5086330000000 1.0
C      1  0.4590500000000  0.4921480000000  0.5542260000000 1.0
C      1  0.4788360000000  0.4394940000000  0.2784220000000 1.0
C      1  0.3793150000000  0.4444700000000  0.4626070000000 1.0
C      1  0.5473610000000  0.4898130000000  0.4823090000000 1.0
C      1  0.5373940000000  0.5857840000000  0.4947350000000 1.0
C      1  0.4340790000000  0.4734730000000  0.4686100000000 1.0
C      1  0.5665520000000  0.5261000000000  0.6198400000000 1.0
C      1  0.5962450000000  0.5080680000000  0.4987830000000 1.0
C      1  0.4386120000000  0.4011640000000  0.5316380000000 1.0
C      1  0.4874020000000  0.4530370000000  0.5458340000000 1.0
C      1  0.4829430000000  0.4755120000000  0.4684990000000 1.0
C      1  0.5040370000000  0.5005790000000  0.5057070000000 1.0
C      1  0.5035250000000  0.3988950000000  0.4473530000000 1.0
C      1  0.4470750000000  0.5024620000000  0.5271040000000 1.0
C      1  0.3947050000000  0.4987730000000  0.4684440000000 1.0
C      1  0.5956680000000  0.5379900000000  0.4994850000000 1.0
C      1  0.4564720000000  0.4931830000000  0.6380240000000 1.0
C      1  0.5981280000000  0.5480490000000  0.5725260000000 1.0
C      1  0.5471940000000  0.6105700000000  0.4556380000000 1.0
C      1  0.4896540000000  0.5436770000000  0.4571270000000 1.0
C      1  0.5162060000000  0.4300680000000  0.5086010000000 1.0
C      1  0.5295250000000  0.5350320000000  0.5625930000000 1.0
C      1  0.4545600000000  0.5356760000000  0.6060200000000 1.0
C      1  0.5119370000000  0.4309280000000  0.5883080000000 1.0
C      1  0.4356240000000  0.4236260000000  0.4218110000000 1.0
C      1  0.5569900000000  0.5438030000000  0.6003810000000 1.0
C      1  0.4179100000000  0.5158700000000  0.5785190000000 1.0
C      1  0.5208050000000  0.4044870000000  0.5212160000000 1.0
C      1  0.5642490000000  0.5769750000000  0.4926060000000 1.0
C      1  0.5831640000000  0.5764400000000  0.4063760000000 1.0
C      1  0.5449990000000  0.5408590000000  0.5384590000000 1.0
C      1  0.4474550000000  0.5594410000000  0.5926540000000 1.0
C      1  0.5240030000000  0.3913270000000  0.4664550000000 1.0
C      1  0.5765630000000  0.5533870000000  0.4797150000000 1.0
C      1  0.5121450000000  0.4209750000000  0.4311190000000 1.0
C      1  0.4876170000000  0.6139860000000  0.4774740000000 1.0
C      1  0.4943230000000  0.4830100000000  0.3395370000000 1.0
C      1  0.4777620000000  0.4723400000000  0.3608110000000 1.0
C      1  0.4767710000000  0.3864110000000  0.5706530000000 1.0
C      1  0.5234340000000  0.5465270000000  0.5189030000000 1.0
C      1  0.5405780000000  0.5965560000000  0.5842550000000 1.0
C      1  0.5573930000000  0.5169520000000  0.5269590000000 1.0
C      1  0.5637350000000  0.5842170000000  0.5730850000000 1.0
C      1  0.4630810000000  0.5417210000000  0.4650050000000 1.0
C      1  0.5256000000000  0.4522290000000  0.6049640000000 1.0
C      1  0.4691210000000  0.4451750000000  0.3250830000000 1.0
C      1  0.5075370000000  0.4733950000000  0.6135600000000 1.0
C      1  0.5902630000000  0.5777240000000  0.5315210000000 1.0
C      1  0.4791890000000  0.3798810000000  0.5132170000000 1.0
C      1  0.4675200000000  0.5564110000000  0.5493240000000 1.0
C      1  0.4933890000000  0.4327460000000  0.4919990000000 1.0
C      1  0.5528190000000  0.5353630000000  0.4798200000000 1.0
C      1  0.4862550000000  0.6151170000000  0.4494310000000 1.0
C      1  0.4885900000000  0.5575860000000  0.3992230000000 1.0
C      1  0.4860890000000  0.5720150000000  0.5056320000000 1.0
C      1  0.4752630000000  0.3958000000000  0.4465950000000 1.0
C      1  0.5829540000000  0.4304430000000  0.5009080000000 1.0
C      1  0.5542630000000  0.4848790000000  0.4552710000000 1.0
C      1  0.4406680000000  0.5629660000000  0.5629630000000 1.0
C      1  0.5312260000000  0.4287700000000  0.5652840000000 1.0
C      1  0.5141850000000  0.5016500000000  0.3442560000000 1.0
C      1  0.4571760000000  0.5276390000000  0.5120070000000 1.0
C      1  0.5413310000000  0.5133260000000  0.3861940000000 1.0
C      1  0.5487460000000  0.4033330000000  0.5267620000000 1.0
C      1  0.5147980000000  0.4764770000000  0.5138680000000 1.0
C      1  0.5786700000000  0.4688270000000  0.4543430000000 1.0
C      1  0.4805640000000  0.4302570000000  0.5883130000000 1.0
C      1  0.5025510000000  0.5668070000000  0.4532140000000 1.0
C      1  0.3941490000000  0.4571580000000  0.4413640000000 1.0
C      1  0.4934030000000  0.4623370000000  0.2888710000000 1.0
C      1  0.4257820000000  0.4443800000000  0.5516530000000 1.0
C      1  0.5754210000000  0.4506120000000  0.5800870000000 1.0
C      1  0.6179590000000  0.4578600000000  0.5365960000000 1.0
C      1  0.4636420000000  0.4640490000000  0.5490730000000 1.0
C      1  0.4700390000000  0.5517950000000  0.5214710000000 1.0
C      1  0.5095710000000  0.5182980000000  0.5510910000000 1.0
C      1  0.5302510000000  0.5400410000000  0.5904220000000 1.0
C      1  0.4681210000000  0.4222280000000  0.4977720000000 1.0
C      1  0.4628140000000  0.4933330000000  0.4252860000000 1.0
C      1  0.5024220000000  0.6101540000000  0.4284070000000 1.0
C      1  0.4424980000000  0.5388310000000  0.4212730000000 1.0
C      1  0.4749040000000  0.5972560000000  0.4970250000000 1.0
C      1  0.4833160000000  0.4762330000000  0.5977150000000 1.0
C      1  0.4217070000000  0.4632800000000  0.5756920000000 1.0
C      1  0.3997820000000  0.4903120000000  0.5430810000000 1.0
C      1  0.4977470000000  0.3777210000000  0.5560360000000 1.0
C      1  0.5067870000000  0.5227240000000  0.5227010000000 1.0
C      1  0.4086120000000  0.5346910000000  0.5301560000000 1.0
C      1  0.5746250000000  0.5597580000000  0.5839650000000 1.0
C      1  0.5707260000000  0.5747420000000  0.4310890000000 1.0
C      1  0.6006480000000  0.4831400000000  0.4442580000000 1.0
C      1  0.4100690000000  0.4791720000000  0.4826310000000 1.0
C      1  0.4853920000000  0.4804710000000  0.4373360000000 1.0
C      1  0.4632800000000  0.4485660000000  0.3529040000000 1.0
C      1  0.4082590000000  0.4887800000000  0.5698690000000 1.0
C      1  0.5027510000000  0.4949210000000  0.5627350000000 1.0
C      1  0.5906110000000  0.4954320000000  0.5618440000000 1.0
C      1  0.4420020000000  0.4191430000000  0.5542660000000 1.0
C      1  0.5105140000000  0.6328000000000  0.5167840000000 1.0
C      1  0.5664840000000  0.4971310000000  0.5465130000000 1.0
C      1  0.5502590000000  0.5139120000000  0.4973020000000 1.0
C      1  0.5117460000000  0.6250410000000  0.4888670000000 1.0
C      1  0.5772920000000  0.4324420000000  0.5550320000000 1.0
C      1  0.5311510000000  0.5124490000000  0.3616550000000 1.0
C      1  0.4645000000000  0.4119280000000  0.5726420000000 1.0
C      1  0.4002980000000  0.5015630000000  0.3948760000000 1.0
C      1  0.4627490000000  0.6062680000000  0.5727940000000 1.0
C      1  0.4272950000000  0.5568200000000  0.4376680000000 1.0
C      1  0.4642360000000  0.4296900000000  0.3015290000000 1.0
C      1  0.5346710000000  0.6295690000000  0.5313100000000 1.0
C      1  0.4251840000000  0.4560840000000  0.5222680000000 1.0
C      1  0.4574460000000  0.4734000000000  0.4836930000000 1.0
C      1  0.4884740000000  0.4668160000000  0.3166920000000 1.0
C      1  0.5188850000000  0.4446230000000  0.4479300000000 1.0
C      1  0.4474760000000  0.4751170000000  0.5109910000000 1.0
C      1  0.3962670000000  0.4871380000000  0.4410820000000 1.0
C      1  0.4036040000000  0.4584260000000  0.5020920000000 1.0
C      1  0.4415980000000  0.4235960000000  0.3943310000000 1.0
C      1  0.5116190000000  0.5710830000000  0.4029430000000 1.0
C      1  0.3905530000000  0.5025800000000  0.3707290000000 1.0
C      1  0.4185410000000  0.5836630000000  0.4833440000000 1.0
C      1  0.4496880000000  0.4323950000000  0.3706660000000 1.0
C      1  0.5747330000000  0.4442840000000  0.4688000000000 1.0
C      1  0.4839080000000  0.6316080000000  0.5278060000000 1.0
C      1  0.4972090000000  0.4998800000000  0.4786890000000 1.0
C      1  0.6089200000000  0.5365890000000  0.5481710000000 1.0
C      1  0.5570820000000  0.6156900000000  0.5370090000000 1.0
C      1  0.4205690000000  0.5721540000000  0.4589490000000 1.0
C      1  0.5052250000000  0.4911470000000  0.6355790000000 1.0
C      1  0.5718770000000  0.5934580000000  0.5468810000000 1.0
C      1  0.4184230000000  0.5410910000000  0.5579780000000 1.0
C      1  0.5084850000000  0.4686660000000  0.5548830000000 1.0
C      1  0.4980770000000  0.4492330000000  0.4700760000000 1.0
C      1  0.3894770000000  0.5229580000000  0.4829030000000 1.0
C      1  0.4143510000000  0.4406250000000  0.4297840000000 1.0
C      1  0.5061130000000  0.5389940000000  0.6062040000000 1.0
C      1  0.4522670000000  0.4077140000000  0.4385970000000 1.0
C      1  0.6247100000000  0.4865210000000  0.5313070000000 1.0
C      1  0.4409380000000  0.5937010000000  0.5570100000000 1.0
C      1  0.5993120000000  0.5349270000000  0.4402000000000 1.0
C      1  0.5372200000000  0.4879430000000  0.4326850000000 1.0
C      1  0.5629610000000  0.4080090000000  0.5017770000000 1.0
C      1  0.5461840000000  0.4069520000000  0.4765450000000 1.0
C      1  0.5139560000000  0.4711550000000  0.4326450000000 1.0
C      1  0.5539980000000  0.4156940000000  0.5520870000000 1.0
C      1  0.5966310000000  0.4706340000000  0.5766450000000 1.0
C      1  0.5553460000000  0.4562680000000  0.6021480000000 1.0
C      1  0.5039440000000  0.5203480000000  0.4611590000000 1.0
C      1  0.5491730000000  0.4321060000000  0.4625050000000 1.0
C      1  0.6125800000000  0.5080440000000  0.5476850000000 1.0
C      1  0.4780510000000  0.4956650000000  0.5766020000000 1.0
C      1  0.4809700000000  0.5301220000000  0.6174130000000 1.0
C      1  0.5944710000000  0.4397550000000  0.5288170000000 1.0
C      1  0.4168260000000  0.5070400000000  0.5283140000000 1.0
C      1  0.4387990000000  0.4895180000000  0.6155800000000 1.0
C      1  0.5429560000000  0.5047260000000  0.4112560000000 1.0
C      1  0.4661540000000  0.4535730000000  0.5977260000000 1.0
C      1  0.4640840000000  0.5487540000000  0.4056740000000 1.0
C      1  0.3940150000000  0.5383460000000  0.5053910000000 1.0
C      1  0.5833580000000  0.5564360000000  0.4502350000000 1.0
C      1  0.5527340000000  0.4732550000000  0.5481990000000 1.0
C      1  0.4160290000000  0.3858230000000  0.5295080000000 1.0
C      1  0.5023610000000  0.3842740000000  0.5289550000000 1.0
C      1  0.4591530000000  0.3998140000000  0.5119120000000 1.0
C      1  0.6060160000000  0.5089870000000  0.4389010000000 1.0
C      1  0.5474240000000  0.5917770000000  0.4341850000000 1.0
C      1  0.6013440000000  0.5518550000000  0.5248130000000 1.0
C      1  0.4391060000000  0.4643280000000  0.5993170000000 1.0
C      1  0.6199510000000  0.4576750000000  0.5659100000000 1.0
C      1  0.5200930000000  0.4197000000000  0.3779540000000 1.0
C      1  0.5150810000000  0.4202620000000  0.4035200000000 1.0
C      1  0.4395590000000  0.6022330000000  0.5292000000000 1.0
C      1  0.5331250000000  0.4547730000000  0.5090880000000 1.0
END
