TITL C-599894-471-1034 0.134379735954864 125000 -130.637196679411 0 0 23 (C1) n - 1
REM
REM in /home/nfs/bkarasulu/CARBON/AIRSS/Generating-Clusters/TERSOFF/Only-C1/FIRE-HFTN
REM
REM
REM
REM
REM
REM ./C.cell (11c1c37f851c82e70ff6c80c92926a4b)
REM AIRSS Version 0.9.1 bugfix July 2018 build 013d7b7c2542+ Fri, 06 Jul 2018 19:26:36 +0100
REM compiler GCC version 9.2.1 20190827 (Red Hat 9.2.1-1)
REM options -cpp -mtune=generic -march=x86-64 -g -O0 -fpre-include=/usr/include/finclude/math-vector-fortran.h
REM seed 637134559 2045021021 -1505156605 -8455583 -1670542529 2024024656 337855217 1786617547 -905740852 331371655 -1312675957 -581343435 -1563411199 -919605439 -2087878070 1475679178 1914215977 -1044624403 1365110324 751512367 289026571 -1261647149 2079281227 -338222074 1059499198 1059518466 -1962023072 1220413548 553753092 2092186131 1428268939 2009114377 -1951002648
REM
CELL 1.54180   50.00000   50.00000   50.00000   90.00000   90.00000   90.00000
LATT -1
SFAC C  
C      1  0.5185520000000  0.5020000000000  0.4481980000000 1.0
C      1  0.4482620000000  0.5015490000000  0.4499450000000 1.0
C      1  0.4965700000000  0.5093670000000  0.4347850000000 1.0
C      1  0.4951270000000  0.4540840000000  0.4885910000000 1.0
C      1  0.5234260000000  0.4890280000000  0.4726150000000 1.0
C      1  0.6141230000000  0.4921710000000  0.5730620000000 1.0
C      1  0.5186690000000  0.5035070000000  0.4970860000000 1.0
C      1  0.4530460000000  0.4789100000000  0.4920790000000 1.0
C      1  0.5174860000000  0.4612370000000  0.4747490000000 1.0
C      1  0.3825300000000  0.4871780000000  0.4771250000000 1.0
C      1  0.4757010000000  0.5353960000000  0.5790660000000 1.0
C      1  0.4872090000000  0.5090240000000  0.5350820000000 1.0
C      1  0.5334010000000  0.5494320000000  0.4986260000000 1.0
C      1  0.4699150000000  0.5088010000000  0.4362070000000 1.0
C      1  0.5574390000000  0.5159810000000  0.5233550000000 1.0
C      1  0.4793180000000  0.4745300000000  0.5005570000000 1.0
C      1  0.5954620000000  0.5000550000000  0.5566520000000 1.0
C      1  0.4361790000000  0.4895800000000  0.4723030000000 1.0
C      1  0.4084620000000  0.4883400000000  0.4747920000000 1.0
C      1  0.4948210000000  0.4961750000000  0.5115960000000 1.0
C      1  0.4812530000000  0.5222230000000  0.5572650000000 1.0
C      1  0.5764870000000  0.5080680000000  0.5399700000000 1.0
C      1  0.5365610000000  0.5233640000000  0.5062940000000 1.0
END
