TITL C-599891-72-1100 0.0809018442535641 125000 -841.070428485657 0 0 138 (C1) n - 1
REM
REM in /home/nfs/bkarasulu/CARBON/AIRSS/Generating-Clusters/TERSOFF/Only-C1/FIRE-HFTN
REM
REM
REM
REM
REM
REM ./C.cell (11c1c37f851c82e70ff6c80c92926a4b)
REM AIRSS Version 0.9.1 bugfix July 2018 build 013d7b7c2542+ Fri, 06 Jul 2018 19:26:36 +0100
REM compiler GCC version 9.2.1 20190827 (Red Hat 9.2.1-1)
REM options -cpp -mtune=generic -march=x86-64 -g -O0 -fpre-include=/usr/include/finclude/math-vector-fortran.h
REM seed -2123721489 -1758132096 -1329853942 1329133527 -250768213 1565574354 808340767 1894028738 1879317232 788034129 2146908985 -922985553 -6038226 -1192781298 1451136374 370127645 449145683 656561305 -1834385801 2003875943 1447487730 -578434241 1814896382 -304867444 780089542 233254890 -1841564570 -1477475076 -2017292460 732122808 -2010171458 -259476559 -2142456197
REM
CELL 1.54180   50.00000   50.00000   50.00000   90.00000   90.00000   90.00000
LATT -1
SFAC C  
C      1  0.5401700000000  0.5003000000000  0.3980450000000 1.0
C      1  0.5002550000000  0.5412360000000  0.5435860000000 1.0
C      1  0.6221600000000  0.5514540000000  0.5151420000000 1.0
C      1  0.4286290000000  0.4468750000000  0.5482490000000 1.0
C      1  0.5168330000000  0.4639060000000  0.3822200000000 1.0
C      1  0.5275240000000  0.5966740000000  0.4342470000000 1.0
C      1  0.4336140000000  0.4938170000000  0.4335190000000 1.0
C      1  0.4652520000000  0.4354500000000  0.4469790000000 1.0
C      1  0.5710670000000  0.4535000000000  0.4689040000000 1.0
C      1  0.4718350000000  0.4054320000000  0.5859950000000 1.0
C      1  0.5920480000000  0.4968290000000  0.4743440000000 1.0
C      1  0.5331300000000  0.4263000000000  0.5743950000000 1.0
C      1  0.4427760000000  0.4407950000000  0.5245800000000 1.0
C      1  0.5320910000000  0.4682730000000  0.5312170000000 1.0
C      1  0.6366100000000  0.5754030000000  0.5156120000000 1.0
C      1  0.4876290000000  0.4422820000000  0.4626460000000 1.0
C      1  0.4483960000000  0.4452790000000  0.5948090000000 1.0
C      1  0.5548640000000  0.5050270000000  0.4225650000000 1.0
C      1  0.4300440000000  0.6093190000000  0.5221140000000 1.0
C      1  0.5979700000000  0.4264340000000  0.5033560000000 1.0
C      1  0.4980490000000  0.4686800000000  0.4575640000000 1.0
C      1  0.4867800000000  0.5326040000000  0.5191230000000 1.0
C      1  0.4666920000000  0.5108440000000  0.4644250000000 1.0
C      1  0.4055510000000  0.5745870000000  0.4971060000000 1.0
C      1  0.4782860000000  0.5348130000000  0.4522860000000 1.0
C      1  0.5018290000000  0.5932370000000  0.4462730000000 1.0
C      1  0.6235370000000  0.6244320000000  0.5197210000000 1.0
C      1  0.4575300000000  0.4602180000000  0.5100200000000 1.0
C      1  0.5047230000000  0.5247990000000  0.5660230000000 1.0
C      1  0.5139260000000  0.5105770000000  0.3897070000000 1.0
C      1  0.5367830000000  0.5790820000000  0.4154810000000 1.0
C      1  0.5764330000000  0.5473630000000  0.5347210000000 1.0
C      1  0.4750650000000  0.5286540000000  0.4238220000000 1.0
C      1  0.5837170000000  0.4773940000000  0.4537450000000 1.0
C      1  0.3998530000000  0.5321360000000  0.4724920000000 1.0
C      1  0.5363130000000  0.5121650000000  0.4917080000000 1.0
C      1  0.5261700000000  0.4735650000000  0.4582230000000 1.0
C      1  0.4660480000000  0.3966290000000  0.5350580000000 1.0
C      1  0.5665370000000  0.4637150000000  0.4061630000000 1.0
C      1  0.4141410000000  0.5745150000000  0.4505400000000 1.0
C      1  0.4767430000000  0.5742610000000  0.4866830000000 1.0
C      1  0.4015530000000  0.5393380000000  0.5492110000000 1.0
C      1  0.6123950000000  0.5279590000000  0.5585670000000 1.0
C      1  0.5506060000000  0.4913370000000  0.5785390000000 1.0
C      1  0.4271940000000  0.5047610000000  0.5057440000000 1.0
C      1  0.3806100000000  0.5024030000000  0.5249880000000 1.0
C      1  0.4729900000000  0.4821030000000  0.4043100000000 1.0
C      1  0.6376620000000  0.6019830000000  0.5167550000000 1.0
C      1  0.5627200000000  0.5218410000000  0.5360250000000 1.0
C      1  0.3320620000000  0.5074140000000  0.4370600000000 1.0
C      1  0.4476900000000  0.4721320000000  0.4177950000000 1.0
C      1  0.5363170000000  0.4089070000000  0.4215550000000 1.0
C      1  0.5285510000000  0.4377040000000  0.4866230000000 1.0
C      1  0.4012570000000  0.4949480000000  0.5449430000000 1.0
C      1  0.4437720000000  0.5614980000000  0.5228740000000 1.0
C      1  0.4645520000000  0.3934180000000  0.5630810000000 1.0
C      1  0.4209700000000  0.5141470000000  0.4796380000000 1.0
C      1  0.4432050000000  0.4481630000000  0.4344200000000 1.0
C      1  0.5925100000000  0.4335880000000  0.5300730000000 1.0
C      1  0.5107260000000  0.4883330000000  0.5344090000000 1.0
C      1  0.5931460000000  0.3420700000000  0.5721050000000 1.0
C      1  0.5099580000000  0.5311000000000  0.5927710000000 1.0
C      1  0.5279570000000  0.5521950000000  0.4144790000000 1.0
C      1  0.4824580000000  0.4905090000000  0.4511770000000 1.0
C      1  0.5890810000000  0.3667840000000  0.5648720000000 1.0
C      1  0.5434060000000  0.4714210000000  0.3905580000000 1.0
C      1  0.4968880000000  0.4679350000000  0.6225890000000 1.0
C      1  0.5760930000000  0.4921710000000  0.4982130000000 1.0
C      1  0.6050820000000  0.5447080000000  0.5368280000000 1.0
C      1  0.5743540000000  0.6217860000000  0.5286060000000 1.0
C      1  0.5672950000000  0.5074760000000  0.5616940000000 1.0
C      1  0.4811610000000  0.5006820000000  0.4242410000000 1.0
C      1  0.4963590000000  0.4447640000000  0.6051200000000 1.0
C      1  0.5410190000000  0.5169690000000  0.4441830000000 1.0
C      1  0.4720930000000  0.4897530000000  0.5632710000000 1.0
C      1  0.4364830000000  0.5902950000000  0.4571420000000 1.0
C      1  0.5212290000000  0.4028310000000  0.5648060000000 1.0
C      1  0.4726830000000  0.4821660000000  0.5055560000000 1.0
C      1  0.5634290000000  0.5719030000000  0.5331720000000 1.0
C      1  0.4307340000000  0.4485470000000  0.5748930000000 1.0
C      1  0.5896070000000  0.4319830000000  0.4780300000000 1.0
C      1  0.4008120000000  0.5151280000000  0.5661060000000 1.0
C      1  0.3758650000000  0.5224430000000  0.4619040000000 1.0
C      1  0.5167110000000  0.4871670000000  0.6148440000000 1.0
C      1  0.4919380000000  0.3944270000000  0.5233410000000 1.0
C      1  0.4479640000000  0.4133190000000  0.5215240000000 1.0
C      1  0.5944390000000  0.5112880000000  0.5704330000000 1.0
C      1  0.4388080000000  0.5065320000000  0.4591290000000 1.0
C      1  0.4341800000000  0.6343280000000  0.5298100000000 1.0
C      1  0.5554630000000  0.4595670000000  0.5471620000000 1.0
C      1  0.6219230000000  0.5352990000000  0.4921040000000 1.0
C      1  0.5259700000000  0.5403940000000  0.4409370000000 1.0
C      1  0.5025640000000  0.4270240000000  0.4820580000000 1.0
C      1  0.3761850000000  0.4843790000000  0.5038150000000 1.0
C      1  0.5984410000000  0.6324660000000  0.5241960000000 1.0
C      1  0.4489950000000  0.4930780000000  0.5501870000000 1.0
C      1  0.4271710000000  0.4948150000000  0.5324980000000 1.0
C      1  0.5829330000000  0.4605100000000  0.5365280000000 1.0
C      1  0.5387540000000  0.4567990000000  0.5058260000000 1.0
C      1  0.5579990000000  0.5107750000000  0.5102130000000 1.0
C      1  0.4727280000000  0.4311130000000  0.5976870000000 1.0
C      1  0.5618980000000  0.5984040000000  0.5315930000000 1.0
C      1  0.4990100000000  0.5735320000000  0.4679470000000 1.0
C      1  0.4692190000000  0.5548470000000  0.5085520000000 1.0
C      1  0.4915380000000  0.5018730000000  0.5147840000000 1.0
C      1  0.5846040000000  0.3918450000000  0.5575420000000 1.0
C      1  0.5032670000000  0.5474290000000  0.4576480000000 1.0
C      1  0.4035370000000  0.5730750000000  0.4255270000000 1.0
C      1  0.3997750000000  0.5125630000000  0.5929650000000 1.0
C      1  0.4278100000000  0.5485260000000  0.5427630000000 1.0
C      1  0.4962480000000  0.4848000000000  0.3859410000000 1.0
C      1  0.5096430000000  0.5389130000000  0.3957650000000 1.0
C      1  0.3848340000000  0.4674680000000  0.4846820000000 1.0
C      1  0.4384440000000  0.6589530000000  0.5372290000000 1.0
C      1  0.3537110000000  0.5153360000000  0.4492290000000 1.0
C      1  0.6114990000000  0.5166930000000  0.4760160000000 1.0
C      1  0.5399600000000  0.4286150000000  0.4382070000000 1.0
C      1  0.5138640000000  0.5150320000000  0.6140550000000 1.0
C      1  0.5127540000000  0.3915790000000  0.5419930000000 1.0
C      1  0.4828360000000  0.5465650000000  0.4036090000000 1.0
C      1  0.4181070000000  0.4468960000000  0.4482230000000 1.0
C      1  0.5735320000000  0.4826410000000  0.4275620000000 1.0
C      1  0.4954050000000  0.4048800000000  0.4975050000000 1.0
C      1  0.5217770000000  0.4468510000000  0.5903280000000 1.0
C      1  0.4755450000000  0.5737080000000  0.4071520000000 1.0
C      1  0.4558350000000  0.5901550000000  0.4756740000000 1.0
C      1  0.5779980000000  0.4175920000000  0.5498500000000 1.0
C      1  0.4811640000000  0.5921580000000  0.4262750000000 1.0
C      1  0.3995420000000  0.4547630000000  0.4660720000000 1.0
C      1  0.4990810000000  0.4972320000000  0.5596830000000 1.0
C      1  0.5559470000000  0.4334890000000  0.5600520000000 1.0
C      1  0.5423660000000  0.4475390000000  0.4604060000000 1.0
C      1  0.5341870000000  0.5002400000000  0.4658090000000 1.0
C      1  0.5641890000000  0.4665480000000  0.4959140000000 1.0
C      1  0.4269000000000  0.5831040000000  0.5133860000000 1.0
C      1  0.4038820000000  0.5602380000000  0.4729770000000 1.0
C      1  0.3813470000000  0.5317410000000  0.5284010000000 1.0
C      1  0.5334440000000  0.4744470000000  0.5940550000000 1.0
END
