TITL C-599890-3321-1142 -7.57848250509628e-06 125000 -316.482927432888 0 0 53 (C1) n - 1
REM
REM in /home/nfs/bkarasulu/CARBON/AIRSS/Generating-Clusters/TERSOFF/Only-C1/FIRE-HFTN
REM
REM
REM
REM
REM
REM ./C.cell (11c1c37f851c82e70ff6c80c92926a4b)
REM AIRSS Version 0.9.1 bugfix July 2018 build 013d7b7c2542+ Fri, 06 Jul 2018 19:26:36 +0100
REM compiler GCC version 9.2.1 20190827 (Red Hat 9.2.1-1)
REM options -cpp -mtune=generic -march=x86-64 -g -O0 -fpre-include=/usr/include/finclude/math-vector-fortran.h
REM seed 577437919 -1043263398 286643757 -380879071 -1855441 -1200243021 -178636273 -2055535245 -1111427739 -798588164 -850230777 -901719235 -557634760 107510260 -200508518 -116539551 -1501983170 -1815670846 -1494977805 659651538 -59264882 513812004 1638083584 -1617660970 506347657 -852621734 359808130 1735950003 -613081442 105812826 -2084162484 -1903055609 110397156
REM
CELL 1.54180   50.00000   50.00000   50.00000   90.00000   90.00000   90.00000
LATT -1
SFAC C  
C      1  0.4333530000000  0.4418070000000  0.5415300000000 1.0
C      1  0.5448610000000  0.4405170000000  0.5024480000000 1.0
C      1  0.4981780000000  0.4071330000000  0.4783690000000 1.0
C      1  0.5086880000000  0.5546130000000  0.4490650000000 1.0
C      1  0.4257530000000  0.5080180000000  0.5187400000000 1.0
C      1  0.4414390000000  0.5411070000000  0.5503890000000 1.0
C      1  0.4632890000000  0.5414270000000  0.4577980000000 1.0
C      1  0.4696930000000  0.4509200000000  0.4542830000000 1.0
C      1  0.4803560000000  0.6119600000000  0.5020850000000 1.0
C      1  0.5603990000000  0.4617410000000  0.5126820000000 1.0
C      1  0.5399260000000  0.4349000000000  0.4749560000000 1.0
C      1  0.5547400000000  0.5109910000000  0.4674590000000 1.0
C      1  0.5546130000000  0.4483850000000  0.4543790000000 1.0
C      1  0.4831490000000  0.5002860000000  0.4844070000000 1.0
C      1  0.5491840000000  0.4984690000000  0.5467010000000 1.0
C      1  0.4752790000000  0.4800100000000  0.5036150000000 1.0
C      1  0.4485370000000  0.4649230000000  0.4994260000000 1.0
C      1  0.4588910000000  0.5396310000000  0.5051460000000 1.0
C      1  0.4465500000000  0.4403880000000  0.5169010000000 1.0
C      1  0.5410440000000  0.5150770000000  0.5674510000000 1.0
C      1  0.4913700000000  0.4723730000000  0.5254130000000 1.0
C      1  0.5293070000000  0.5381140000000  0.5737690000000 1.0
C      1  0.5124500000000  0.4287440000000  0.4677640000000 1.0
C      1  0.4771430000000  0.4034430000000  0.4944290000000 1.0
C      1  0.4270870000000  0.4843980000000  0.5062790000000 1.0
C      1  0.5675090000000  0.5336870000000  0.5181380000000 1.0
C      1  0.4585460000000  0.4164690000000  0.5083610000000 1.0
C      1  0.5283060000000  0.5174160000000  0.4709310000000 1.0
C      1  0.5216150000000  0.5452220000000  0.4722210000000 1.0
C      1  0.4846080000000  0.5461700000000  0.4400830000000 1.0
C      1  0.4976330000000  0.4506520000000  0.4560570000000 1.0
C      1  0.5075980000000  0.4976200000000  0.4692690000000 1.0
C      1  0.5797970000000  0.4417970000000  0.4465770000000 1.0
C      1  0.5147140000000  0.4595720000000  0.5339720000000 1.0
C      1  0.4671850000000  0.5237350000000  0.4815880000000 1.0
C      1  0.4824220000000  0.5841850000000  0.5039370000000 1.0
C      1  0.5516920000000  0.5531010000000  0.5086110000000 1.0
C      1  0.5107650000000  0.5719740000000  0.5407880000000 1.0
C      1  0.4217830000000  0.4439380000000  0.5647840000000 1.0
C      1  0.4605550000000  0.5677110000000  0.4969200000000 1.0
C      1  0.5762980000000  0.4843670000000  0.5109230000000 1.0
C      1  0.4418850000000  0.5300220000000  0.5254670000000 1.0
C      1  0.5179790000000  0.5598060000000  0.5632900000000 1.0
C      1  0.5392070000000  0.4694770000000  0.4431390000000 1.0
C      1  0.4491650000000  0.4570350000000  0.4704980000000 1.0
C      1  0.5265820000000  0.5590140000000  0.4967110000000 1.0
C      1  0.4785750000000  0.6378880000000  0.5001700000000 1.0
C      1  0.4523170000000  0.5658720000000  0.4692350000000 1.0
C      1  0.5681120000000  0.5069990000000  0.5265710000000 1.0
C      1  0.5375390000000  0.4741310000000  0.5402170000000 1.0
C      1  0.5129170000000  0.4746620000000  0.4529820000000 1.0
C      1  0.5225980000000  0.4357990000000  0.5201720000000 1.0
C      1  0.5068240000000  0.5723040000000  0.5129010000000 1.0
END
