TITL C-599896-8500-765 0.192004344183744 125000 -419.166605010008 0 0 71 (C1) n - 1
REM
REM in /home/nfs/bkarasulu/CARBON/AIRSS/Generating-Clusters/TERSOFF/Only-C1/FIRE-HFTN
REM
REM
REM
REM
REM
REM ./C.cell (11c1c37f851c82e70ff6c80c92926a4b)
REM AIRSS Version 0.9.1 bugfix July 2018 build 013d7b7c2542+ Fri, 06 Jul 2018 19:26:36 +0100
REM compiler GCC version 9.2.1 20190827 (Red Hat 9.2.1-1)
REM options -cpp -mtune=generic -march=x86-64 -g -O0 -fpre-include=/usr/include/finclude/math-vector-fortran.h
REM seed -1194334306 1384724937 -1174946593 1172360732 780689244 -1014321829 -1425616333 1565990744 1003524610 -671283796 317344158 934929178 914507773 1175401362 1782447453 260148251 -209220371 1259398507 -2085830425 687937956 62193517 -137421134 -515683930 1297963942 1169752992 -1755174451 -413044351 124205212 -881624054 1930927862 -1152650897 -695324445 906074053
REM
CELL 1.54180   50.00000   50.00000   50.00000   90.00000   90.00000   90.00000
LATT -1
SFAC C  
C      1  0.5376450000000  0.4257580000000  0.5274410000000 1.0
C      1  0.4557420000000  0.5151080000000  0.4587800000000 1.0
C      1  0.6487990000000  0.5454430000000  0.5414010000000 1.0
C      1  0.4693020000000  0.4367970000000  0.5022050000000 1.0
C      1  0.5729550000000  0.5170420000000  0.5380140000000 1.0
C      1  0.3560140000000  0.4862810000000  0.4374090000000 1.0
C      1  0.4715320000000  0.4667960000000  0.4646810000000 1.0
C      1  0.4834460000000  0.4590610000000  0.4908590000000 1.0
C      1  0.4774100000000  0.5415240000000  0.4222530000000 1.0
C      1  0.4599160000000  0.4434140000000  0.5280170000000 1.0
C      1  0.4895190000000  0.5526740000000  0.4674320000000 1.0
C      1  0.5494450000000  0.4953970000000  0.4424460000000 1.0
C      1  0.4682470000000  0.4189890000000  0.4786490000000 1.0
C      1  0.6730620000000  0.5549700000000  0.5418720000000 1.0
C      1  0.4669770000000  0.5155660000000  0.4295020000000 1.0
C      1  0.5219180000000  0.4203630000000  0.5503260000000 1.0
C      1  0.5042270000000  0.5061300000000  0.4717900000000 1.0
C      1  0.4942860000000  0.5709250000000  0.5413150000000 1.0
C      1  0.5787290000000  0.5368000000000  0.4827530000000 1.0
C      1  0.4936860000000  0.4844990000000  0.4532570000000 1.0
C      1  0.5307300000000  0.5167400000000  0.4861290000000 1.0
C      1  0.5444040000000  0.5692460000000  0.5332150000000 1.0
C      1  0.4890650000000  0.3998480000000  0.4785040000000 1.0
C      1  0.5096570000000  0.5157330000000  0.5282060000000 1.0
C      1  0.4338600000000  0.5337050000000  0.4663950000000 1.0
C      1  0.5318980000000  0.5126880000000  0.4262310000000 1.0
C      1  0.5471810000000  0.4924550000000  0.4954210000000 1.0
C      1  0.4237760000000  0.5420970000000  0.4897920000000 1.0
C      1  0.5109170000000  0.4997170000000  0.4119680000000 1.0
C      1  0.5255790000000  0.5404410000000  0.4343370000000 1.0
C      1  0.5994190000000  0.5262740000000  0.5399970000000 1.0
C      1  0.5326650000000  0.4088620000000  0.5051970000000 1.0
C      1  0.5564570000000  0.4837260000000  0.4668060000000 1.0
C      1  0.4343600000000  0.5336030000000  0.5401440000000 1.0
C      1  0.6241270000000  0.5357720000000  0.5408740000000 1.0
C      1  0.4986510000000  0.5512140000000  0.4391270000000 1.0
C      1  0.5092660000000  0.5558830000000  0.5610680000000 1.0
C      1  0.5537810000000  0.5294420000000  0.5557600000000 1.0
C      1  0.4752260000000  0.5174310000000  0.5709970000000 1.0
C      1  0.5219870000000  0.5328320000000  0.5095040000000 1.0
C      1  0.3343350000000  0.4892630000000  0.4232390000000 1.0
C      1  0.3780600000000  0.4832700000000  0.4518120000000 1.0
C      1  0.5453280000000  0.5508440000000  0.4513670000000 1.0
C      1  0.4828850000000  0.4901690000000  0.5734510000000 1.0
C      1  0.5680780000000  0.4959620000000  0.5189530000000 1.0
C      1  0.5276000000000  0.4723070000000  0.5114280000000 1.0
C      1  0.4970720000000  0.4282640000000  0.5568690000000 1.0
C      1  0.5470510000000  0.4525230000000  0.5244950000000 1.0
C      1  0.5139440000000  0.3985250000000  0.4888730000000 1.0
C      1  0.4943810000000  0.5374630000000  0.5760600000000 1.0
C      1  0.4486620000000  0.4864770000000  0.4673420000000 1.0
C      1  0.4874420000000  0.4946570000000  0.4268310000000 1.0
C      1  0.4817160000000  0.5251390000000  0.4733500000000 1.0
C      1  0.5108320000000  0.4588130000000  0.4924230000000 1.0
C      1  0.4247530000000  0.5409450000000  0.5164180000000 1.0
C      1  0.4805900000000  0.4489290000000  0.5471160000000 1.0
C      1  0.4868280000000  0.5753390000000  0.5156370000000 1.0
C      1  0.5531030000000  0.5356030000000  0.4735240000000 1.0
C      1  0.4002040000000  0.4806370000000  0.4661000000000 1.0
C      1  0.5706080000000  0.4682890000000  0.5288780000000 1.0
C      1  0.4635880000000  0.4381720000000  0.4561290000000 1.0
C      1  0.5378820000000  0.5534500000000  0.5560800000000 1.0
C      1  0.4911050000000  0.4755930000000  0.5502190000000 1.0
C      1  0.4241400000000  0.4797550000000  0.4804610000000 1.0
C      1  0.4871600000000  0.5708190000000  0.4889290000000 1.0
C      1  0.4509190000000  0.5245000000000  0.5588840000000 1.0
C      1  0.5098830000000  0.4874140000000  0.5316870000000 1.0
C      1  0.5338400000000  0.5586820000000  0.5106340000000 1.0
C      1  0.4827820000000  0.4781330000000  0.5980590000000 1.0
C      1  0.4239900000000  0.4714960000000  0.5074260000000 1.0
C      1  0.4353740000000  0.4573260000000  0.5272520000000 1.0
END
