TITL C-599895-9959-1241 136.76590608682 125000 -897.13267928214 0 0 146 (C1) n - 1
REM
REM in /home/nfs/bkarasulu/CARBON/AIRSS/Generating-Clusters/TERSOFF/Only-C1/FIRE-HFTN
REM
REM
REM
REM
REM
REM ./C.cell (11c1c37f851c82e70ff6c80c92926a4b)
REM AIRSS Version 0.9.1 bugfix July 2018 build 013d7b7c2542+ Fri, 06 Jul 2018 19:26:36 +0100
REM compiler GCC version 9.2.1 20190827 (Red Hat 9.2.1-1)
REM options -cpp -mtune=generic -march=x86-64 -g -O0 -fpre-include=/usr/include/finclude/math-vector-fortran.h
REM seed 1729708490 -412544716 1837624574 -377994653 1680818456 -2034442404 -292185229 -331537563 -1448353576 1446611341 -720053420 666690977 -1923771485 -302434454 -410436622 271467705 -1385337294 -158058275 -257328587 -1900675684 -46857102 -1211482270 1257949885 -376592479 -1077321648 1283985880 -1232060539 -1059054019 -304741192 -1217082377 707814888 -711227854 1307677423
REM
CELL 1.54180   50.00000   50.00000   50.00000   90.00000   90.00000   90.00000
LATT -1
SFAC C  
C      1  0.5369520000000  0.4233450000000  0.5649490000000 1.0
C      1  0.4407780000000  0.4710980000000  0.3931670000000 1.0
C      1  0.5806760000000  0.5581480000000  0.5123010000000 1.0
C      1  0.5290200000000  0.5556260000000  0.5262370000000 1.0
C      1  0.4757290000000  0.4877110000000  0.5124000000000 1.0
C      1  0.4084100000000  0.4977570000000  0.4707680000000 1.0
C      1  0.4337090000000  0.4427820000000  0.5428620000000 1.0
C      1  0.4248820000000  0.4973650000000  0.4470550000000 1.0
C      1  0.5613240000000  0.4674050000000  0.3814770000000 1.0
C      1  0.5571000000000  0.5888090000000  0.5430610000000 1.0
C      1  0.5360600000000  0.4134160000000  0.4904900000000 1.0
C      1  0.5935510000000  0.4613190000000  0.5017400000000 1.0
C      1  0.4577820000000  0.4056430000000  0.5215620000000 1.0
C      1  0.5514980000000  0.4678890000000  0.4068990000000 1.0
C      1  0.4365220000000  0.4331910000000  0.4846910000000 1.0
C      1  0.4905020000000  0.5265890000000  0.4412330000000 1.0
C      1  0.4555400000000  0.6034500000000  0.5054790000000 1.0
C      1  0.5525960000000  0.4201960000000  0.5408390000000 1.0
C      1  0.5405010000000  0.4908540000000  0.4196770000000 1.0
C      1  0.4366710000000  0.4361530000000  0.5700230000000 1.0
C      1  0.5102300000000  0.5955110000000  0.5551200000000 1.0
C      1  0.5084460000000  0.5691990000000  0.4273070000000 1.0
C      1  0.4596520000000  0.4375640000000  0.5269990000000 1.0
C      1  0.4065030000000  0.4795510000000  0.5230550000000 1.0
C      1  0.4826370000000  0.3826430000000  0.4865920000000 1.0
C      1  0.5087240000000  0.4206830000000  0.4971720000000 1.0
C      1  0.4798680000000  0.6111890000000  0.5185090000000 1.0
C      1  0.5080850000000  0.5415120000000  0.5385070000000 1.0
C      1  0.4865410000000  0.5069800000000  0.4938300000000 1.0
C      1  0.4880270000000  0.4374450000000  0.4098710000000 1.0
C      1  0.5796440000000  0.5320790000000  0.4659470000000 1.0
C      1  0.4742590000000  0.5098570000000  0.3977180000000 1.0
C      1  0.5141660000000  0.5792000000000  0.5785830000000 1.0
C      1  0.4631190000000  0.5196610000000  0.5459060000000 1.0
C      1  0.4683870000000  0.4995550000000  0.5899900000000 1.0
C      1  0.4824020000000  0.5977310000000  0.5453320000000 1.0
C      1  0.4020760000000  0.4900400000000  0.4961420000000 1.0
C      1  0.5254570000000  0.5591100000000  0.4975810000000 1.0
C      1  0.5239070000000  0.4648970000000  0.4622580000000 1.0
C      1  0.4887790000000  0.5728860000000  0.5916300000000 1.0
C      1  0.4034970000000  0.5531410000000  0.5354970000000 1.0
C      1  0.5770940000000  0.4720100000000  0.5765160000000 1.0
C      1  0.4588340000000  0.4342180000000  0.4159750000000 1.0
C      1  0.5543460000000  0.4882480000000  0.4912280000000 1.0
C      1  0.5861090000000  0.4796890000000  0.4470630000000 1.0
C      1  0.3881810000000  0.5695000000000  0.5182330000000 1.0
C      1  0.5580120000000  0.5631880000000  0.5301220000000 1.0
C      1  0.5902760000000  0.4383930000000  0.4880900000000 1.0
C      1  0.4733830000000  0.3812180000000  0.5146490000000 1.0
C      1  0.5055710000000  0.3817090000000  0.5561850000000 1.0
C      1  0.4052410000000  0.5163460000000  0.5653870000000 1.0
C      1  0.5415010000000  0.4725330000000  0.5350470000000 1.0
C      1  0.5076320000000  0.4397440000000  0.5186660000000 1.0
C      1  0.4543760000000  0.4659850000000  0.4598170000000 1.0
C      1  0.4600990000000  0.5549400000000  0.4181440000000 1.0
C      1  0.5857590000000  0.5340940000000  0.4967280000000 1.0
C      1  0.5108420000000  0.5053030000000  0.4800300000000 1.0
C      1  0.5936530000000  0.4848290000000  0.5587450000000 1.0
C      1  0.4606380000000  0.4643030000000  0.5084540000000 1.0
C      1  0.5127150000000  0.5352450000000  0.5995680000000 1.0
C      1  0.4441030000000  0.4620920000000  0.4860210000000 1.0
C      1  0.5366300000000  0.4658860000000  0.4881210000000 1.0
C      1  0.4626250000000  0.4234910000000  0.4735280000000 1.0
C      1  0.5369280000000  0.5101880000000  0.4890960000000 1.0
C      1  0.5443140000000  0.5180960000000  0.5588990000000 1.0
C      1  0.4499820000000  0.6004670000000  0.4776550000000 1.0
C      1  0.4665320000000  0.4817760000000  0.3905780000000 1.0
C      1  0.4130340000000  0.4330790000000  0.5015600000000 1.0
C      1  0.4765960000000  0.5346040000000  0.4839830000000 1.0
C      1  0.5997230000000  0.5323970000000  0.5575330000000 1.0
C      1  0.5089420000000  0.5076630000000  0.4512810000000 1.0
C      1  0.5169210000000  0.5193490000000  0.5530550000000 1.0
C      1  0.5105800000000  0.4809490000000  0.3848480000000 1.0
C      1  0.4125880000000  0.4508210000000  0.5251050000000 1.0
C      1  0.5031470000000  0.6180790000000  0.5040620000000 1.0
C      1  0.4354930000000  0.4714360000000  0.4399360000000 1.0
C      1  0.5082980000000  0.4183620000000  0.4257920000000 1.0
C      1  0.5273590000000  0.4594170000000  0.5147820000000 1.0
C      1  0.5424860000000  0.5367250000000  0.4887090000000 1.0
C      1  0.4149680000000  0.4993910000000  0.5430530000000 1.0
C      1  0.5405170000000  0.4897030000000  0.6050490000000 1.0
C      1  0.5203700000000  0.4002540000000  0.5690360000000 1.0
C      1  0.4558540000000  0.5815110000000  0.5505870000000 1.0
C      1  0.5479560000000  0.4193880000000  0.4643430000000 1.0
C      1  0.5328580000000  0.6024560000000  0.5375640000000 1.0
C      1  0.5432800000000  0.5782320000000  0.4612610000000 1.0
C      1  0.4435780000000  0.5836560000000  0.5230890000000 1.0
C      1  0.4852690000000  0.4111170000000  0.4851040000000 1.0
C      1  0.4613920000000  0.4311540000000  0.5799540000000 1.0
C      1  0.5313250000000  0.4487530000000  0.5800210000000 1.0
C      1  0.4630130000000  0.5294500000000  0.5763760000000 1.0
C      1  0.5913540000000  0.5099950000000  0.5133630000000 1.0
C      1  0.4418110000000  0.5556800000000  0.5697340000000 1.0
C      1  0.4123180000000  0.5458760000000  0.5632390000000 1.0
C      1  0.5006230000000  0.4504630000000  0.4587080000000 1.0
C      1  0.4445150000000  0.5728330000000  0.4350220000000 1.0
C      1  0.4897690000000  0.4629060000000  0.3929540000000 1.0
C      1  0.5865900000000  0.5063020000000  0.4532590000000 1.0
C      1  0.4901900000000  0.3727390000000  0.5359380000000 1.0
C      1  0.4654100000000  0.5265000000000  0.4573480000000 1.0
C      1  0.4243980000000  0.5401120000000  0.5203070000000 1.0
C      1  0.5330430000000  0.5164950000000  0.4081360000000 1.0
C      1  0.5455480000000  0.5409670000000  0.4190980000000 1.0
C      1  0.5995530000000  0.5782050000000  0.5099190000000 1.0
C      1  0.4874650000000  0.4387540000000  0.5391340000000 1.0
C      1  0.4902660000000  0.3759910000000  0.4590400000000 1.0
C      1  0.4858220000000  0.4390120000000  0.5677180000000 1.0
C      1  0.5247470000000  0.5113230000000  0.6090210000000 1.0
C      1  0.4877070000000  0.5510110000000  0.4249430000000 1.0
C      1  0.5027670000000  0.5580140000000  0.4764310000000 1.0
C      1  0.4434070000000  0.5178900000000  0.4401560000000 1.0
C      1  0.5982900000000  0.5084690000000  0.5421280000000 1.0
C      1  0.4385070000000  0.4553520000000  0.4164940000000 1.0
C      1  0.3922100000000  0.5764030000000  0.4921320000000 1.0
C      1  0.5389740000000  0.5857540000000  0.4893940000000 1.0
C      1  0.4781720000000  0.4951160000000  0.5394470000000 1.0
C      1  0.5028190000000  0.4955110000000  0.5517840000000 1.0
C      1  0.5062860000000  0.5095240000000  0.3943870000000 1.0
C      1  0.5284290000000  0.6060250000000  0.5085430000000 1.0
C      1  0.5742170000000  0.4334670000000  0.4656590000000 1.0
C      1  0.5813670000000  0.5448360000000  0.5730940000000 1.0
C      1  0.4870130000000  0.4792360000000  0.5927480000000 1.0
C      1  0.5552080000000  0.4463400000000  0.4248930000000 1.0
C      1  0.5522210000000  0.4943640000000  0.5461960000000 1.0
C      1  0.5026350000000  0.4564370000000  0.5826100000000 1.0
C      1  0.4979890000000  0.3928990000000  0.4380610000000 1.0
C      1  0.4676730000000  0.5477680000000  0.5073820000000 1.0
C      1  0.5310490000000  0.5642500000000  0.4111110000000 1.0
C      1  0.5510420000000  0.4684690000000  0.5887770000000 1.0
C      1  0.4804930000000  0.5406640000000  0.5316090000000 1.0
C      1  0.4356580000000  0.5169130000000  0.5327520000000 1.0
C      1  0.4081820000000  0.5786510000000  0.4703150000000 1.0
C      1  0.5313320000000  0.5551330000000  0.5860610000000 1.0
C      1  0.5259570000000  0.4863520000000  0.4432510000000 1.0
C      1  0.5805330000000  0.4861930000000  0.5019510000000 1.0
C      1  0.5606200000000  0.5507220000000  0.4491200000000 1.0
C      1  0.5760880000000  0.4527420000000  0.4443510000000 1.0
C      1  0.4736910000000  0.4456380000000  0.4579340000000 1.0
C      1  0.4341590000000  0.5845530000000  0.4595410000000 1.0
C      1  0.5148120000000  0.5726870000000  0.4543060000000 1.0
C      1  0.5535460000000  0.5408480000000  0.5739910000000 1.0
C      1  0.5360120000000  0.4258110000000  0.4359660000000 1.0
C      1  0.4527330000000  0.5264520000000  0.4126840000000 1.0
C      1  0.4850640000000  0.5445210000000  0.5935110000000 1.0
C      1  0.5520070000000  0.4118260000000  0.5147830000000 1.0
C      1  0.4425770000000  0.5583870000000  0.5104800000000 1.0
END
