TITL C-599897-7526-1415 0.149871259768635 125000 -477.60589652303 0 0 78 (C1) n - 1
REM
REM in /home/nfs/bkarasulu/CARBON/AIRSS/Generating-Clusters/TERSOFF/Only-C1/FIRE-HFTN
REM
REM
REM
REM
REM
REM ./C.cell (11c1c37f851c82e70ff6c80c92926a4b)
REM AIRSS Version 0.9.1 bugfix July 2018 build 013d7b7c2542+ Fri, 06 Jul 2018 19:26:36 +0100
REM compiler GCC version 9.2.1 20190827 (Red Hat 9.2.1-1)
REM options -cpp -mtune=generic -march=x86-64 -g -O0 -fpre-include=/usr/include/finclude/math-vector-fortran.h
REM seed 545896398 -519314020 176750317 1876251460 -1264548739 1268896617 909063621 159073412 -2124657419 1914440137 -349072546 569662976 2112855706 1572503181 1826848957 -1436882167 -987045773 -262011517 2049999978 -700095182 -901109714 -846266797 480124809 -1672275778 -1662740376 1326304323 -335958224 944790877 -1901228803 -1110402593 -410784837 -995166406 -1921737456
REM
CELL 1.54180   50.00000   50.00000   50.00000   90.00000   90.00000   90.00000
LATT -1
SFAC C  
C      1  0.4709330000000  0.4141030000000  0.4965930000000 1.0
C      1  0.5280740000000  0.5644070000000  0.5627290000000 1.0
C      1  0.4007980000000  0.3996350000000  0.4875860000000 1.0
C      1  0.6070800000000  0.5967690000000  0.4825400000000 1.0
C      1  0.5972770000000  0.5111290000000  0.4998130000000 1.0
C      1  0.4991690000000  0.4058650000000  0.5840680000000 1.0
C      1  0.4453310000000  0.4874340000000  0.4684620000000 1.0
C      1  0.5793280000000  0.4984440000000  0.4818270000000 1.0
C      1  0.4003810000000  0.4361350000000  0.4556580000000 1.0
C      1  0.6201100000000  0.5555960000000  0.5058570000000 1.0
C      1  0.5228770000000  0.4643980000000  0.5466550000000 1.0
C      1  0.5761670000000  0.4517760000000  0.5167470000000 1.0
C      1  0.5254300000000  0.4920260000000  0.5418030000000 1.0
C      1  0.4868340000000  0.5789260000000  0.4759660000000 1.0
C      1  0.5378920000000  0.5039950000000  0.5643520000000 1.0
C      1  0.5866690000000  0.5626630000000  0.4520260000000 1.0
C      1  0.5461640000000  0.5296830000000  0.5187290000000 1.0
C      1  0.4063910000000  0.4644000000000  0.4590140000000 1.0
C      1  0.5486990000000  0.4521470000000  0.5546530000000 1.0
C      1  0.4507040000000  0.3968570000000  0.4978920000000 1.0
C      1  0.4200000000000  0.4261890000000  0.4371180000000 1.0
C      1  0.5412920000000  0.4291700000000  0.5700410000000 1.0
C      1  0.4721730000000  0.4880240000000  0.4770620000000 1.0
C      1  0.4011530000000  0.4795760000000  0.4832000000000 1.0
C      1  0.5933860000000  0.5887950000000  0.4606320000000 1.0
C      1  0.5162230000000  0.5703990000000  0.4370450000000 1.0
C      1  0.5623670000000  0.5561330000000  0.4399560000000 1.0
C      1  0.4464880000000  0.5368810000000  0.4976050000000 1.0
C      1  0.6186870000000  0.5823510000000  0.5022280000000 1.0
C      1  0.5350930000000  0.5499640000000  0.4411490000000 1.0
C      1  0.4322940000000  0.5603780000000  0.4923070000000 1.0
C      1  0.5527700000000  0.5567740000000  0.5702970000000 1.0
C      1  0.5386880000000  0.6016330000000  0.5032710000000 1.0
C      1  0.5658790000000  0.5092870000000  0.5641290000000 1.0
C      1  0.5810350000000  0.4908570000000  0.5472420000000 1.0
C      1  0.4869990000000  0.5122860000000  0.4806490000000 1.0
C      1  0.5319700000000  0.4953050000000  0.4905600000000 1.0
C      1  0.5062230000000  0.5677400000000  0.5188420000000 1.0
C      1  0.5126190000000  0.4261390000000  0.5721310000000 1.0
C      1  0.4338990000000  0.4699610000000  0.4488340000000 1.0
C      1  0.5717720000000  0.4632130000000  0.5424690000000 1.0
C      1  0.4326860000000  0.5084250000000  0.5342240000000 1.0
C      1  0.4321920000000  0.5141460000000  0.5069330000000 1.0
C      1  0.4644300000000  0.4163040000000  0.4035630000000 1.0
C      1  0.5014060000000  0.4492600000000  0.5585470000000 1.0
C      1  0.4831540000000  0.4633810000000  0.4850480000000 1.0
C      1  0.6024300000000  0.5422330000000  0.4635620000000 1.0
C      1  0.4653180000000  0.5290500000000  0.5626410000000 1.0
C      1  0.4057190000000  0.6046860000000  0.4826670000000 1.0
C      1  0.4246660000000  0.4953090000000  0.4876720000000 1.0
C      1  0.3887980000000  0.4232270000000  0.4783790000000 1.0
C      1  0.4249290000000  0.3907910000000  0.4948800000000 1.0
C      1  0.3756600000000  0.4408710000000  0.4965320000000 1.0
C      1  0.5628030000000  0.4563300000000  0.4936150000000 1.0
C      1  0.4237730000000  0.4020330000000  0.4230300000000 1.0
C      1  0.4885100000000  0.5606720000000  0.4975200000000 1.0
C      1  0.4186480000000  0.5825760000000  0.4875200000000 1.0
C      1  0.5506950000000  0.5549230000000  0.5112370000000 1.0
C      1  0.5044900000000  0.5618120000000  0.5469110000000 1.0
C      1  0.4972350000000  0.5823720000000  0.4515860000000 1.0
C      1  0.4408900000000  0.4470850000000  0.4332960000000 1.0
C      1  0.4510520000000  0.5060910000000  0.5552450000000 1.0
C      1  0.5971790000000  0.5023820000000  0.5267210000000 1.0
C      1  0.4822440000000  0.4377120000000  0.4919030000000 1.0
C      1  0.5707410000000  0.5364400000000  0.5706160000000 1.0
C      1  0.4760800000000  0.4600070000000  0.5620790000000 1.0
C      1  0.4821380000000  0.5490530000000  0.5578120000000 1.0
C      1  0.4749110000000  0.5356690000000  0.4931570000000 1.0
C      1  0.5258000000000  0.5259670000000  0.4526020000000 1.0
C      1  0.5564100000000  0.4819460000000  0.4835010000000 1.0
C      1  0.5320630000000  0.5051820000000  0.5173510000000 1.0
C      1  0.4594370000000  0.4806760000000  0.5632500000000 1.0
C      1  0.5147810000000  0.5103250000000  0.4731580000000 1.0
C      1  0.6092790000000  0.5347860000000  0.4901400000000 1.0
C      1  0.4623370000000  0.4403230000000  0.4162560000000 1.0
C      1  0.4452200000000  0.3972460000000  0.4069220000000 1.0
C      1  0.3821720000000  0.4671240000000  0.4998230000000 1.0
C      1  0.5324040000000  0.5761390000000  0.5103600000000 1.0
END
