TITL C-599896-8500-314 0.824841250365731 125000 -780.974846324032 0 0 129 (C1) n - 1
REM
REM in /home/nfs/bkarasulu/CARBON/AIRSS/Generating-Clusters/TERSOFF/Only-C1/FIRE-HFTN
REM
REM
REM
REM
REM
REM ./C.cell (11c1c37f851c82e70ff6c80c92926a4b)
REM AIRSS Version 0.9.1 bugfix July 2018 build 013d7b7c2542+ Fri, 06 Jul 2018 19:26:36 +0100
REM compiler GCC version 9.2.1 20190827 (Red Hat 9.2.1-1)
REM options -cpp -mtune=generic -march=x86-64 -g -O0 -fpre-include=/usr/include/finclude/math-vector-fortran.h
REM seed 1726305668 -1626861499 -1847986492 -1585809929 1361212930 -1767906239 930874461 40245947 1420006840 -728140116 -910761949 -1519793288 -1182727335 -1398214000 -1035208367 -1864945117 1976315721 1217011228 -2135593209 -437888338 -1750089221 -1996137621 -1524218838 -586868210 -1389704531 -1799562802 -383264980 -2031061130 -1538668516 855982285 -462642156 -483816848 -1873177971
REM
CELL 1.54180   50.00000   50.00000   50.00000   90.00000   90.00000   90.00000
LATT -1
SFAC C  
C      1  0.5824170000000  0.5543800000000  0.4638720000000 1.0
C      1  0.4836690000000  0.3475870000000  0.5564570000000 1.0
C      1  0.4854960000000  0.4509860000000  0.4908060000000 1.0
C      1  0.5519080000000  0.5337550000000  0.6207060000000 1.0
C      1  0.4609890000000  0.5868140000000  0.4093210000000 1.0
C      1  0.4441350000000  0.5342270000000  0.5434370000000 1.0
C      1  0.4593850000000  0.5748010000000  0.4924580000000 1.0
C      1  0.4015230000000  0.5203010000000  0.5327660000000 1.0
C      1  0.4624000000000  0.3334030000000  0.5513520000000 1.0
C      1  0.4963310000000  0.4464190000000  0.4209520000000 1.0
C      1  0.6244920000000  0.4260970000000  0.5176520000000 1.0
C      1  0.4368210000000  0.4449210000000  0.5150880000000 1.0
C      1  0.5199740000000  0.5376780000000  0.4897570000000 1.0
C      1  0.5284890000000  0.4485130000000  0.5153890000000 1.0
C      1  0.5583380000000  0.5217580000000  0.4330520000000 1.0
C      1  0.4330300000000  0.6310900000000  0.4234280000000 1.0
C      1  0.4064880000000  0.4774240000000  0.4997220000000 1.0
C      1  0.4339260000000  0.4518500000000  0.5421330000000 1.0
C      1  0.4436460000000  0.5066560000000  0.4653820000000 1.0
C      1  0.4976430000000  0.4916870000000  0.6117640000000 1.0
C      1  0.5807580000000  0.4963350000000  0.5032380000000 1.0
C      1  0.4342420000000  0.4336070000000  0.4446330000000 1.0
C      1  0.4994590000000  0.4554160000000  0.5164320000000 1.0
C      1  0.5274910000000  0.3782350000000  0.5663050000000 1.0
C      1  0.4338190000000  0.4966970000000  0.5680040000000 1.0
C      1  0.4375960000000  0.5651720000000  0.5086210000000 1.0
C      1  0.6040500000000  0.3769330000000  0.5622660000000 1.0
C      1  0.4041660000000  0.5241530000000  0.5037410000000 1.0
C      1  0.4236810000000  0.5000840000000  0.4459580000000 1.0
C      1  0.4864250000000  0.4876410000000  0.6364220000000 1.0
C      1  0.4814360000000  0.4882130000000  0.4033260000000 1.0
C      1  0.5365210000000  0.5071480000000  0.4383970000000 1.0
C      1  0.4817830000000  0.4923280000000  0.5874470000000 1.0
C      1  0.5421070000000  0.4640670000000  0.4930630000000 1.0
C      1  0.4507350000000  0.4824360000000  0.3659180000000 1.0
C      1  0.6259690000000  0.4217730000000  0.5452840000000 1.0
C      1  0.4944060000000  0.4833740000000  0.4528740000000 1.0
C      1  0.4725200000000  0.5991780000000  0.4948300000000 1.0
C      1  0.4636450000000  0.4885060000000  0.5334120000000 1.0
C      1  0.4328560000000  0.4674730000000  0.4972240000000 1.0
C      1  0.4533350000000  0.5006100000000  0.5893340000000 1.0
C      1  0.5067410000000  0.5611980000000  0.4481370000000 1.0
C      1  0.5145920000000  0.5158890000000  0.5606170000000 1.0
C      1  0.4610580000000  0.5812170000000  0.5481490000000 1.0
C      1  0.4168690000000  0.4543840000000  0.4367420000000 1.0
C      1  0.5071980000000  0.5311380000000  0.4091780000000 1.0
C      1  0.4735160000000  0.5621970000000  0.4099390000000 1.0
C      1  0.5907060000000  0.4500130000000  0.4873210000000 1.0
C      1  0.5740520000000  0.5741000000000  0.5282220000000 1.0
C      1  0.4295130000000  0.4789240000000  0.4275340000000 1.0
C      1  0.4085790000000  0.6269540000000  0.5003520000000 1.0
C      1  0.4809740000000  0.5981970000000  0.5409210000000 1.0
C      1  0.4038480000000  0.6243080000000  0.5258520000000 1.0
C      1  0.5694650000000  0.5791390000000  0.4607930000000 1.0
C      1  0.5219040000000  0.5096150000000  0.4838000000000 1.0
C      1  0.4147710000000  0.6289820000000  0.4746580000000 1.0
C      1  0.4245750000000  0.5426440000000  0.4947240000000 1.0
C      1  0.5390220000000  0.5477090000000  0.5097840000000 1.0
C      1  0.4999300000000  0.5563760000000  0.4214740000000 1.0
C      1  0.5715250000000  0.4698580000000  0.4920940000000 1.0
C      1  0.3975920000000  0.4944380000000  0.4590610000000 1.0
C      1  0.6113270000000  0.4621550000000  0.5758020000000 1.0
C      1  0.4426500000000  0.4772010000000  0.5495700000000 1.0
C      1  0.5949040000000  0.5625970000000  0.5123050000000 1.0
C      1  0.5552630000000  0.5406690000000  0.5576500000000 1.0
C      1  0.4217940000000  0.5192750000000  0.5533080000000 1.0
C      1  0.5411010000000  0.4617110000000  0.5387180000000 1.0
C      1  0.4985040000000  0.4915500000000  0.5629370000000 1.0
C      1  0.5269700000000  0.4438930000000  0.6040110000000 1.0
C      1  0.4902160000000  0.4734240000000  0.4265010000000 1.0
C      1  0.5934660000000  0.5451680000000  0.4899760000000 1.0
C      1  0.4707300000000  0.5518570000000  0.4781700000000 1.0
C      1  0.5167740000000  0.5005080000000  0.4572990000000 1.0
C      1  0.4559560000000  0.4257990000000  0.4587970000000 1.0
C      1  0.5971520000000  0.5112220000000  0.4595860000000 1.0
C      1  0.5030360000000  0.3792540000000  0.3930510000000 1.0
C      1  0.5541190000000  0.5314970000000  0.5296360000000 1.0
C      1  0.4479140000000  0.6093420000000  0.4140840000000 1.0
C      1  0.5702030000000  0.5650670000000  0.5554580000000 1.0
C      1  0.3932300000000  0.4658540000000  0.4505330000000 1.0
C      1  0.4509130000000  0.4226830000000  0.5056980000000 1.0
C      1  0.5174400000000  0.6097510000000  0.5074160000000 1.0
C      1  0.4907670000000  0.6058630000000  0.5153520000000 1.0
C      1  0.4877300000000  0.4296770000000  0.3244530000000 1.0
C      1  0.5468820000000  0.4511930000000  0.5637290000000 1.0
C      1  0.4686210000000  0.4281630000000  0.4843290000000 1.0
C      1  0.4442240000000  0.5616700000000  0.5363210000000 1.0
C      1  0.5648930000000  0.5058260000000  0.5253650000000 1.0
C      1  0.4992800000000  0.5512140000000  0.4736590000000 1.0
C      1  0.5262690000000  0.4936950000000  0.6093290000000 1.0
C      1  0.5391830000000  0.5183240000000  0.6021350000000 1.0
C      1  0.4839650000000  0.5159750000000  0.4009710000000 1.0
C      1  0.5421140000000  0.4892360000000  0.5290320000000 1.0
C      1  0.5958430000000  0.5153820000000  0.4882710000000 1.0
C      1  0.4715570000000  0.4729960000000  0.3810310000000 1.0
C      1  0.4831880000000  0.4474860000000  0.3751660000000 1.0
C      1  0.4283980000000  0.6526700000000  0.4072800000000 1.0
C      1  0.6254190000000  0.4438580000000  0.5625540000000 1.0
C      1  0.6106810000000  0.4352850000000  0.4968680000000 1.0
C      1  0.5532210000000  0.3672430000000  0.5667250000000 1.0
C      1  0.4785970000000  0.4740340000000  0.4751750000000 1.0
C      1  0.5051700000000  0.5341160000000  0.5415410000000 1.0
C      1  0.5377230000000  0.5255870000000  0.5747130000000 1.0
C      1  0.5052130000000  0.3621490000000  0.5615320000000 1.0
C      1  0.4447320000000  0.5141210000000  0.6117860000000 1.0
C      1  0.4983260000000  0.4047970000000  0.3951810000000 1.0
C      1  0.5245390000000  0.4057130000000  0.5706400000000 1.0
C      1  0.5399920000000  0.5961230000000  0.4977370000000 1.0
C      1  0.5526850000000  0.5968180000000  0.4724820000000 1.0
C      1  0.5602730000000  0.4677470000000  0.5838250000000 1.0
C      1  0.4521580000000  0.4837790000000  0.4808920000000 1.0
C      1  0.5405640000000  0.4695920000000  0.6055240000000 1.0
C      1  0.4929600000000  0.4320010000000  0.3970640000000 1.0
C      1  0.4855190000000  0.4384480000000  0.3488930000000 1.0
C      1  0.4446020000000  0.5358460000000  0.4710900000000 1.0
C      1  0.4898180000000  0.4761240000000  0.5377870000000 1.0
C      1  0.5797450000000  0.3668430000000  0.5658540000000 1.0
C      1  0.5314030000000  0.4902290000000  0.5012210000000 1.0
C      1  0.5490370000000  0.5745780000000  0.5133620000000 1.0
C      1  0.4639480000000  0.5369850000000  0.3990740000000 1.0
C      1  0.4229430000000  0.6304840000000  0.4495050000000 1.0
C      1  0.5812960000000  0.5312240000000  0.4458560000000 1.0
C      1  0.3971620000000  0.5012050000000  0.4873770000000 1.0
C      1  0.4325820000000  0.5514090000000  0.4472260000000 1.0
C      1  0.4862890000000  0.5303180000000  0.5232650000000 1.0
C      1  0.5877060000000  0.4716990000000  0.5835670000000 1.0
C      1  0.5307190000000  0.4315350000000  0.5781020000000 1.0
C      1  0.4628100000000  0.5171130000000  0.5297030000000 1.0
C      1  0.6210610000000  0.3961450000000  0.5553750000000 1.0
END
