TITL C-599892-9790-320 0.000211341140314717 125000 -441.523171850165 0 0 74 (C1) n - 1
REM
REM in /home/nfs/bkarasulu/CARBON/AIRSS/Generating-Clusters/TERSOFF/Only-C1/FIRE-HFTN
REM
REM
REM
REM
REM
REM ./C.cell (11c1c37f851c82e70ff6c80c92926a4b)
REM AIRSS Version 0.9.1 bugfix July 2018 build 013d7b7c2542+ Fri, 06 Jul 2018 19:26:36 +0100
REM compiler GCC version 9.2.1 20190827 (Red Hat 9.2.1-1)
REM options -cpp -mtune=generic -march=x86-64 -g -O0 -fpre-include=/usr/include/finclude/math-vector-fortran.h
REM seed 1799975500 -1695805266 -455459263 -668896729 1966978592 1764671456 -1581748888 1604499837 380982276 1112272086 -270041181 -1782611062 -337183012 -131334510 -1227211458 -268523314 -891261451 785767126 -295900518 -460451501 -1127769316 -1457842569 1050794003 383569672 -1854944605 310638590 2000791959 -1775803852 1827936786 582216294 276076863 -766410416 840386064
REM
CELL 1.54180   50.00000   50.00000   50.00000   90.00000   90.00000   90.00000
LATT -1
SFAC C  
C      1  0.5059300000000  0.4535940000000  0.3801520000000 1.0
C      1  0.5723540000000  0.4494810000000  0.5506940000000 1.0
C      1  0.5083860000000  0.5878200000000  0.5195120000000 1.0
C      1  0.5003620000000  0.3948280000000  0.5307760000000 1.0
C      1  0.5588010000000  0.5063060000000  0.4626290000000 1.0
C      1  0.3885450000000  0.4988950000000  0.4808140000000 1.0
C      1  0.4895170000000  0.4719600000000  0.3920260000000 1.0
C      1  0.4291620000000  0.4490490000000  0.5662100000000 1.0
C      1  0.5216050000000  0.5503250000000  0.4623650000000 1.0
C      1  0.4286460000000  0.5537340000000  0.5031770000000 1.0
C      1  0.5459540000000  0.5014590000000  0.5812920000000 1.0
C      1  0.4616150000000  0.4704550000000  0.3890200000000 1.0
C      1  0.5436390000000  0.5661360000000  0.4208420000000 1.0
C      1  0.5219770000000  0.4871790000000  0.5167180000000 1.0
C      1  0.5671900000000  0.5073020000000  0.5245260000000 1.0
C      1  0.5747370000000  0.4833490000000  0.4645510000000 1.0
C      1  0.5266590000000  0.5441600000000  0.5669070000000 1.0
C      1  0.4999200000000  0.4377000000000  0.5578710000000 1.0
C      1  0.5194200000000  0.4612180000000  0.5062480000000 1.0
C      1  0.5867760000000  0.4912380000000  0.5334190000000 1.0
C      1  0.5583950000000  0.5254800000000  0.4422310000000 1.0
C      1  0.5468590000000  0.5295340000000  0.5797970000000 1.0
C      1  0.4403280000000  0.5357640000000  0.5220330000000 1.0
C      1  0.5265280000000  0.4405050000000  0.5650410000000 1.0
C      1  0.4444490000000  0.5596440000000  0.4540210000000 1.0
C      1  0.4382150000000  0.4786340000000  0.3989890000000 1.0
C      1  0.4789350000000  0.4637350000000  0.4764810000000 1.0
C      1  0.4820490000000  0.4799270000000  0.4528330000000 1.0
C      1  0.5687960000000  0.4628730000000  0.6377850000000 1.0
C      1  0.4298050000000  0.4945030000000  0.4188600000000 1.0
C      1  0.4136030000000  0.5035160000000  0.4753090000000 1.0
C      1  0.5158290000000  0.5271490000000  0.4781670000000 1.0
C      1  0.4571250000000  0.5469870000000  0.5418130000000 1.0
C      1  0.4913330000000  0.5169470000000  0.4917310000000 1.0
C      1  0.5508170000000  0.4539850000000  0.5683140000000 1.0
C      1  0.5405060000000  0.5124890000000  0.4834550000000 1.0
C      1  0.5442900000000  0.5026810000000  0.5094150000000 1.0
C      1  0.5032180000000  0.4527380000000  0.4865230000000 1.0
C      1  0.4810070000000  0.5329030000000  0.5511430000000 1.0
C      1  0.5125320000000  0.3738050000000  0.5213420000000 1.0
C      1  0.5851930000000  0.4637500000000  0.4795060000000 1.0
C      1  0.4829760000000  0.4846860000000  0.5606830000000 1.0
C      1  0.5225710000000  0.5064500000000  0.4002520000000 1.0
C      1  0.5608850000000  0.4686620000000  0.6136380000000 1.0
C      1  0.4790390000000  0.4572160000000  0.5634770000000 1.0
C      1  0.4883070000000  0.4179050000000  0.5400550000000 1.0
C      1  0.4972660000000  0.5868620000000  0.4455480000000 1.0
C      1  0.5002240000000  0.4929350000000  0.4083380000000 1.0
C      1  0.5899410000000  0.4541030000000  0.5041310000000 1.0
C      1  0.4824060000000  0.5719360000000  0.4285930000000 1.0
C      1  0.5030470000000  0.5516810000000  0.5544070000000 1.0
C      1  0.5410950000000  0.5478450000000  0.4409940000000 1.0
C      1  0.4537550000000  0.4451740000000  0.5555340000000 1.0
C      1  0.4454250000000  0.4821290000000  0.5112190000000 1.0
C      1  0.4396840000000  0.5091000000000  0.4660890000000 1.0
C      1  0.5112610000000  0.5762750000000  0.4676110000000 1.0
C      1  0.4323780000000  0.5621220000000  0.4778620000000 1.0
C      1  0.4613700000000  0.4270630000000  0.5337590000000 1.0
C      1  0.5524850000000  0.4748900000000  0.5877090000000 1.0
C      1  0.4620660000000  0.5149300000000  0.4853010000000 1.0
C      1  0.5865980000000  0.4630420000000  0.5306580000000 1.0
C      1  0.4659490000000  0.5746280000000  0.5407540000000 1.0
C      1  0.4539480000000  0.4349750000000  0.5077840000000 1.0
C      1  0.4568460000000  0.4606180000000  0.4956940000000 1.0
C      1  0.4863690000000  0.5001410000000  0.4321820000000 1.0
C      1  0.4949880000000  0.5765050000000  0.5412140000000 1.0
C      1  0.4866310000000  0.5065360000000  0.5435560000000 1.0
C      1  0.5679580000000  0.5428730000000  0.5910980000000 1.0
C      1  0.5124890000000  0.5875460000000  0.4931340000000 1.0
C      1  0.4981570000000  0.5031390000000  0.5176680000000 1.0
C      1  0.4674920000000  0.5227750000000  0.4315810000000 1.0
C      1  0.4650130000000  0.5511340000000  0.4357960000000 1.0
C      1  0.4476640000000  0.5105290000000  0.5108700000000 1.0
C      1  0.4427110000000  0.5098620000000  0.4382700000000 1.0
END
