TITL C-599895-9959-677 0.249295073494662 125000 -1032.97562952727 0 0 170 (C1) n - 1
REM
REM in /home/nfs/bkarasulu/CARBON/AIRSS/Generating-Clusters/TERSOFF/Only-C1/FIRE-HFTN
REM
REM
REM
REM
REM
REM ./C.cell (11c1c37f851c82e70ff6c80c92926a4b)
REM AIRSS Version 0.9.1 bugfix July 2018 build 013d7b7c2542+ Fri, 06 Jul 2018 19:26:36 +0100
REM compiler GCC version 9.2.1 20190827 (Red Hat 9.2.1-1)
REM options -cpp -mtune=generic -march=x86-64 -g -O0 -fpre-include=/usr/include/finclude/math-vector-fortran.h
REM seed 646270442 1062166448 -1403238230 -1002857194 601512954 118487773 -506116296 -234803862 -1901807770 509136980 -822632760 782296223 400821518 -1586074810 2130164934 -2033933873 -1572478389 131642461 70577833 649420291 -982513829 -1377507319 1070074039 233140780 111083408 -2053530683 -1522270661 1724183998 -433394931 1413287435 -732502934 -2126110846 -684108989
REM
CELL 1.54180   50.00000   50.00000   50.00000   90.00000   90.00000   90.00000
LATT -1
SFAC C  
C      1  0.5522700000000  0.5087500000000  0.4065650000000 1.0
C      1  0.5279780000000  0.3876770000000  0.4785240000000 1.0
C      1  0.4651730000000  0.5856890000000  0.5681910000000 1.0
C      1  0.5427390000000  0.5325400000000  0.5853710000000 1.0
C      1  0.4864930000000  0.5135040000000  0.6096430000000 1.0
C      1  0.4125650000000  0.4871250000000  0.4130730000000 1.0
C      1  0.4733940000000  0.5394470000000  0.5117830000000 1.0
C      1  0.4565260000000  0.3848010000000  0.5476050000000 1.0
C      1  0.5905280000000  0.5944480000000  0.5268530000000 1.0
C      1  0.6475580000000  0.5533250000000  0.5754310000000 1.0
C      1  0.4366060000000  0.3831550000000  0.5276530000000 1.0
C      1  0.5510020000000  0.5603910000000  0.5424290000000 1.0
C      1  0.4644290000000  0.6142610000000  0.5065300000000 1.0
C      1  0.5436720000000  0.4411650000000  0.3961770000000 1.0
C      1  0.5201120000000  0.4420550000000  0.5453690000000 1.0
C      1  0.3753230000000  0.5214780000000  0.5282460000000 1.0
C      1  0.5237840000000  0.4687090000000  0.6201470000000 1.0
C      1  0.4639490000000  0.5767440000000  0.4744240000000 1.0
C      1  0.4156800000000  0.5123380000000  0.4208230000000 1.0
C      1  0.3934490000000  0.4958010000000  0.4927680000000 1.0
C      1  0.3757400000000  0.5164530000000  0.5004680000000 1.0
C      1  0.5014360000000  0.5748850000000  0.4408350000000 1.0
C      1  0.5108270000000  0.5070260000000  0.4335940000000 1.0
C      1  0.5505920000000  0.5937790000000  0.4784090000000 1.0
C      1  0.5712350000000  0.4984150000000  0.5456280000000 1.0
C      1  0.4176360000000  0.4707870000000  0.5970440000000 1.0
C      1  0.4885640000000  0.5787730000000  0.5824550000000 1.0
C      1  0.4398150000000  0.4475640000000  0.4185490000000 1.0
C      1  0.3933050000000  0.4844760000000  0.5541960000000 1.0
C      1  0.5289970000000  0.5305190000000  0.3711660000000 1.0
C      1  0.4636550000000  0.6341460000000  0.5785520000000 1.0
C      1  0.4070700000000  0.5639740000000  0.4589430000000 1.0
C      1  0.5799160000000  0.4174550000000  0.5203880000000 1.0
C      1  0.5044180000000  0.5328240000000  0.6146430000000 1.0
C      1  0.4728040000000  0.4851550000000  0.5698870000000 1.0
C      1  0.4819700000000  0.6270590000000  0.4887980000000 1.0
C      1  0.5218740000000  0.4269860000000  0.5728360000000 1.0
C      1  0.4544380000000  0.3655180000000  0.4562910000000 1.0
C      1  0.5885650000000  0.4124570000000  0.5478020000000 1.0
C      1  0.4659680000000  0.5557000000000  0.3914660000000 1.0
C      1  0.4420690000000  0.4497120000000  0.5303120000000 1.0
C      1  0.4740410000000  0.5326320000000  0.4579150000000 1.0
C      1  0.5522510000000  0.5233770000000  0.4541440000000 1.0
C      1  0.4953430000000  0.6157020000000  0.4667510000000 1.0
C      1  0.4545720000000  0.5526910000000  0.4619700000000 1.0
C      1  0.4623840000000  0.5162420000000  0.5047840000000 1.0
C      1  0.5378520000000  0.4885360000000  0.6089720000000 1.0
C      1  0.4541640000000  0.4241790000000  0.4093230000000 1.0
C      1  0.5677950000000  0.5718420000000  0.4631100000000 1.0
C      1  0.4962100000000  0.4369110000000  0.5905300000000 1.0
C      1  0.6028410000000  0.5077190000000  0.4763920000000 1.0
C      1  0.4091090000000  0.5338680000000  0.5602170000000 1.0
C      1  0.5122270000000  0.5502080000000  0.3778430000000 1.0
C      1  0.6317590000000  0.5452220000000  0.5557540000000 1.0
C      1  0.4228690000000  0.4466560000000  0.5524820000000 1.0
C      1  0.4555310000000  0.5868100000000  0.4999740000000 1.0
C      1  0.5556380000000  0.5463130000000  0.5646130000000 1.0
C      1  0.5290790000000  0.3995290000000  0.4157460000000 1.0
C      1  0.5349410000000  0.4679560000000  0.5519270000000 1.0
C      1  0.4853180000000  0.4751640000000  0.5005630000000 1.0
C      1  0.4475320000000  0.5684470000000  0.5522910000000 1.0
C      1  0.3592560000000  0.5291000000000  0.4828830000000 1.0
C      1  0.4562910000000  0.4032860000000  0.4284620000000 1.0
C      1  0.4368980000000  0.3917270000000  0.4992500000000 1.0
C      1  0.5698570000000  0.5201410000000  0.5256360000000 1.0
C      1  0.5427660000000  0.5906970000000  0.5044310000000 1.0
C      1  0.5224860000000  0.5476100000000  0.5989940000000 1.0
C      1  0.4502450000000  0.4569370000000  0.4437970000000 1.0
C      1  0.5395650000000  0.4085980000000  0.5813270000000 1.0
C      1  0.6629490000000  0.5614890000000  0.5948250000000 1.0
C      1  0.4838630000000  0.4469830000000  0.5029280000000 1.0
C      1  0.5366030000000  0.5924400000000  0.5820980000000 1.0
C      1  0.5488040000000  0.6269950000000  0.4170280000000 1.0
C      1  0.5954900000000  0.5814680000000  0.5035540000000 1.0
C      1  0.5441330000000  0.5038670000000  0.5862460000000 1.0
C      1  0.4502070000000  0.3873800000000  0.4747480000000 1.0
C      1  0.4576150000000  0.3744900000000  0.4301670000000 1.0
C      1  0.4920300000000  0.4870410000000  0.4253230000000 1.0
C      1  0.6006670000000  0.4376930000000  0.5551870000000 1.0
C      1  0.3892060000000  0.5808650000000  0.4676060000000 1.0
C      1  0.4005960000000  0.4146860000000  0.5225940000000 1.0
C      1  0.5452110000000  0.6157680000000  0.4612980000000 1.0
C      1  0.5401760000000  0.5093360000000  0.4315820000000 1.0
C      1  0.5064130000000  0.4486670000000  0.6155270000000 1.0
C      1  0.5938770000000  0.4796680000000  0.4820000000000 1.0
C      1  0.5470290000000  0.4582980000000  0.3760510000000 1.0
C      1  0.5712910000000  0.4108200000000  0.4657380000000 1.0
C      1  0.4940290000000  0.4749120000000  0.3998780000000 1.0
C      1  0.4994960000000  0.5823870000000  0.4132700000000 1.0
C      1  0.4028680000000  0.4476370000000  0.3873190000000 1.0
C      1  0.4656340000000  0.6534630000000  0.5959330000000 1.0
C      1  0.5186310000000  0.6243090000000  0.4528840000000 1.0
C      1  0.5153690000000  0.5126220000000  0.4793670000000 1.0
C      1  0.5048920000000  0.4010930000000  0.4888510000000 1.0
C      1  0.5046380000000  0.4882650000000  0.4864360000000 1.0
C      1  0.4433370000000  0.5473450000000  0.4025190000000 1.0
C      1  0.5078260000000  0.4308290000000  0.4950270000000 1.0
C      1  0.4837190000000  0.4588560000000  0.5723900000000 1.0
C      1  0.6148930000000  0.5383280000000  0.5365360000000 1.0
C      1  0.3883620000000  0.4659950000000  0.5307400000000 1.0
C      1  0.5523430000000  0.4013730000000  0.4847400000000 1.0
C      1  0.4035430000000  0.4742280000000  0.5073590000000 1.0
C      1  0.5027990000000  0.5269300000000  0.5470820000000 1.0
C      1  0.4456810000000  0.5781600000000  0.5252490000000 1.0
C      1  0.4126660000000  0.4682560000000  0.5698870000000 1.0
C      1  0.5463530000000  0.4835490000000  0.3671430000000 1.0
C      1  0.4283170000000  0.5370870000000  0.4238330000000 1.0
C      1  0.5071460000000  0.5697830000000  0.5273400000000 1.0
C      1  0.5774130000000  0.6019480000000  0.5493700000000 1.0
C      1  0.4935660000000  0.5458340000000  0.5297310000000 1.0
C      1  0.5973770000000  0.4388130000000  0.5090380000000 1.0
C      1  0.5782570000000  0.5898680000000  0.4404620000000 1.0
C      1  0.4530970000000  0.4110880000000  0.4569770000000 1.0
C      1  0.4276790000000  0.4383970000000  0.4862080000000 1.0
C      1  0.5264240000000  0.3769820000000  0.4298360000000 1.0
C      1  0.5030340000000  0.5272960000000  0.4556670000000 1.0
C      1  0.5581700000000  0.6017020000000  0.5685040000000 1.0
C      1  0.4174270000000  0.4142240000000  0.4979500000000 1.0
C      1  0.5158140000000  0.5740440000000  0.5892140000000 1.0
C      1  0.4354080000000  0.5000830000000  0.5453270000000 1.0
C      1  0.4899370000000  0.4473190000000  0.5465720000000 1.0
C      1  0.5205110000000  0.6268820000000  0.4233050000000 1.0
C      1  0.5266670000000  0.4395400000000  0.4427660000000 1.0
C      1  0.5896610000000  0.5619530000000  0.4824910000000 1.0
C      1  0.4622660000000  0.6131850000000  0.5603850000000 1.0
C      1  0.4610250000000  0.4907770000000  0.5439110000000 1.0
C      1  0.5639970000000  0.6147870000000  0.4379450000000 1.0
C      1  0.5331340000000  0.4272640000000  0.4180770000000 1.0
C      1  0.5181270000000  0.5538650000000  0.4498880000000 1.0
C      1  0.4353550000000  0.5448790000000  0.5644270000000 1.0
C      1  0.4670870000000  0.3953030000000  0.5700890000000 1.0
C      1  0.6006820000000  0.4558480000000  0.5329170000000 1.0
C      1  0.4294560000000  0.5507750000000  0.4488480000000 1.0
C      1  0.4181720000000  0.4605620000000  0.4059200000000 1.0
C      1  0.5890750000000  0.3884620000000  0.5613650000000 1.0
C      1  0.5193970000000  0.4414290000000  0.4685080000000 1.0
C      1  0.4697730000000  0.4420690000000  0.5275190000000 1.0
C      1  0.5291580000000  0.4296010000000  0.5184960000000 1.0
C      1  0.5978610000000  0.4502940000000  0.4822660000000 1.0
C      1  0.5498580000000  0.4899600000000  0.5619580000000 1.0
C      1  0.5839240000000  0.4778280000000  0.5301170000000 1.0
C      1  0.4732420000000  0.4301680000000  0.3894820000000 1.0
C      1  0.4450140000000  0.4374300000000  0.4640620000000 1.0
C      1  0.4779710000000  0.4124450000000  0.5879200000000 1.0
C      1  0.4096730000000  0.3907630000000  0.5362870000000 1.0
C      1  0.5343120000000  0.5749230000000  0.5253540000000 1.0
C      1  0.3910490000000  0.5135130000000  0.5505500000000 1.0
C      1  0.5261080000000  0.3711930000000  0.4560110000000 1.0
C      1  0.4709980000000  0.4763510000000  0.4418210000000 1.0
C      1  0.5881310000000  0.4319300000000  0.4629500000000 1.0
C      1  0.5911640000000  0.3652160000000  0.5729640000000 1.0
C      1  0.4928180000000  0.5634720000000  0.3931890000000 1.0
C      1  0.4228430000000  0.4721250000000  0.6225420000000 1.0
C      1  0.4698730000000  0.4919640000000  0.5169790000000 1.0
C      1  0.5437220000000  0.5141420000000  0.4800040000000 1.0
C      1  0.5442950000000  0.5085860000000  0.3796000000000 1.0
C      1  0.3975240000000  0.4386780000000  0.5376180000000 1.0
C      1  0.4696040000000  0.5072400000000  0.5882070000000 1.0
C      1  0.5981060000000  0.5343700000000  0.4892990000000 1.0
C      1  0.5581380000000  0.5066520000000  0.5023150000000 1.0
C      1  0.4577260000000  0.6165270000000  0.5332120000000 1.0
C      1  0.4860920000000  0.5892660000000  0.4603140000000 1.0
C      1  0.5739290000000  0.4827780000000  0.5027600000000 1.0
C      1  0.5534800000000  0.4148020000000  0.5104840000000 1.0
C      1  0.4875670000000  0.4527490000000  0.3861880000000 1.0
C      1  0.4520520000000  0.5284650000000  0.5806850000000 1.0
C      1  0.5040800000000  0.6097820000000  0.4081060000000 1.0
C      1  0.4280140000000  0.4590630000000  0.5054410000000 1.0
C      1  0.5947080000000  0.5321870000000  0.5184340000000 1.0
C      1  0.5473330000000  0.5518360000000  0.4529360000000 1.0
END
