TITL C-599891-72-663 0.0495137996379009 125000 -275.393388403834 0 0 46 (C1) n - 1
REM
REM in /home/nfs/bkarasulu/CARBON/AIRSS/Generating-Clusters/TERSOFF/Only-C1/FIRE-HFTN
REM
REM
REM
REM
REM
REM ./C.cell (11c1c37f851c82e70ff6c80c92926a4b)
REM AIRSS Version 0.9.1 bugfix July 2018 build 013d7b7c2542+ Fri, 06 Jul 2018 19:26:36 +0100
REM compiler GCC version 9.2.1 20190827 (Red Hat 9.2.1-1)
REM options -cpp -mtune=generic -march=x86-64 -g -O0 -fpre-include=/usr/include/finclude/math-vector-fortran.h
REM seed 569516932 1912740035 1901515934 -1339744811 2004090156 -15367332 -138352570 1231159785 -1464026616 -1437697126 -388159499 -1801813784 -1968017903 -884884766 1434434721 -1399603462 950415953 -692932032 -1037916037 -1675362916 -130309258 -1628743657 1749183200 -1079867226 113697 -1955214926 -1271964604 1316897223 1556405125 408579360 1775585521 -1834236164 668009674
REM
CELL 1.54180   50.00000   50.00000   50.00000   90.00000   90.00000   90.00000
LATT -1
SFAC C  
C      1  0.4603170000000  0.4074750000000  0.4901300000000 1.0
C      1  0.5455750000000  0.5368220000000  0.5004450000000 1.0
C      1  0.4288650000000  0.4846280000000  0.5397070000000 1.0
C      1  0.5288060000000  0.4780790000000  0.5676350000000 1.0
C      1  0.5894220000000  0.4673800000000  0.4252850000000 1.0
C      1  0.4735580000000  0.4793110000000  0.5733320000000 1.0
C      1  0.5685270000000  0.5031270000000  0.4596210000000 1.0
C      1  0.4636480000000  0.5062280000000  0.4717030000000 1.0
C      1  0.4579350000000  0.4500350000000  0.4603120000000 1.0
C      1  0.5229000000000  0.5695960000000  0.4541780000000 1.0
C      1  0.4968640000000  0.5127500000000  0.4372110000000 1.0
C      1  0.5398840000000  0.5505610000000  0.5677850000000 1.0
C      1  0.4986270000000  0.4392390000000  0.5716200000000 1.0
C      1  0.5275270000000  0.5271750000000  0.5662960000000 1.0
C      1  0.4731330000000  0.4511950000000  0.5690870000000 1.0
C      1  0.5224250000000  0.4520660000000  0.5706680000000 1.0
C      1  0.5401250000000  0.5059750000000  0.4639360000000 1.0
C      1  0.5839120000000  0.5212080000000  0.4754970000000 1.0
C      1  0.4785690000000  0.4659960000000  0.4488650000000 1.0
C      1  0.4609660000000  0.4237600000000  0.4690400000000 1.0
C      1  0.4815830000000  0.4939750000000  0.4520050000000 1.0
C      1  0.4868010000000  0.5001250000000  0.5592470000000 1.0
C      1  0.5334260000000  0.5120300000000  0.4914450000000 1.0
C      1  0.4748580000000  0.5265650000000  0.4887120000000 1.0
C      1  0.4869060000000  0.5154400000000  0.5120680000000 1.0
C      1  0.5309680000000  0.5465400000000  0.4397050000000 1.0
C      1  0.5522650000000  0.5735000000000  0.5680810000000 1.0
C      1  0.4810610000000  0.5356340000000  0.4295330000000 1.0
C      1  0.4533890000000  0.4165980000000  0.5400870000000 1.0
C      1  0.5732860000000  0.5375720000000  0.4945800000000 1.0
C      1  0.4394210000000  0.4922830000000  0.4758150000000 1.0
C      1  0.5795630000000  0.4847070000000  0.4420690000000 1.0
C      1  0.5271350000000  0.5583130000000  0.5004530000000 1.0
C      1  0.4730990000000  0.5102400000000  0.5361970000000 1.0
C      1  0.5118390000000  0.5032770000000  0.5067240000000 1.0
C      1  0.4729790000000  0.5534110000000  0.4487430000000 1.0
C      1  0.4831140000000  0.5511970000000  0.4756560000000 1.0
C      1  0.4364140000000  0.4658840000000  0.4702230000000 1.0
C      1  0.5241680000000  0.5189930000000  0.4438030000000 1.0
C      1  0.5092240000000  0.5634950000000  0.4790100000000 1.0
C      1  0.4308490000000  0.4589850000000  0.5473850000000 1.0
C      1  0.4452040000000  0.5055310000000  0.5355460000000 1.0
C      1  0.4512580000000  0.4406280000000  0.5542350000000 1.0
C      1  0.5275560000000  0.5950830000000  0.4457410000000 1.0
C      1  0.5148920000000  0.5025070000000  0.5641240000000 1.0
C      1  0.4571610000000  0.4048820000000  0.5164590000000 1.0
END
