TITL C-599897-7526-764 350.834721195993 125000 -1194.07086386976 0 0 196 (C1) n - 1
REM
REM in /home/nfs/bkarasulu/CARBON/AIRSS/Generating-Clusters/TERSOFF/Only-C1/FIRE-HFTN
REM
REM
REM
REM
REM
REM ./C.cell (11c1c37f851c82e70ff6c80c92926a4b)
REM AIRSS Version 0.9.1 bugfix July 2018 build 013d7b7c2542+ Fri, 06 Jul 2018 19:26:36 +0100
REM compiler GCC version 9.2.1 20190827 (Red Hat 9.2.1-1)
REM options -cpp -mtune=generic -march=x86-64 -g -O0 -fpre-include=/usr/include/finclude/math-vector-fortran.h
REM seed -726167677 -2042496269 -324945999 -50823377 -1814986724 -2049508885 1811945377 528251574 -462919397 2094675086 -1939531302 99682655 -1076109616 -2040655169 1104829296 1134671635 -656822687 722941269 -517887840 -1469784244 702850492 1702111482 1820689095 2129659237 -433254957 1111883545 1268357214 -1713470967 -151081691 1019068516 -668325212 2074140544 972262777
REM
CELL 1.54180   50.00000   50.00000   50.00000   90.00000   90.00000   90.00000
LATT -1
SFAC C  
C      1  0.5010030000000  0.5753750000000  0.5036480000000 1.0
C      1  0.4158800000000  0.5814730000000  0.4861700000000 1.0
C      1  0.5128990000000  0.5659210000000  0.4572490000000 1.0
C      1  0.6180010000000  0.4878940000000  0.5221640000000 1.0
C      1  0.5293980000000  0.4716020000000  0.6044590000000 1.0
C      1  0.3939470000000  0.4305190000000  0.5257460000000 1.0
C      1  0.5868260000000  0.5649710000000  0.3805700000000 1.0
C      1  0.5533810000000  0.4511020000000  0.4167700000000 1.0
C      1  0.4387030000000  0.5656360000000  0.5663390000000 1.0
C      1  0.4802690000000  0.5348560000000  0.6075360000000 1.0
C      1  0.5015020000000  0.5164500000000  0.6188880000000 1.0
C      1  0.4302110000000  0.5127220000000  0.6094460000000 1.0
C      1  0.5751010000000  0.4677720000000  0.5890110000000 1.0
C      1  0.5269700000000  0.4998380000000  0.6179440000000 1.0
C      1  0.4253330000000  0.4670580000000  0.5850700000000 1.0
C      1  0.5558460000000  0.4587620000000  0.6078690000000 1.0
C      1  0.5446620000000  0.3812440000000  0.5387290000000 1.0
C      1  0.4640670000000  0.3981970000000  0.4268240000000 1.0
C      1  0.4524980000000  0.5031280000000  0.4399520000000 1.0
C      1  0.4691430000000  0.4311030000000  0.4612290000000 1.0
C      1  0.5175580000000  0.4638080000000  0.4497850000000 1.0
C      1  0.5368160000000  0.5449100000000  0.4915660000000 1.0
C      1  0.5133870000000  0.5992440000000  0.5166000000000 1.0
C      1  0.4521610000000  0.4123250000000  0.5914880000000 1.0
C      1  0.5565090000000  0.5508330000000  0.5623350000000 1.0
C      1  0.5639850000000  0.4772790000000  0.4599690000000 1.0
C      1  0.4243790000000  0.5489480000000  0.5481910000000 1.0
C      1  0.5775300000000  0.5110480000000  0.6031490000000 1.0
C      1  0.4648030000000  0.3935960000000  0.4982540000000 1.0
C      1  0.4444190000000  0.5028880000000  0.3783970000000 1.0
C      1  0.4604600000000  0.4796590000000  0.3811370000000 1.0
C      1  0.5434930000000  0.3990220000000  0.5623990000000 1.0
C      1  0.5691470000000  0.4419430000000  0.5523030000000 1.0
C      1  0.5196720000000  0.3689350000000  0.5340120000000 1.0
C      1  0.5383610000000  0.5571850000000  0.4657490000000 1.0
C      1  0.4099160000000  0.4824620000000  0.5201220000000 1.0
C      1  0.5812720000000  0.4536600000000  0.4613690000000 1.0
C      1  0.5155910000000  0.6388940000000  0.4848160000000 1.0
C      1  0.6018880000000  0.4689660000000  0.5061210000000 1.0
C      1  0.4692140000000  0.5584190000000  0.4429630000000 1.0
C      1  0.3691630000000  0.4389690000000  0.4549250000000 1.0
C      1  0.4027950000000  0.5562670000000  0.4784680000000 1.0
C      1  0.4903540000000  0.5592880000000  0.5941460000000 1.0
C      1  0.4440620000000  0.4370410000000  0.5518810000000 1.0
C      1  0.3531240000000  0.5242490000000  0.5236290000000 1.0
C      1  0.5653650000000  0.5305710000000  0.4114050000000 1.0
C      1  0.4795970000000  0.4991920000000  0.5360510000000 1.0
C      1  0.6164650000000  0.4866310000000  0.5755040000000 1.0
C      1  0.4648380000000  0.4040100000000  0.4726930000000 1.0
C      1  0.5880340000000  0.4007940000000  0.5446200000000 1.0
C      1  0.5138010000000  0.4561160000000  0.5519440000000 1.0
C      1  0.4549150000000  0.4636580000000  0.5916390000000 1.0
C      1  0.6004520000000  0.4625430000000  0.5764520000000 1.0
C      1  0.5261700000000  0.4445840000000  0.4063060000000 1.0
C      1  0.4791100000000  0.3769010000000  0.5634840000000 1.0
C      1  0.4397000000000  0.5572200000000  0.5932120000000 1.0
C      1  0.4559680000000  0.5625890000000  0.4682730000000 1.0
C      1  0.5171340000000  0.6428810000000  0.5763880000000 1.0
C      1  0.5654800000000  0.4096840000000  0.4502340000000 1.0
C      1  0.6083920000000  0.5772980000000  0.4230040000000 1.0
C      1  0.5650130000000  0.4947230000000  0.5826770000000 1.0
C      1  0.3778800000000  0.5207730000000  0.5119580000000 1.0
C      1  0.4586810000000  0.6019260000000  0.4938720000000 1.0
C      1  0.5373630000000  0.4837040000000  0.4507150000000 1.0
C      1  0.4815850000000  0.4995580000000  0.4396570000000 1.0
C      1  0.4489280000000  0.4924920000000  0.4939760000000 1.0
C      1  0.4493530000000  0.5920540000000  0.5224890000000 1.0
C      1  0.5423420000000  0.5032850000000  0.5687950000000 1.0
C      1  0.4203170000000  0.4437670000000  0.4829680000000 1.0
C      1  0.5774610000000  0.5852000000000  0.4608310000000 1.0
C      1  0.4504160000000  0.5338530000000  0.6063210000000 1.0
C      1  0.4993230000000  0.5835560000000  0.4756180000000 1.0
C      1  0.5720320000000  0.3853720000000  0.5242890000000 1.0
C      1  0.5510830000000  0.5064590000000  0.4143580000000 1.0
C      1  0.5823500000000  0.3971480000000  0.4979880000000 1.0
C      1  0.5412160000000  0.4139390000000  0.4923430000000 1.0
C      1  0.5156780000000  0.4235750000000  0.4863430000000 1.0
C      1  0.3932760000000  0.5447800000000  0.5060080000000 1.0
C      1  0.4917670000000  0.3724420000000  0.5385400000000 1.0
C      1  0.3862840000000  0.4383420000000  0.4339130000000 1.0
C      1  0.5712560000000  0.5733070000000  0.5075930000000 1.0
C      1  0.5940440000000  0.5597650000000  0.5170230000000 1.0
C      1  0.5986120000000  0.4454000000000  0.5531250000000 1.0
C      1  0.5568190000000  0.4539400000000  0.5279960000000 1.0
C      1  0.3906190000000  0.4937200000000  0.4584750000000 1.0
C      1  0.5247210000000  0.6216860000000  0.5035140000000 1.0
C      1  0.4088000000000  0.5122330000000  0.4696040000000 1.0
C      1  0.4134930000000  0.5375490000000  0.4568180000000 1.0
C      1  0.4929210000000  0.6322420000000  0.4715490000000 1.0
C      1  0.5367710000000  0.5587100000000  0.5431220000000 1.0
C      1  0.5739870000000  0.4725460000000  0.5114640000000 1.0
C      1  0.3992920000000  0.5032830000000  0.4084250000000 1.0
C      1  0.3646730000000  0.4566820000000  0.4749400000000 1.0
C      1  0.4058950000000  0.4313150000000  0.5017550000000 1.0
C      1  0.6052070000000  0.5613920000000  0.5619620000000 1.0
C      1  0.5669700000000  0.4144150000000  0.5606560000000 1.0
C      1  0.5874420000000  0.5314510000000  0.5295590000000 1.0
C      1  0.4034100000000  0.4587190000000  0.4244840000000 1.0
C      1  0.5181760000000  0.4383910000000  0.4621610000000 1.0
C      1  0.5505660000000  0.4298800000000  0.5130070000000 1.0
C      1  0.4201930000000  0.5834710000000  0.5157010000000 1.0
C      1  0.4618640000000  0.3903220000000  0.5791350000000 1.0
C      1  0.4755030000000  0.3775000000000  0.5163510000000 1.0
C      1  0.5618790000000  0.4966290000000  0.5022470000000 1.0
C      1  0.6286040000000  0.4869690000000  0.5493260000000 1.0
C      1  0.5317320000000  0.4709400000000  0.5328600000000 1.0
C      1  0.5543310000000  0.5134100000000  0.6217130000000 1.0
C      1  0.4429930000000  0.5277150000000  0.5377070000000 1.0
C      1  0.5036740000000  0.4562430000000  0.3912950000000 1.0
C      1  0.6007520000000  0.4207990000000  0.5030800000000 1.0
C      1  0.4741910000000  0.4588190000000  0.3952540000000 1.0
C      1  0.5833950000000  0.5422830000000  0.5589310000000 1.0
C      1  0.5793170000000  0.6196270000000  0.4950970000000 1.0
C      1  0.4185650000000  0.5055690000000  0.3896310000000 1.0
C      1  0.5160930000000  0.6220570000000  0.5607560000000 1.0
C      1  0.5006770000000  0.5817530000000  0.3555470000000 1.0
C      1  0.4960460000000  0.5473890000000  0.4431530000000 1.0
C      1  0.4944690000000  0.5209750000000  0.4934680000000 1.0
C      1  0.5349580000000  0.4961540000000  0.4935170000000 1.0
C      1  0.4229550000000  0.4973400000000  0.5853450000000 1.0
C      1  0.6044140000000  0.5501250000000  0.4316180000000 1.0
C      1  0.4621390000000  0.4759230000000  0.5335200000000 1.0
C      1  0.4894900000000  0.4319910000000  0.6098630000000 1.0
C      1  0.5709290000000  0.5440370000000  0.3870880000000 1.0
C      1  0.6103600000000  0.5152170000000  0.5186410000000 1.0
C      1  0.4626750000000  0.3851470000000  0.4508770000000 1.0
C      1  0.4361030000000  0.5843680000000  0.4180890000000 1.0
C      1  0.3966290000000  0.4389040000000  0.5512410000000 1.0
C      1  0.5180160000000  0.4754310000000  0.5051770000000 1.0
C      1  0.4937670000000  0.4405530000000  0.5366450000000 1.0
C      1  0.6037700000000  0.5803760000000  0.3951970000000 1.0
C      1  0.5690740000000  0.4363220000000  0.4397560000000 1.0
C      1  0.5111740000000  0.4294110000000  0.5922660000000 1.0
C      1  0.4917310000000  0.4720270000000  0.4928770000000 1.0
C      1  0.4199280000000  0.4471070000000  0.5645890000000 1.0
C      1  0.4412990000000  0.5867240000000  0.4748890000000 1.0
C      1  0.4359950000000  0.5284270000000  0.4391880000000 1.0
C      1  0.4390680000000  0.4774430000000  0.4448780000000 1.0
C      1  0.4326000000000  0.4594370000000  0.4226940000000 1.0
C      1  0.5148800000000  0.5980950000000  0.3410420000000 1.0
C      1  0.4917930000000  0.4984360000000  0.5784300000000 1.0
C      1  0.5032480000000  0.5202590000000  0.3547520000000 1.0
C      1  0.5766900000000  0.5432540000000  0.4347710000000 1.0
C      1  0.4670140000000  0.4491120000000  0.5410140000000 1.0
C      1  0.5621460000000  0.4015630000000  0.4774170000000 1.0
C      1  0.5136610000000  0.4958540000000  0.3572330000000 1.0
C      1  0.5443880000000  0.4987720000000  0.5420510000000 1.0
C      1  0.4791410000000  0.4569420000000  0.4698630000000 1.0
C      1  0.5160800000000  0.5090590000000  0.5759710000000 1.0
C      1  0.5177000000000  0.4553800000000  0.5811760000000 1.0
C      1  0.4772580000000  0.4972650000000  0.4918410000000 1.0
C      1  0.4616300000000  0.5780810000000  0.5528310000000 1.0
C      1  0.4837140000000  0.5446350000000  0.5089080000000 1.0
C      1  0.4076120000000  0.5601520000000  0.5277740000000 1.0
C      1  0.3773950000000  0.4810890000000  0.4810680000000 1.0
C      1  0.4819220000000  0.6069850000000  0.4771980000000 1.0
C      1  0.6114910000000  0.5718430000000  0.5370930000000 1.0
C      1  0.6058490000000  0.4228870000000  0.5336640000000 1.0
C      1  0.4657560000000  0.4263740000000  0.4315110000000 1.0
C      1  0.5629680000000  0.5611930000000  0.4528690000000 1.0
C      1  0.5463540000000  0.5597980000000  0.5144030000000 1.0
C      1  0.4373770000000  0.5326490000000  0.5059320000000 1.0
C      1  0.5632800000000  0.5131590000000  0.5256160000000 1.0
C      1  0.3933560000000  0.4859100000000  0.4301950000000 1.0
C      1  0.4386240000000  0.4796440000000  0.5178170000000 1.0
C      1  0.5223860000000  0.5208820000000  0.4912510000000 1.0
C      1  0.4821660000000  0.5370200000000  0.3625650000000 1.0
C      1  0.4633450000000  0.4371570000000  0.6003830000000 1.0
C      1  0.4432810000000  0.5044870000000  0.5654960000000 1.0
C      1  0.4661040000000  0.4880990000000  0.5776370000000 1.0
C      1  0.5035780000000  0.5771300000000  0.6108170000000 1.0
C      1  0.4738920000000  0.5281400000000  0.5343540000000 1.0
C      1  0.4905500000000  0.4730200000000  0.4476610000000 1.0
C      1  0.4313210000000  0.4636680000000  0.4685780000000 1.0
C      1  0.4564670000000  0.4459400000000  0.4138360000000 1.0
C      1  0.4291960000000  0.5116320000000  0.4890480000000 1.0
C      1  0.4763780000000  0.5710420000000  0.3962680000000 1.0
C      1  0.5751180000000  0.5935830000000  0.4879380000000 1.0
C      1  0.5971220000000  0.5947640000000  0.4424640000000 1.0
C      1  0.5605480000000  0.4791310000000  0.4092740000000 1.0
C      1  0.4865840000000  0.5635960000000  0.3713200000000 1.0
C      1  0.4579020000000  0.5485570000000  0.4936050000000 1.0
C      1  0.4601970000000  0.5713770000000  0.4191280000000 1.0
C      1  0.3863150000000  0.4931100000000  0.5066860000000 1.0
C      1  0.5239200000000  0.4069840000000  0.5809090000000 1.0
C      1  0.4571070000000  0.5249900000000  0.3666360000000 1.0
C      1  0.6063950000000  0.5070940000000  0.5953180000000 1.0
C      1  0.5133990000000  0.5729850000000  0.5532900000000 1.0
C      1  0.5002900000000  0.4283220000000  0.5108680000000 1.0
C      1  0.5030620000000  0.5194140000000  0.4370760000000 1.0
C      1  0.5301450000000  0.5070660000000  0.4344680000000 1.0
C      1  0.5127890000000  0.4721930000000  0.3694390000000 1.0
C      1  0.5998530000000  0.4463300000000  0.4864350000000 1.0
C      1  0.4878480000000  0.5678260000000  0.5659410000000 1.0
C      1  0.4185470000000  0.5076660000000  0.6337110000000 1.0
C      1  0.5143800000000  0.5997620000000  0.5444770000000 1.0
END
