TITL C-599893-4344-974 -0.240019975914997 125000 -331.687439610835 0 0 55 (C1) n - 1
REM
REM in /home/nfs/bkarasulu/CARBON/AIRSS/Generating-Clusters/TERSOFF/Only-C1/FIRE-HFTN
REM
REM
REM
REM
REM
REM ./C.cell (11c1c37f851c82e70ff6c80c92926a4b)
REM AIRSS Version 0.9.1 bugfix July 2018 build 013d7b7c2542+ Fri, 06 Jul 2018 19:26:36 +0100
REM compiler GCC version 9.2.1 20190827 (Red Hat 9.2.1-1)
REM options -cpp -mtune=generic -march=x86-64 -g -O0 -fpre-include=/usr/include/finclude/math-vector-fortran.h
REM seed -511985533 600291075 1734969109 -1730514707 1853086240 9793628 1844487909 -492323083 1545233930 -1708966648 2007517887 -1202012648 -1284579090 -1682478196 517591830 -1451670450 -771234178 -462995065 194773605 980959981 -2125341542 -1147408168 1893392668 213671628 -1023197574 795137662 1432114257 -1962497519 -524312818 772735295 297320500 2075301595 -903122108
REM
CELL 1.54180   50.00000   50.00000   50.00000   90.00000   90.00000   90.00000
LATT -1
SFAC C  
C      1  0.5489120000000  0.5929800000000  0.4413500000000 1.0
C      1  0.4709900000000  0.4042330000000  0.5476050000000 1.0
C      1  0.4594560000000  0.5498570000000  0.5116600000000 1.0
C      1  0.5063280000000  0.5103260000000  0.5270410000000 1.0
C      1  0.4728190000000  0.4734450000000  0.4886900000000 1.0
C      1  0.5497210000000  0.5176500000000  0.5862520000000 1.0
C      1  0.4568550000000  0.4594930000000  0.5072870000000 1.0
C      1  0.4573750000000  0.4687950000000  0.5342100000000 1.0
C      1  0.4157500000000  0.5308280000000  0.4976620000000 1.0
C      1  0.5362660000000  0.5409980000000  0.5014140000000 1.0
C      1  0.4372910000000  0.5467950000000  0.4944810000000 1.0
C      1  0.5353630000000  0.4687240000000  0.5155760000000 1.0
C      1  0.4160340000000  0.4930730000000  0.5335710000000 1.0
C      1  0.4438980000000  0.4933050000000  0.5401540000000 1.0
C      1  0.4071910000000  0.5114700000000  0.5142230000000 1.0
C      1  0.4668600000000  0.4114730000000  0.4590990000000 1.0
C      1  0.4603110000000  0.5155550000000  0.5473170000000 1.0
C      1  0.5561500000000  0.5408550000000  0.5762780000000 1.0
C      1  0.5066270000000  0.4379630000000  0.4399910000000 1.0
C      1  0.5564260000000  0.5681950000000  0.5366100000000 1.0
C      1  0.5494630000000  0.5870370000000  0.4922290000000 1.0
C      1  0.5458450000000  0.4743770000000  0.4885600000000 1.0
C      1  0.5284020000000  0.4784580000000  0.4237980000000 1.0
C      1  0.4457820000000  0.4354320000000  0.4982210000000 1.0
C      1  0.5346040000000  0.5005950000000  0.4104870000000 1.0
C      1  0.4023400000000  0.4697180000000  0.5415290000000 1.0
C      1  0.4867990000000  0.5486330000000  0.5044100000000 1.0
C      1  0.4504110000000  0.4170490000000  0.4793700000000 1.0
C      1  0.4999230000000  0.4792380000000  0.4888710000000 1.0
C      1  0.4878160000000  0.4197800000000  0.4448780000000 1.0
C      1  0.5217710000000  0.4714300000000  0.4713710000000 1.0
C      1  0.5188100000000  0.4237790000000  0.5372370000000 1.0
C      1  0.5339320000000  0.4443120000000  0.5290850000000 1.0
C      1  0.5362830000000  0.5460400000000  0.3858610000000 1.0
C      1  0.5196890000000  0.4622790000000  0.4448880000000 1.0
C      1  0.5115600000000  0.4855570000000  0.5151190000000 1.0
C      1  0.5625540000000  0.5649970000000  0.5636880000000 1.0
C      1  0.4062770000000  0.4440090000000  0.5481450000000 1.0
C      1  0.5746230000000  0.5851670000000  0.5776590000000 1.0
C      1  0.4719860000000  0.4571690000000  0.5541570000000 1.0
C      1  0.4967110000000  0.4097510000000  0.5427240000000 1.0
C      1  0.5592510000000  0.4990610000000  0.4858620000000 1.0
C      1  0.5473970000000  0.5447280000000  0.4303810000000 1.0
C      1  0.5532050000000  0.5360710000000  0.4560110000000 1.0
C      1  0.4448420000000  0.4086880000000  0.5511740000000 1.0
C      1  0.4219850000000  0.4226060000000  0.5516090000000 1.0
C      1  0.5498670000000  0.5972670000000  0.4676550000000 1.0
C      1  0.5402140000000  0.5721560000000  0.3942230000000 1.0
C      1  0.5102780000000  0.5338720000000  0.5108870000000 1.0
C      1  0.4883540000000  0.5112340000000  0.5487950000000 1.0
C      1  0.5398080000000  0.5276380000000  0.4078520000000 1.0
C      1  0.5466420000000  0.5729640000000  0.4223030000000 1.0
C      1  0.5505660000000  0.5256580000000  0.4818100000000 1.0
C      1  0.4538330000000  0.5415250000000  0.5383720000000 1.0
C      1  0.5475530000000  0.5657120000000  0.5103070000000 1.0
END
