TITL C-599892-9790-358 0.000255394960808598 125000 -1096.6502797034 0 0 176 (C1) n - 1
REM
REM in /home/nfs/bkarasulu/CARBON/AIRSS/Generating-Clusters/TERSOFF/Only-C1/FIRE-HFTN
REM
REM
REM
REM
REM
REM ./C.cell (11c1c37f851c82e70ff6c80c92926a4b)
REM AIRSS Version 0.9.1 bugfix July 2018 build 013d7b7c2542+ Fri, 06 Jul 2018 19:26:36 +0100
REM compiler GCC version 9.2.1 20190827 (Red Hat 9.2.1-1)
REM options -cpp -mtune=generic -march=x86-64 -g -O0 -fpre-include=/usr/include/finclude/math-vector-fortran.h
REM seed 2032806845 -540910795 -1101995625 2015868541 81870334 -1647318480 -180240636 1229307825 842662533 -1876808027 -1287218449 -1854528728 699819162 -1932168773 1129587812 -1676093646 301885324 1261465553 -877800962 1026611257 767461805 -1750909158 719394642 -246532229 -2033409333 -2044098126 -1605965561 -89905502 633714162 1871841728 1849385400 -1765755074 202768919
REM
CELL 1.54180   50.00000   50.00000   50.00000   90.00000   90.00000   90.00000
LATT -1
SFAC C  
C      1  0.5207190000000  0.5630300000000  0.5779590000000 1.0
C      1  0.4712630000000  0.4187970000000  0.6134760000000 1.0
C      1  0.4813290000000  0.4380660000000  0.5128470000000 1.0
C      1  0.5398800000000  0.4231710000000  0.5794440000000 1.0
C      1  0.5392810000000  0.6185130000000  0.5338520000000 1.0
C      1  0.5474360000000  0.4394340000000  0.4878130000000 1.0
C      1  0.3706110000000  0.5106190000000  0.5274070000000 1.0
C      1  0.5540310000000  0.5245070000000  0.4497210000000 1.0
C      1  0.5386180000000  0.5812000000000  0.4295300000000 1.0
C      1  0.5332920000000  0.5842690000000  0.5644340000000 1.0
C      1  0.4910600000000  0.5092300000000  0.4368820000000 1.0
C      1  0.5493530000000  0.5809260000000  0.4577230000000 1.0
C      1  0.5408890000000  0.4000470000000  0.5593460000000 1.0
C      1  0.5160410000000  0.4765850000000  0.5201940000000 1.0
C      1  0.4297710000000  0.6089680000000  0.4753950000000 1.0
C      1  0.4756610000000  0.4190090000000  0.5335590000000 1.0
C      1  0.4542210000000  0.5152710000000  0.4026790000000 1.0
C      1  0.4329870000000  0.6099850000000  0.5237250000000 1.0
C      1  0.4359910000000  0.5156040000000  0.4604200000000 1.0
C      1  0.6090160000000  0.6189850000000  0.4444330000000 1.0
C      1  0.5695740000000  0.4468980000000  0.6157470000000 1.0
C      1  0.5844020000000  0.4833010000000  0.5866800000000 1.0
C      1  0.6072970000000  0.5180180000000  0.5579680000000 1.0
C      1  0.4903760000000  0.5496350000000  0.5335990000000 1.0
C      1  0.4983690000000  0.4085150000000  0.4310090000000 1.0
C      1  0.5057560000000  0.5690980000000  0.4584600000000 1.0
C      1  0.4789210000000  0.5342660000000  0.4409520000000 1.0
C      1  0.5191760000000  0.5173590000000  0.5879690000000 1.0
C      1  0.4766390000000  0.4985970000000  0.3941090000000 1.0
C      1  0.4441560000000  0.5816370000000  0.4373270000000 1.0
C      1  0.6177810000000  0.5271680000000  0.4683630000000 1.0
C      1  0.4515780000000  0.5202220000000  0.4826750000000 1.0
C      1  0.5190950000000  0.3826010000000  0.4905610000000 1.0
C      1  0.5084270000000  0.4919830000000  0.5880220000000 1.0
C      1  0.4733460000000  0.5062130000000  0.4925250000000 1.0
C      1  0.4499380000000  0.4554320000000  0.5562610000000 1.0
C      1  0.4678080000000  0.4798390000000  0.4990760000000 1.0
C      1  0.3245520000000  0.5252960000000  0.4616080000000 1.0
C      1  0.5691850000000  0.4751270000000  0.6102860000000 1.0
C      1  0.4678780000000  0.4702700000000  0.5728100000000 1.0
C      1  0.6044530000000  0.3915870000000  0.4988050000000 1.0
C      1  0.5249090000000  0.6104510000000  0.5560490000000 1.0
C      1  0.5282420000000  0.5433560000000  0.3979600000000 1.0
C      1  0.3503230000000  0.5223550000000  0.4669840000000 1.0
C      1  0.4048930000000  0.5932000000000  0.4778550000000 1.0
C      1  0.5471560000000  0.5573680000000  0.4150310000000 1.0
C      1  0.5021080000000  0.4950550000000  0.5396160000000 1.0
C      1  0.4583490000000  0.4346770000000  0.4426030000000 1.0
C      1  0.5630530000000  0.5332020000000  0.5719530000000 1.0
C      1  0.4324050000000  0.5577320000000  0.5787170000000 1.0
C      1  0.5389100000000  0.4556210000000  0.4318800000000 1.0
C      1  0.4929500000000  0.3993400000000  0.5464570000000 1.0
C      1  0.4348170000000  0.5452390000000  0.5292770000000 1.0
C      1  0.6027600000000  0.4648880000000  0.5259710000000 1.0
C      1  0.5091010000000  0.5828950000000  0.4329480000000 1.0
C      1  0.4623550000000  0.4657280000000  0.6004060000000 1.0
C      1  0.4763000000000  0.5540620000000  0.5573900000000 1.0
C      1  0.4034030000000  0.4545170000000  0.5380090000000 1.0
C      1  0.3964150000000  0.5396420000000  0.4674580000000 1.0
C      1  0.4024250000000  0.4716520000000  0.4677030000000 1.0
C      1  0.4981490000000  0.5174530000000  0.4994560000000 1.0
C      1  0.5895930000000  0.6081320000000  0.4580020000000 1.0
C      1  0.5368020000000  0.5333810000000  0.4708990000000 1.0
C      1  0.5241910000000  0.4644420000000  0.4090830000000 1.0
C      1  0.6238200000000  0.4106890000000  0.4967290000000 1.0
C      1  0.5672740000000  0.4890120000000  0.3960140000000 1.0
C      1  0.5565410000000  0.4604550000000  0.5436470000000 1.0
C      1  0.4622030000000  0.5697630000000  0.4173510000000 1.0
C      1  0.5238930000000  0.4315250000000  0.4997910000000 1.0
C      1  0.4474430000000  0.5543910000000  0.5542610000000 1.0
C      1  0.3995670000000  0.4481530000000  0.4027350000000 1.0
C      1  0.5885470000000  0.4318990000000  0.5757230000000 1.0
C      1  0.5450230000000  0.4661700000000  0.4788540000000 1.0
C      1  0.3831090000000  0.4635930000000  0.5229740000000 1.0
C      1  0.4864320000000  0.3945560000000  0.5738340000000 1.0
C      1  0.5919550000000  0.4938030000000  0.4061100000000 1.0
C      1  0.6116770000000  0.5280900000000  0.4403430000000 1.0
C      1  0.5323410000000  0.3802390000000  0.5159900000000 1.0
C      1  0.4329450000000  0.5174780000000  0.5280460000000 1.0
C      1  0.5492060000000  0.4719200000000  0.4520830000000 1.0
C      1  0.5764180000000  0.3976050000000  0.4979570000000 1.0
C      1  0.6185000000000  0.4831680000000  0.4857660000000 1.0
C      1  0.4605020000000  0.4434430000000  0.6154460000000 1.0
C      1  0.5985140000000  0.4596640000000  0.5740130000000 1.0
C      1  0.5816310000000  0.5134670000000  0.4989240000000 1.0
C      1  0.5240340000000  0.5136430000000  0.4877720000000 1.0
C      1  0.5146540000000  0.4491130000000  0.6119680000000 1.0
C      1  0.4291020000000  0.4943120000000  0.5396530000000 1.0
C      1  0.4478990000000  0.5658600000000  0.6010840000000 1.0
C      1  0.4522090000000  0.4486510000000  0.4680730000000 1.0
C      1  0.3980900000000  0.5750000000000  0.5274570000000 1.0
C      1  0.5402380000000  0.4471850000000  0.5599610000000 1.0
C      1  0.5585070000000  0.4973720000000  0.4467220000000 1.0
C      1  0.5710090000000  0.5551840000000  0.5549220000000 1.0
C      1  0.4231840000000  0.4344340000000  0.4054010000000 1.0
C      1  0.4616500000000  0.5403870000000  0.4175400000000 1.0
C      1  0.5764820000000  0.5397920000000  0.5042920000000 1.0
C      1  0.4115980000000  0.5631330000000  0.4799570000000 1.0
C      1  0.5665700000000  0.3967180000000  0.5456770000000 1.0
C      1  0.4380950000000  0.5647910000000  0.4617010000000 1.0
C      1  0.5582420000000  0.5980110000000  0.5257220000000 1.0
C      1  0.5242830000000  0.5142240000000  0.3991580000000 1.0
C      1  0.6099960000000  0.5053170000000  0.4229000000000 1.0
C      1  0.3649940000000  0.5384990000000  0.5202190000000 1.0
C      1  0.6147260000000  0.4640060000000  0.5512830000000 1.0
C      1  0.5050160000000  0.5599580000000  0.3918310000000 1.0
C      1  0.4318450000000  0.4697920000000  0.4626800000000 1.0
C      1  0.4738990000000  0.4882090000000  0.4449480000000 1.0
C      1  0.3781560000000  0.4884220000000  0.5107060000000 1.0
C      1  0.3780720000000  0.5579020000000  0.5380750000000 1.0
C      1  0.5309030000000  0.5614810000000  0.4701980000000 1.0
C      1  0.3850040000000  0.5417070000000  0.5619520000000 1.0
C      1  0.5446760000000  0.4863460000000  0.6180670000000 1.0
C      1  0.6319260000000  0.5423020000000  0.4881390000000 1.0
C      1  0.5751290000000  0.4727760000000  0.5266380000000 1.0
C      1  0.5690750000000  0.5951500000000  0.4717840000000 1.0
C      1  0.4750090000000  0.5680300000000  0.6024340000000 1.0
C      1  0.5694570000000  0.4220050000000  0.4833950000000 1.0
C      1  0.4335400000000  0.5004660000000  0.4165290000000 1.0
C      1  0.3923740000000  0.4499340000000  0.4507170000000 1.0
C      1  0.4326190000000  0.4265570000000  0.4312390000000 1.0
C      1  0.4654810000000  0.4522500000000  0.4934120000000 1.0
C      1  0.5078960000000  0.3859930000000  0.4424840000000 1.0
C      1  0.4986930000000  0.5227330000000  0.5279030000000 1.0
C      1  0.4099350000000  0.5163180000000  0.4224280000000 1.0
C      1  0.5885690000000  0.4114590000000  0.5558710000000 1.0
C      1  0.5606780000000  0.3873540000000  0.5188250000000 1.0
C      1  0.5163710000000  0.3721290000000  0.4644110000000 1.0
C      1  0.4778890000000  0.4701510000000  0.3920840000000 1.0
C      1  0.3773120000000  0.5187020000000  0.4733600000000 1.0
C      1  0.5374870000000  0.4882690000000  0.4990570000000 1.0
C      1  0.2991430000000  0.5281830000000  0.4565410000000 1.0
C      1  0.4101950000000  0.4265970000000  0.4502910000000 1.0
C      1  0.4439310000000  0.4909380000000  0.4447120000000 1.0
C      1  0.5836250000000  0.5110290000000  0.5737290000000 1.0
C      1  0.4666090000000  0.5820740000000  0.4979360000000 1.0
C      1  0.4863430000000  0.5716950000000  0.5156770000000 1.0
C      1  0.5649930000000  0.4936950000000  0.5104530000000 1.0
C      1  0.6038880000000  0.5065030000000  0.4824470000000 1.0
C      1  0.4169220000000  0.5595410000000  0.5111750000000 1.0
C      1  0.5198430000000  0.4762000000000  0.6084430000000 1.0
C      1  0.5567880000000  0.5781330000000  0.5472520000000 1.0
C      1  0.3784380000000  0.5141250000000  0.5555150000000 1.0
C      1  0.4909460000000  0.5763380000000  0.4114280000000 1.0
C      1  0.4833840000000  0.5532300000000  0.4612400000000 1.0
C      1  0.4270300000000  0.4674280000000  0.5457660000000 1.0
C      1  0.4918680000000  0.4851450000000  0.5655350000000 1.0
C      1  0.4917200000000  0.5621590000000  0.5803660000000 1.0
C      1  0.4922320000000  0.4092800000000  0.5970130000000 1.0
C      1  0.4131450000000  0.5274820000000  0.4481960000000 1.0
C      1  0.6316630000000  0.5398080000000  0.5153790000000 1.0
C      1  0.4402500000000  0.6082350000000  0.4483330000000 1.0
C      1  0.4957610000000  0.4540670000000  0.4083840000000 1.0
C      1  0.5922900000000  0.4337340000000  0.4710110000000 1.0
C      1  0.6163370000000  0.4604670000000  0.5015340000000 1.0
C      1  0.5357680000000  0.5383020000000  0.5813420000000 1.0
C      1  0.4625110000000  0.5642070000000  0.4760770000000 1.0
C      1  0.5385730000000  0.4886390000000  0.3971370000000 1.0
C      1  0.6155860000000  0.4361230000000  0.4874760000000 1.0
C      1  0.4990500000000  0.5076000000000  0.4096920000000 1.0
C      1  0.4840570000000  0.4332660000000  0.4273630000000 1.0
C      1  0.3864410000000  0.4923960000000  0.4830570000000 1.0
C      1  0.5929090000000  0.5477390000000  0.4325060000000 1.0
C      1  0.4053980000000  0.5502720000000  0.5790590000000 1.0
C      1  0.5682660000000  0.5962310000000  0.4999000000000 1.0
C      1  0.4094420000000  0.6002530000000  0.5336810000000 1.0
C      1  0.5079020000000  0.4494630000000  0.5145720000000 1.0
C      1  0.5667260000000  0.4286590000000  0.5943330000000 1.0
C      1  0.3838410000000  0.4557100000000  0.4239400000000 1.0
C      1  0.5162960000000  0.4247150000000  0.5978030000000 1.0
C      1  0.5654050000000  0.5424940000000  0.4306370000000 1.0
C      1  0.4549020000000  0.4286230000000  0.5500420000000 1.0
C      1  0.5196540000000  0.3912400000000  0.5405940000000 1.0
C      1  0.5105670000000  0.4094590000000  0.4898130000000 1.0
C      1  0.6224970000000  0.5294900000000  0.5387120000000 1.0
C      1  0.4469820000000  0.6042630000000  0.4993280000000 1.0
END
