TITL C-599894-471-337 5.95285515656904 125000 -458.272958261443 0 0 75 (C1) n - 1
REM
REM in /home/nfs/bkarasulu/CARBON/AIRSS/Generating-Clusters/TERSOFF/Only-C1/FIRE-HFTN
REM
REM
REM
REM
REM
REM ./C.cell (11c1c37f851c82e70ff6c80c92926a4b)
REM AIRSS Version 0.9.1 bugfix July 2018 build 013d7b7c2542+ Fri, 06 Jul 2018 19:26:36 +0100
REM compiler GCC version 9.2.1 20190827 (Red Hat 9.2.1-1)
REM options -cpp -mtune=generic -march=x86-64 -g -O0 -fpre-include=/usr/include/finclude/math-vector-fortran.h
REM seed -236230716 940194117 -502628030 2097098663 2087679440 499781311 311062455 -1357151202 -56229859 1263607467 1456635642 1622434261 1899463073 205227123 -368949757 1628732181 338759591 886277091 -2105955331 -328930089 1986018647 59657956 73351927 -1067666116 373733365 -1775039674 -2010910677 -2072873830 438591360 -453170641 1263031885 -1369488355 -2037444800
REM
CELL 1.54180   50.00000   50.00000   50.00000   90.00000   90.00000   90.00000
LATT -1
SFAC C  
C      1  0.4844710000000  0.5671780000000  0.6284240000000 1.0
C      1  0.4398690000000  0.6092290000000  0.5674050000000 1.0
C      1  0.5449280000000  0.5605710000000  0.4647070000000 1.0
C      1  0.4841810000000  0.4163540000000  0.4668090000000 1.0
C      1  0.4999200000000  0.5131930000000  0.4289210000000 1.0
C      1  0.4845020000000  0.5476260000000  0.5511790000000 1.0
C      1  0.5882690000000  0.3884570000000  0.5143250000000 1.0
C      1  0.6106830000000  0.3796480000000  0.4989450000000 1.0
C      1  0.5115050000000  0.4723100000000  0.5320480000000 1.0
C      1  0.5486460000000  0.4033290000000  0.5339240000000 1.0
C      1  0.5743260000000  0.4086040000000  0.4969360000000 1.0
C      1  0.4341230000000  0.5530330000000  0.4653890000000 1.0
C      1  0.4406420000000  0.4384280000000  0.4526900000000 1.0
C      1  0.5498640000000  0.4179560000000  0.5088820000000 1.0
C      1  0.4629610000000  0.6057750000000  0.5802990000000 1.0
C      1  0.4516390000000  0.5167410000000  0.4328780000000 1.0
C      1  0.4870100000000  0.5618700000000  0.4790230000000 1.0
C      1  0.4102530000000  0.5511330000000  0.5485640000000 1.0
C      1  0.4204300000000  0.5737280000000  0.5349950000000 1.0
C      1  0.5175180000000  0.4592030000000  0.4190460000000 1.0
C      1  0.6306840000000  0.3612720000000  0.5056130000000 1.0
C      1  0.4400900000000  0.4633960000000  0.5610620000000 1.0
C      1  0.6526390000000  0.3510190000000  0.4938550000000 1.0
C      1  0.4943030000000  0.5810850000000  0.6076890000000 1.0
C      1  0.4146870000000  0.5232890000000  0.5501070000000 1.0
C      1  0.4939770000000  0.3925710000000  0.4761500000000 1.0
C      1  0.4489230000000  0.5383480000000  0.6107250000000 1.0
C      1  0.4735960000000  0.5746420000000  0.4569940000000 1.0
C      1  0.4564510000000  0.4201870000000  0.4643180000000 1.0
C      1  0.4478360000000  0.4608220000000  0.4398070000000 1.0
C      1  0.4144790000000  0.5107110000000  0.5247990000000 1.0
C      1  0.4500230000000  0.5301650000000  0.5842220000000 1.0
C      1  0.4403620000000  0.5445630000000  0.4943500000000 1.0
C      1  0.4714770000000  0.5450470000000  0.4975110000000 1.0
C      1  0.4636170000000  0.5503180000000  0.6296120000000 1.0
C      1  0.5017740000000  0.4373730000000  0.4586260000000 1.0
C      1  0.5327830000000  0.5760460000000  0.4829000000000 1.0
C      1  0.5229960000000  0.5253040000000  0.4342110000000 1.0
C      1  0.4748250000000  0.5009360000000  0.4315260000000 1.0
C      1  0.4818630000000  0.5411630000000  0.5235830000000 1.0
C      1  0.4238470000000  0.5973440000000  0.5497200000000 1.0
C      1  0.4938620000000  0.5965020000000  0.5102130000000 1.0
C      1  0.6104010000000  0.3934150000000  0.4727500000000 1.0
C      1  0.4447390000000  0.5918960000000  0.4920500000000 1.0
C      1  0.6521860000000  0.3734590000000  0.4512910000000 1.0
C      1  0.6301220000000  0.3887500000000  0.4534810000000 1.0
C      1  0.4322620000000  0.5712370000000  0.5094270000000 1.0
C      1  0.4316900000000  0.5123780000000  0.5699700000000 1.0
C      1  0.6626850000000  0.3562760000000  0.4693200000000 1.0
C      1  0.4918870000000  0.5745890000000  0.5581730000000 1.0
C      1  0.4846380000000  0.5810950000000  0.4324890000000 1.0
C      1  0.4965930000000  0.4856990000000  0.5494020000000 1.0
C      1  0.4483700000000  0.4891240000000  0.5634590000000 1.0
C      1  0.4751180000000  0.5276150000000  0.5689370000000 1.0
C      1  0.5289600000000  0.4375310000000  0.4687580000000 1.0
C      1  0.4967240000000  0.5852650000000  0.4092890000000 1.0
C      1  0.4464690000000  0.5797750000000  0.4650300000000 1.0
C      1  0.4355310000000  0.5344490000000  0.4446390000000 1.0
C      1  0.4754520000000  0.4993210000000  0.5610110000000 1.0
C      1  0.4267310000000  0.5199900000000  0.5027680000000 1.0
C      1  0.5063890000000  0.5790000000000  0.4914160000000 1.0
C      1  0.5747820000000  0.4262690000000  0.4526610000000 1.0
C      1  0.4845350000000  0.5877860000000  0.5823300000000 1.0
C      1  0.4675900000000  0.6054890000000  0.5026440000000 1.0
C      1  0.4960050000000  0.4562340000000  0.4372910000000 1.0
C      1  0.5428110000000  0.4515760000000  0.4248110000000 1.0
C      1  0.5221260000000  0.4572810000000  0.5129760000000 1.0
C      1  0.5335960000000  0.4374430000000  0.4969340000000 1.0
C      1  0.5095700000000  0.5881070000000  0.3867840000000 1.0
C      1  0.5400720000000  0.5415560000000  0.4466050000000 1.0
C      1  0.4998770000000  0.5917280000000  0.5371540000000 1.0
C      1  0.5501120000000  0.4388890000000  0.4489800000000 1.0
C      1  0.4729080000000  0.4728370000000  0.4354600000000 1.0
C      1  0.5875740000000  0.4108300000000  0.4717930000000 1.0
C      1  0.5706670000000  0.3866430000000  0.5369340000000 1.0
END
