TITL C-599895-9959-526 5.51611549608121e-06 125000 -450.154447697881 0 0 74 (C1) n - 1
REM
REM in /home/nfs/bkarasulu/CARBON/AIRSS/Generating-Clusters/TERSOFF/Only-C1/FIRE-HFTN
REM
REM
REM
REM
REM
REM ./C.cell (11c1c37f851c82e70ff6c80c92926a4b)
REM AIRSS Version 0.9.1 bugfix July 2018 build 013d7b7c2542+ Fri, 06 Jul 2018 19:26:36 +0100
REM compiler GCC version 9.2.1 20190827 (Red Hat 9.2.1-1)
REM options -cpp -mtune=generic -march=x86-64 -g -O0 -fpre-include=/usr/include/finclude/math-vector-fortran.h
REM seed 778070114 -960331915 1680849835 -1228091693 1020704963 -842281574 -1383074273 670035290 -604785195 -1162976091 -2051750047 -1360509589 1769413123 2143373625 1314422665 1606291776 -743601473 -1697228971 1391534631 -1647855093 2002246146 855089364 898266636 -414661615 -165148480 296129485 -471921418 -549437518 -169787926 -1885542987 -1877395793 2040367215 -1548156616
REM
CELL 1.54180   50.00000   50.00000   50.00000   90.00000   90.00000   90.00000
LATT -1
SFAC C  
C      1  0.4565890000000  0.4945620000000  0.4442350000000 1.0
C      1  0.4030740000000  0.4971850000000  0.5473110000000 1.0
C      1  0.5155290000000  0.5630030000000  0.5484490000000 1.0
C      1  0.5102810000000  0.5116920000000  0.4262180000000 1.0
C      1  0.4366080000000  0.5336930000000  0.4700210000000 1.0
C      1  0.5404210000000  0.3845880000000  0.4667350000000 1.0
C      1  0.4852620000000  0.5176130000000  0.4141580000000 1.0
C      1  0.4717980000000  0.4280250000000  0.5275220000000 1.0
C      1  0.4786500000000  0.4471990000000  0.4822630000000 1.0
C      1  0.5622300000000  0.4311110000000  0.5127970000000 1.0
C      1  0.6042300000000  0.4661590000000  0.5309950000000 1.0
C      1  0.4766410000000  0.5596010000000  0.4656080000000 1.0
C      1  0.5342920000000  0.4078690000000  0.4796070000000 1.0
C      1  0.4845030000000  0.4680980000000  0.5510970000000 1.0
C      1  0.4646650000000  0.5200250000000  0.4337870000000 1.0
C      1  0.4557390000000  0.4641420000000  0.4840060000000 1.0
C      1  0.6237400000000  0.4782390000000  0.5458330000000 1.0
C      1  0.4814360000000  0.6054150000000  0.5219730000000 1.0
C      1  0.3885520000000  0.5245760000000  0.4845210000000 1.0
C      1  0.5033240000000  0.4511770000000  0.4679510000000 1.0
C      1  0.4725450000000  0.5816360000000  0.5098970000000 1.0
C      1  0.5886520000000  0.4304610000000  0.5034510000000 1.0
C      1  0.5621150000000  0.5564250000000  0.4776540000000 1.0
C      1  0.4534430000000  0.4890760000000  0.4716290000000 1.0
C      1  0.5766870000000  0.4718940000000  0.5352090000000 1.0
C      1  0.5694820000000  0.4918640000000  0.4466750000000 1.0
C      1  0.5756040000000  0.5339870000000  0.4715350000000 1.0
C      1  0.3895630000000  0.4734660000000  0.4800010000000 1.0
C      1  0.4813810000000  0.5207030000000  0.3874330000000 1.0
C      1  0.5226160000000  0.5006260000000  0.5532520000000 1.0
C      1  0.4341580000000  0.4587420000000  0.5024990000000 1.0
C      1  0.3838410000000  0.5288240000000  0.5120120000000 1.0
C      1  0.5018740000000  0.6600710000000  0.5659120000000 1.0
C      1  0.5145140000000  0.5593860000000  0.5003300000000 1.0
C      1  0.5687910000000  0.5065500000000  0.4709420000000 1.0
C      1  0.5418950000000  0.4122610000000  0.5065740000000 1.0
C      1  0.5253630000000  0.4061990000000  0.5288350000000 1.0
C      1  0.5387200000000  0.5654290000000  0.4870970000000 1.0
C      1  0.5121780000000  0.4739380000000  0.5508380000000 1.0
C      1  0.5202090000000  0.4285380000000  0.4667180000000 1.0
C      1  0.5101490000000  0.5882340000000  0.5555720000000 1.0
C      1  0.5220980000000  0.4857820000000  0.4333120000000 1.0
C      1  0.5499660000000  0.5084060000000  0.5172360000000 1.0
C      1  0.5205100000000  0.4249980000000  0.5479260000000 1.0
C      1  0.5224390000000  0.4962600000000  0.4795400000000 1.0
C      1  0.4486240000000  0.5399570000000  0.5282580000000 1.0
C      1  0.4971580000000  0.6107780000000  0.5447830000000 1.0
C      1  0.4390370000000  0.4623040000000  0.5307120000000 1.0
C      1  0.5157760000000  0.5306410000000  0.4468360000000 1.0
C      1  0.5168830000000  0.5458770000000  0.5260410000000 1.0
C      1  0.5503100000000  0.4835610000000  0.4293020000000 1.0
C      1  0.5249680000000  0.5188380000000  0.5295580000000 1.0
C      1  0.4886630000000  0.5679680000000  0.4903140000000 1.0
C      1  0.4783390000000  0.4261020000000  0.5013850000000 1.0
C      1  0.4541460000000  0.5657290000000  0.5240010000000 1.0
C      1  0.3820590000000  0.4987210000000  0.4751350000000 1.0
C      1  0.5562360000000  0.4520900000000  0.5318800000000 1.0
C      1  0.5488650000000  0.4990770000000  0.4905340000000 1.0
C      1  0.4090700000000  0.5389590000000  0.4712620000000 1.0
C      1  0.4996040000000  0.6362090000000  0.5556800000000 1.0
C      1  0.5144320000000  0.4761620000000  0.4602620000000 1.0
C      1  0.6104160000000  0.4467450000000  0.5109150000000 1.0
C      1  0.4582350000000  0.5417690000000  0.4526460000000 1.0
C      1  0.4210310000000  0.4774780000000  0.5458750000000 1.0
C      1  0.4452660000000  0.5117350000000  0.4867560000000 1.0
C      1  0.4081240000000  0.4583010000000  0.4918670000000 1.0
C      1  0.5665620000000  0.4978030000000  0.5389410000000 1.0
C      1  0.4481740000000  0.5174220000000  0.5138780000000 1.0
C      1  0.4639120000000  0.4521390000000  0.5402680000000 1.0
C      1  0.3894620000000  0.5167740000000  0.5352710000000 1.0
C      1  0.5304470000000  0.4517050000000  0.5455240000000 1.0
C      1  0.5123380000000  0.5217390000000  0.4722630000000 1.0
C      1  0.5504070000000  0.5013810000000  0.5630700000000 1.0
C      1  0.6351010000000  0.4443090000000  0.4996190000000 1.0
END
