TITL C-599896-8500-32 -0.000525463623518744 125000 -1037.59434817712 0 0 168 (C1) n - 1
REM
REM in /home/nfs/bkarasulu/CARBON/AIRSS/Generating-Clusters/TERSOFF/Only-C1/FIRE-HFTN
REM
REM
REM
REM
REM
REM ./C.cell (11c1c37f851c82e70ff6c80c92926a4b)
REM AIRSS Version 0.9.1 bugfix July 2018 build 013d7b7c2542+ Fri, 06 Jul 2018 19:26:36 +0100
REM compiler GCC version 9.2.1 20190827 (Red Hat 9.2.1-1)
REM options -cpp -mtune=generic -march=x86-64 -g -O0 -fpre-include=/usr/include/finclude/math-vector-fortran.h
REM seed -129112968 1371610629 -1650206399 1533817654 363946732 863124029 892094971 263462843 571694019 1958098592 -540136937 -1993071091 -476875388 -739030464 -737210480 -1231063516 544745878 138923228 494913763 -601688437 784963358 -1120777246 106654607 694409845 43129924 1678304645 1900832196 -2098462527 -392320279 1550236960 1725686955 458685493 1617959445
REM
CELL 1.54180   50.00000   50.00000   50.00000   90.00000   90.00000   90.00000
LATT -1
SFAC C  
C      1  0.4931540000000  0.4991800000000  0.3831280000000 1.0
C      1  0.5111140000000  0.5794230000000  0.5206810000000 1.0
C      1  0.4607680000000  0.4647500000000  0.4743420000000 1.0
C      1  0.4858900000000  0.5094810000000  0.5010090000000 1.0
C      1  0.4726370000000  0.4403150000000  0.5232810000000 1.0
C      1  0.5445200000000  0.5163910000000  0.5403480000000 1.0
C      1  0.5523670000000  0.6087650000000  0.5103540000000 1.0
C      1  0.4253810000000  0.5608170000000  0.4001530000000 1.0
C      1  0.5302500000000  0.5212020000000  0.4483250000000 1.0
C      1  0.4194490000000  0.4194710000000  0.4558200000000 1.0
C      1  0.5548200000000  0.6019730000000  0.5596670000000 1.0
C      1  0.4022010000000  0.4418330000000  0.4667490000000 1.0
C      1  0.4436120000000  0.4164370000000  0.4406800000000 1.0
C      1  0.5460840000000  0.5261020000000  0.4941230000000 1.0
C      1  0.5368110000000  0.6238990000000  0.5592220000000 1.0
C      1  0.4226280000000  0.4613430000000  0.5849290000000 1.0
C      1  0.4607760000000  0.4976490000000  0.5621180000000 1.0
C      1  0.4095680000000  0.4980460000000  0.5398240000000 1.0
C      1  0.5661120000000  0.5437250000000  0.5075590000000 1.0
C      1  0.4333550000000  0.4617940000000  0.6112130000000 1.0
C      1  0.5517990000000  0.4481910000000  0.6489900000000 1.0
C      1  0.5501030000000  0.5911230000000  0.4589920000000 1.0
C      1  0.5482170000000  0.4519270000000  0.5054080000000 1.0
C      1  0.4325430000000  0.4757750000000  0.4399380000000 1.0
C      1  0.4978200000000  0.4493510000000  0.4444940000000 1.0
C      1  0.6074890000000  0.4481480000000  0.6005840000000 1.0
C      1  0.4601060000000  0.5677090000000  0.4991210000000 1.0
C      1  0.4165280000000  0.5607120000000  0.4768960000000 1.0
C      1  0.4427230000000  0.5246540000000  0.4455810000000 1.0
C      1  0.5276260000000  0.5205300000000  0.5175030000000 1.0
C      1  0.5942470000000  0.4629070000000  0.5278330000000 1.0
C      1  0.4842380000000  0.4675200000000  0.4599360000000 1.0
C      1  0.4841770000000  0.4556320000000  0.4005830000000 1.0
C      1  0.5288690000000  0.5749230000000  0.4221230000000 1.0
C      1  0.4318960000000  0.5210050000000  0.5025230000000 1.0
C      1  0.5257080000000  0.4473000000000  0.4472890000000 1.0
C      1  0.4156540000000  0.4618190000000  0.6322360000000 1.0
C      1  0.3991350000000  0.4356790000000  0.4970010000000 1.0
C      1  0.5534870000000  0.4013880000000  0.4974110000000 1.0
C      1  0.5478970000000  0.4732880000000  0.4837490000000 1.0
C      1  0.5192880000000  0.3997790000000  0.4565500000000 1.0
C      1  0.5002690000000  0.4712840000000  0.5723710000000 1.0
C      1  0.5860720000000  0.5547930000000  0.4636690000000 1.0
C      1  0.4703940000000  0.6375310000000  0.5200500000000 1.0
C      1  0.5001470000000  0.5960340000000  0.3895330000000 1.0
C      1  0.5823300000000  0.4357190000000  0.4726160000000 1.0
C      1  0.5725490000000  0.5091450000000  0.4219020000000 1.0
C      1  0.5257120000000  0.6018740000000  0.5108690000000 1.0
C      1  0.4886890000000  0.4679130000000  0.6157260000000 1.0
C      1  0.4012170000000  0.4811680000000  0.4909380000000 1.0
C      1  0.6077890000000  0.4510800000000  0.5501380000000 1.0
C      1  0.5624430000000  0.3897170000000  0.5491070000000 1.0
C      1  0.5679300000000  0.5570210000000  0.5526870000000 1.0
C      1  0.6145760000000  0.5225060000000  0.4855320000000 1.0
C      1  0.5627520000000  0.4281810000000  0.4918800000000 1.0
C      1  0.5238850000000  0.5922800000000  0.4460240000000 1.0
C      1  0.3990870000000  0.5056110000000  0.4311510000000 1.0
C      1  0.3999550000000  0.4605350000000  0.5121630000000 1.0
C      1  0.4610220000000  0.4622550000000  0.6172720000000 1.0
C      1  0.4925230000000  0.5418290000000  0.5406160000000 1.0
C      1  0.4943100000000  0.4934610000000  0.4578180000000 1.0
C      1  0.5201570000000  0.4435020000000  0.5145170000000 1.0
C      1  0.4293940000000  0.5160980000000  0.5309640000000 1.0
C      1  0.4848170000000  0.4372480000000  0.4225530000000 1.0
C      1  0.5652320000000  0.4475900000000  0.6252990000000 1.0
C      1  0.4290200000000  0.5324970000000  0.4010650000000 1.0
C      1  0.3795830000000  0.3925840000000  0.5434660000000 1.0
C      1  0.5156890000000  0.6372120000000  0.5483820000000 1.0
C      1  0.5574100000000  0.4989070000000  0.4898760000000 1.0
C      1  0.4643000000000  0.4155930000000  0.5136970000000 1.0
C      1  0.5929580000000  0.5881440000000  0.4979440000000 1.0
C      1  0.5336290000000  0.4207790000000  0.4435810000000 1.0
C      1  0.4043410000000  0.4559910000000  0.5638110000000 1.0
C      1  0.4638660000000  0.6171760000000  0.4994700000000 1.0
C      1  0.5063990000000  0.4749310000000  0.3933060000000 1.0
C      1  0.5845690000000  0.5985760000000  0.5576030000000 1.0
C      1  0.4655000000000  0.5442400000000  0.5496300000000 1.0
C      1  0.4987160000000  0.6383180000000  0.5256360000000 1.0
C      1  0.5877520000000  0.5595670000000  0.4935000000000 1.0
C      1  0.5090230000000  0.6230480000000  0.5028980000000 1.0
C      1  0.5934310000000  0.5711800000000  0.5502260000000 1.0
C      1  0.4891100000000  0.5683960000000  0.5037320000000 1.0
C      1  0.5139620000000  0.5652930000000  0.5493330000000 1.0
C      1  0.5084390000000  0.5391640000000  0.5950130000000 1.0
C      1  0.5937570000000  0.4563160000000  0.4595220000000 1.0
C      1  0.5269530000000  0.4365970000000  0.5945560000000 1.0
C      1  0.5097120000000  0.5110600000000  0.5970020000000 1.0
C      1  0.4393830000000  0.4809880000000  0.4669300000000 1.0
C      1  0.5052350000000  0.5239460000000  0.3796560000000 1.0
C      1  0.4944460000000  0.4554530000000  0.5118290000000 1.0
C      1  0.3902780000000  0.3914720000000  0.5190860000000 1.0
C      1  0.4250840000000  0.4971830000000  0.4865360000000 1.0
C      1  0.4591050000000  0.4703610000000  0.3964090000000 1.0
C      1  0.4445670000000  0.5901750000000  0.5372970000000 1.0
C      1  0.4037350000000  0.4702850000000  0.5388620000000 1.0
C      1  0.4791650000000  0.5552450000000  0.4476670000000 1.0
C      1  0.4511930000000  0.5935480000000  0.5097900000000 1.0
C      1  0.6122920000000  0.5443510000000  0.5057020000000 1.0
C      1  0.5011340000000  0.6043250000000  0.4589270000000 1.0
C      1  0.5522100000000  0.4488710000000  0.5998740000000 1.0
C      1  0.4506850000000  0.5202810000000  0.5491480000000 1.0
C      1  0.5182470000000  0.4207850000000  0.5311600000000 1.0
C      1  0.4131390000000  0.3977440000000  0.4744720000000 1.0
C      1  0.5670160000000  0.4584640000000  0.5770950000000 1.0
C      1  0.5115870000000  0.4124750000000  0.5556930000000 1.0
C      1  0.4742480000000  0.4732170000000  0.5613660000000 1.0
C      1  0.4820180000000  0.5140780000000  0.4728700000000 1.0
C      1  0.5450100000000  0.5744790000000  0.5549090000000 1.0
C      1  0.4645330000000  0.4961610000000  0.3845090000000 1.0
C      1  0.5104370000000  0.5493200000000  0.3853490000000 1.0
C      1  0.3578590000000  0.5024100000000  0.4552380000000 1.0
C      1  0.4899500000000  0.3976920000000  0.4525220000000 1.0
C      1  0.5335730000000  0.3906950000000  0.4797520000000 1.0
C      1  0.4885390000000  0.4822440000000  0.5077340000000 1.0
C      1  0.4891710000000  0.6157540000000  0.4825780000000 1.0
C      1  0.5004000000000  0.5253690000000  0.5190770000000 1.0
C      1  0.6084100000000  0.4782050000000  0.5091140000000 1.0
C      1  0.4241530000000  0.5745740000000  0.3766280000000 1.0
C      1  0.5521240000000  0.3979080000000  0.5728280000000 1.0
C      1  0.5129200000000  0.5737200000000  0.3988670000000 1.0
C      1  0.5568620000000  0.4884320000000  0.4095120000000 1.0
C      1  0.5610890000000  0.3899080000000  0.5222000000000 1.0
C      1  0.4763080000000  0.3858890000000  0.4744380000000 1.0
C      1  0.4224520000000  0.5207630000000  0.4263040000000 1.0
C      1  0.6319360000000  0.4376060000000  0.5466740000000 1.0
C      1  0.3897120000000  0.5568890000000  0.4844440000000 1.0
C      1  0.3858410000000  0.4354050000000  0.5682740000000 1.0
C      1  0.4457080000000  0.5170060000000  0.3843930000000 1.0
C      1  0.4674880000000  0.5322450000000  0.4566310000000 1.0
C      1  0.5953010000000  0.4528260000000  0.5755730000000 1.0
C      1  0.5545830000000  0.5604270000000  0.4249180000000 1.0
C      1  0.5341130000000  0.4770250000000  0.3998550000000 1.0
C      1  0.4667240000000  0.3943820000000  0.4978590000000 1.0
C      1  0.5780140000000  0.6091510000000  0.5040570000000 1.0
C      1  0.5934790000000  0.4460100000000  0.6236510000000 1.0
C      1  0.3530240000000  0.5245590000000  0.4695810000000 1.0
C      1  0.5074700000000  0.5615960000000  0.5798930000000 1.0
C      1  0.4383950000000  0.4682180000000  0.4150100000000 1.0
C      1  0.5212850000000  0.4949850000000  0.4502760000000 1.0
C      1  0.4525610000000  0.5692620000000  0.5526140000000 1.0
C      1  0.5348430000000  0.5367200000000  0.4697690000000 1.0
C      1  0.5644880000000  0.5359170000000  0.4150130000000 1.0
C      1  0.4635740000000  0.4514370000000  0.5473090000000 1.0
C      1  0.5285390000000  0.4130540000000  0.5781130000000 1.0
C      1  0.4720400000000  0.4139510000000  0.4346310000000 1.0
C      1  0.6002830000000  0.5301740000000  0.4595970000000 1.0
C      1  0.6115980000000  0.4936220000000  0.4860130000000 1.0
C      1  0.4214130000000  0.5731850000000  0.4519960000000 1.0
C      1  0.4230540000000  0.5737760000000  0.4252640000000 1.0
C      1  0.5361720000000  0.4712530000000  0.4580120000000 1.0
C      1  0.5398750000000  0.4950340000000  0.5576020000000 1.0
C      1  0.4012230000000  0.4068350000000  0.4988580000000 1.0
C      1  0.5678210000000  0.5704570000000  0.4489620000000 1.0
C      1  0.5648750000000  0.5357100000000  0.5355970000000 1.0
C      1  0.4378030000000  0.5488240000000  0.4929400000000 1.0
C      1  0.6002140000000  0.4837310000000  0.4606140000000 1.0
C      1  0.3771060000000  0.4109000000000  0.5627040000000 1.0
C      1  0.3662290000000  0.5447240000000  0.4811110000000 1.0
C      1  0.6543220000000  0.4247750000000  0.5430170000000 1.0
C      1  0.5914440000000  0.5064710000000  0.4440460000000 1.0
C      1  0.3921100000000  0.4696040000000  0.4648880000000 1.0
C      1  0.5039650000000  0.4536200000000  0.5952780000000 1.0
C      1  0.5653150000000  0.4623430000000  0.5290180000000 1.0
C      1  0.3817600000000  0.4896190000000  0.4472060000000 1.0
C      1  0.6130650000000  0.5568830000000  0.5329870000000 1.0
C      1  0.5169870000000  0.4946090000000  0.5742170000000 1.0
C      1  0.5552410000000  0.4712500000000  0.5545000000000 1.0
C      1  0.4980350000000  0.4952620000000  0.6181960000000 1.0
END
