TITL C-599895-9959-152 -13997.7913976305 125000 -1153.76728634064 0 0 189 (C1) n - 1
REM
REM in /home/nfs/bkarasulu/CARBON/AIRSS/Generating-Clusters/TERSOFF/Only-C1/FIRE-HFTN
REM
REM
REM
REM
REM
REM ./C.cell (11c1c37f851c82e70ff6c80c92926a4b)
REM AIRSS Version 0.9.1 bugfix July 2018 build 013d7b7c2542+ Fri, 06 Jul 2018 19:26:36 +0100
REM compiler GCC version 9.2.1 20190827 (Red Hat 9.2.1-1)
REM options -cpp -mtune=generic -march=x86-64 -g -O0 -fpre-include=/usr/include/finclude/math-vector-fortran.h
REM seed 1899792671 -1530416480 1654477389 727471424 -1016156476 -113118065 1174184344 1255900437 850680238 -134693024 898294327 -369462590 -2060757186 -1094875939 175272024 418659604 -1916657724 -618226141 1659750214 -1001639415 -144258392 1778258032 -971683001 -739304515 -1239612184 -87303820 65078696 -964016445 636751757 -58876525 538868861 566453802 61853046
REM
CELL 1.54180   50.00000   50.00000   50.00000   90.00000   90.00000   90.00000
LATT -1
SFAC C  
C      1  0.4308920000000  0.4496670000000  0.4964700000000 1.0
C      1  0.5430500000000  0.5156310000000  0.4840440000000 1.0
C      1  0.5465370000000  0.3898200000000  0.5446850000000 1.0
C      1  0.5038050000000  0.6016710000000  0.5677160000000 1.0
C      1  0.6116670000000  0.5252340000000  0.5391790000000 1.0
C      1  0.4812720000000  0.5720720000000  0.5085840000000 1.0
C      1  0.5082040000000  0.5185750000000  0.5127790000000 1.0
C      1  0.5892340000000  0.4535100000000  0.4875640000000 1.0
C      1  0.5532100000000  0.4311460000000  0.5760330000000 1.0
C      1  0.5668350000000  0.4522790000000  0.5879530000000 1.0
C      1  0.5797490000000  0.4090860000000  0.4722350000000 1.0
C      1  0.5865290000000  0.5275460000000  0.4779430000000 1.0
C      1  0.5479160000000  0.5648520000000  0.4456940000000 1.0
C      1  0.5191600000000  0.5417330000000  0.6156940000000 1.0
C      1  0.4915920000000  0.5484920000000  0.4400130000000 1.0
C      1  0.4000370000000  0.4618340000000  0.5422790000000 1.0
C      1  0.4676100000000  0.5715060000000  0.3981630000000 1.0
C      1  0.5557020000000  0.4739340000000  0.3849910000000 1.0
C      1  0.5406140000000  0.5227120000000  0.6103340000000 1.0
C      1  0.4243060000000  0.3901130000000  0.5376070000000 1.0
C      1  0.5720800000000  0.5854890000000  0.5160860000000 1.0
C      1  0.5199630000000  0.4379500000000  0.3982490000000 1.0
C      1  0.6115530000000  0.5100350000000  0.4001530000000 1.0
C      1  0.4197100000000  0.4841610000000  0.5360700000000 1.0
C      1  0.4098060000000  0.4936580000000  0.5085400000000 1.0
C      1  0.5304850000000  0.5860040000000  0.4356050000000 1.0
C      1  0.4917960000000  0.4784970000000  0.6286720000000 1.0
C      1  0.4724410000000  0.6255310000000  0.4805470000000 1.0
C      1  0.4597740000000  0.5367660000000  0.5286950000000 1.0
C      1  0.4194880000000  0.5564120000000  0.4403410000000 1.0
C      1  0.4867110000000  0.6109840000000  0.5454910000000 1.0
C      1  0.4523870000000  0.3878850000000  0.5779670000000 1.0
C      1  0.4815500000000  0.5141920000000  0.4048290000000 1.0
C      1  0.4765920000000  0.5661240000000  0.6177200000000 1.0
C      1  0.5847580000000  0.4265700000000  0.4494080000000 1.0
C      1  0.5167950000000  0.4936310000000  0.4525590000000 1.0
C      1  0.5138810000000  0.5221500000000  0.3539910000000 1.0
C      1  0.4095010000000  0.4350550000000  0.5462330000000 1.0
C      1  0.3993340000000  0.5575900000000  0.3989790000000 1.0
C      1  0.5788400000000  0.4772210000000  0.5907370000000 1.0
C      1  0.5252010000000  0.4756960000000  0.4307890000000 1.0
C      1  0.5781480000000  0.4166350000000  0.5196210000000 1.0
C      1  0.4552230000000  0.5302310000000  0.4978860000000 1.0
C      1  0.4594550000000  0.5231880000000  0.4220570000000 1.0
C      1  0.5362880000000  0.5387650000000  0.4411160000000 1.0
C      1  0.4774970000000  0.5872720000000  0.4215730000000 1.0
C      1  0.4085720000000  0.4791760000000  0.4186470000000 1.0
C      1  0.4643790000000  0.4053260000000  0.5943780000000 1.0
C      1  0.5735220000000  0.4726420000000  0.4468690000000 1.0
C      1  0.4536090000000  0.4504980000000  0.5137170000000 1.0
C      1  0.5462830000000  0.4577770000000  0.4449580000000 1.0
C      1  0.5137420000000  0.4625830000000  0.5885080000000 1.0
C      1  0.5575300000000  0.4281140000000  0.4383570000000 1.0
C      1  0.4234660000000  0.4768280000000  0.4882410000000 1.0
C      1  0.4587960000000  0.5506870000000  0.3813410000000 1.0
C      1  0.4755590000000  0.4344280000000  0.5243190000000 1.0
C      1  0.5680790000000  0.5136180000000  0.4950320000000 1.0
C      1  0.5006140000000  0.5747280000000  0.5770120000000 1.0
C      1  0.5329640000000  0.5163470000000  0.4583280000000 1.0
C      1  0.4802900000000  0.4649020000000  0.4093920000000 1.0
C      1  0.5245410000000  0.4486220000000  0.4680780000000 1.0
C      1  0.4882730000000  0.4958210000000  0.4992000000000 1.0
C      1  0.5215020000000  0.5366100000000  0.5547950000000 1.0
C      1  0.4306730000000  0.3989150000000  0.4573000000000 1.0
C      1  0.4238030000000  0.4217530000000  0.4993890000000 1.0
C      1  0.4937840000000  0.4420210000000  0.5797480000000 1.0
C      1  0.4558970000000  0.6118880000000  0.5456220000000 1.0
C      1  0.4008250000000  0.5703320000000  0.4233370000000 1.0
C      1  0.5398220000000  0.4522720000000  0.3842860000000 1.0
C      1  0.4735210000000  0.5051040000000  0.5722080000000 1.0
C      1  0.4538220000000  0.4578870000000  0.4167730000000 1.0
C      1  0.5024040000000  0.5645300000000  0.6036170000000 1.0
C      1  0.5149700000000  0.3450450000000  0.4943470000000 1.0
C      1  0.4419780000000  0.4063030000000  0.4824970000000 1.0
C      1  0.5565110000000  0.3910450000000  0.4705310000000 1.0
C      1  0.5520350000000  0.5229530000000  0.3836320000000 1.0
C      1  0.5079610000000  0.4788950000000  0.4752650000000 1.0
C      1  0.5006300000000  0.5564430000000  0.5557490000000 1.0
C      1  0.4573310000000  0.5841470000000  0.4985380000000 1.0
C      1  0.5172700000000  0.4106120000000  0.4065620000000 1.0
C      1  0.5061540000000  0.5921830000000  0.4246730000000 1.0
C      1  0.3888260000000  0.4917120000000  0.4315820000000 1.0
C      1  0.5230260000000  0.4577060000000  0.5341340000000 1.0
C      1  0.5744740000000  0.4925360000000  0.5126750000000 1.0
C      1  0.5892830000000  0.5903660000000  0.4458100000000 1.0
C      1  0.5397480000000  0.4160230000000  0.5546100000000 1.0
C      1  0.5364360000000  0.4326780000000  0.4894100000000 1.0
C      1  0.4525470000000  0.4528640000000  0.5591210000000 1.0
C      1  0.5163730000000  0.4080090000000  0.4354980000000 1.0
C      1  0.4176220000000  0.5459670000000  0.5801590000000 1.0
C      1  0.3734780000000  0.5317990000000  0.4614550000000 1.0
C      1  0.4904210000000  0.6304670000000  0.5000030000000 1.0
C      1  0.5652750000000  0.4831660000000  0.5381010000000 1.0
C      1  0.4388260000000  0.4975300000000  0.3843170000000 1.0
C      1  0.3881460000000  0.5465920000000  0.5065190000000 1.0
C      1  0.5420130000000  0.4036170000000  0.4475420000000 1.0
C      1  0.5853460000000  0.5557520000000  0.4796000000000 1.0
C      1  0.5960760000000  0.4762340000000  0.5022790000000 1.0
C      1  0.6019050000000  0.5160850000000  0.5649760000000 1.0
C      1  0.4705200000000  0.4160150000000  0.4803240000000 1.0
C      1  0.4188550000000  0.5369340000000  0.3981680000000 1.0
C      1  0.4335270000000  0.4765230000000  0.4052740000000 1.0
C      1  0.5182300000000  0.4219080000000  0.5075610000000 1.0
C      1  0.4620260000000  0.5022060000000  0.5986490000000 1.0
C      1  0.4980090000000  0.5596660000000  0.4899820000000 1.0
C      1  0.4394330000000  0.5273250000000  0.3802090000000 1.0
C      1  0.4691480000000  0.4901060000000  0.5283650000000 1.0
C      1  0.5670120000000  0.5452030000000  0.3777740000000 1.0
C      1  0.5318160000000  0.6075850000000  0.5680250000000 1.0
C      1  0.6010650000000  0.5110990000000  0.4596230000000 1.0
C      1  0.4532990000000  0.5260010000000  0.6122420000000 1.0
C      1  0.4444160000000  0.4903280000000  0.4739020000000 1.0
C      1  0.5175880000000  0.5458940000000  0.5054010000000 1.0
C      1  0.4381670000000  0.5784600000000  0.5192760000000 1.0
C      1  0.5736890000000  0.5701640000000  0.4574830000000 1.0
C      1  0.4891540000000  0.4202920000000  0.5034160000000 1.0
C      1  0.4813710000000  0.5575140000000  0.5340050000000 1.0
C      1  0.5719460000000  0.4296970000000  0.4942420000000 1.0
C      1  0.4589510000000  0.5127380000000  0.5466550000000 1.0
C      1  0.4531200000000  0.4359760000000  0.4356660000000 1.0
C      1  0.4279960000000  0.5096490000000  0.5504860000000 1.0
C      1  0.4156330000000  0.5534340000000  0.4676290000000 1.0
C      1  0.5511860000000  0.5901260000000  0.5600580000000 1.0
C      1  0.6241670000000  0.5000870000000  0.4727260000000 1.0
C      1  0.5162600000000  0.4749750000000  0.6150540000000 1.0
C      1  0.5646040000000  0.3918530000000  0.5213260000000 1.0
C      1  0.4670060000000  0.4786200000000  0.6148700000000 1.0
C      1  0.5545570000000  0.5738120000000  0.5370170000000 1.0
C      1  0.5253870000000  0.4305480000000  0.5342010000000 1.0
C      1  0.4789050000000  0.4404520000000  0.5537530000000 1.0
C      1  0.4604150000000  0.6004790000000  0.4741750000000 1.0
C      1  0.4200220000000  0.5376030000000  0.5534850000000 1.0
C      1  0.4582340000000  0.4520150000000  0.6108400000000 1.0
C      1  0.5213860000000  0.4817050000000  0.5686940000000 1.0
C      1  0.5871830000000  0.4344010000000  0.5392750000000 1.0
C      1  0.4479480000000  0.4702200000000  0.5347050000000 1.0
C      1  0.5081330000000  0.5152500000000  0.5405030000000 1.0
C      1  0.3894060000000  0.5487390000000  0.4776200000000 1.0
C      1  0.4732090000000  0.5386090000000  0.6298040000000 1.0
C      1  0.4005130000000  0.5939820000000  0.5355220000000 1.0
C      1  0.4749850000000  0.4304340000000  0.4550710000000 1.0
C      1  0.5304740000000  0.3626810000000  0.5079820000000 1.0
C      1  0.4993460000000  0.4980750000000  0.5614330000000 1.0
C      1  0.5134290000000  0.5408470000000  0.4245980000000 1.0
C      1  0.4741140000000  0.4313990000000  0.5989650000000 1.0
C      1  0.5904020000000  0.5662230000000  0.5061430000000 1.0
C      1  0.5591760000000  0.5233280000000  0.5885410000000 1.0
C      1  0.4408580000000  0.3755700000000  0.5552860000000 1.0
C      1  0.4338350000000  0.5363570000000  0.4245100000000 1.0
C      1  0.6037090000000  0.5495400000000  0.5258270000000 1.0
C      1  0.5055720000000  0.4542330000000  0.4199210000000 1.0
C      1  0.5000010000000  0.5308970000000  0.6353410000000 1.0
C      1  0.6205340000000  0.4910100000000  0.4997090000000 1.0
C      1  0.3886580000000  0.5712170000000  0.5231530000000 1.0
C      1  0.6263690000000  0.5070410000000  0.5224990000000 1.0
C      1  0.5830880000000  0.5060400000000  0.5849860000000 1.0
C      1  0.5303460000000  0.5683800000000  0.5205740000000 1.0
C      1  0.5021590000000  0.6140400000000  0.5199320000000 1.0
C      1  0.5352100000000  0.4958200000000  0.6194160000000 1.0
C      1  0.5249620000000  0.5975180000000  0.5115360000000 1.0
C      1  0.5284070000000  0.3688810000000  0.5362230000000 1.0
C      1  0.4299170000000  0.4374520000000  0.5663750000000 1.0
C      1  0.5794750000000  0.4594650000000  0.5452480000000 1.0
C      1  0.4464270000000  0.3492790000000  0.5499560000000 1.0
C      1  0.4649970000000  0.5070670000000  0.4843550000000 1.0
C      1  0.6034520000000  0.6083780000000  0.4334020000000 1.0
C      1  0.5529760000000  0.6048930000000  0.5041800000000 1.0
C      1  0.5453670000000  0.4940740000000  0.5559470000000 1.0
C      1  0.3756060000000  0.5103240000000  0.4455030000000 1.0
C      1  0.3944450000000  0.5181560000000  0.5110130000000 1.0
C      1  0.5238160000000  0.5240110000000  0.3794590000000 1.0
C      1  0.4620880000000  0.5930160000000  0.4459930000000 1.0
C      1  0.4885980000000  0.5543660000000  0.4652160000000 1.0
C      1  0.4151560000000  0.4144480000000  0.5263580000000 1.0
C      1  0.4371220000000  0.5454690000000  0.4831880000000 1.0
C      1  0.4295190000000  0.6004820000000  0.5355270000000 1.0
C      1  0.5064480000000  0.5276040000000  0.4014870000000 1.0
C      1  0.5874660000000  0.5024970000000  0.4110080000000 1.0
C      1  0.4822860000000  0.4882920000000  0.3947140000000 1.0
C      1  0.4334050000000  0.4155250000000  0.4358970000000 1.0
C      1  0.4509200000000  0.5717240000000  0.6063550000000 1.0
C      1  0.5648220000000  0.4993220000000  0.3935140000000 1.0
C      1  0.5517830000000  0.3790760000000  0.4966680000000 1.0
C      1  0.5861710000000  0.4968490000000  0.4389620000000 1.0
C      1  0.5911160000000  0.4529590000000  0.4588880000000 1.0
C      1  0.4346670000000  0.5535100000000  0.5337670000000 1.0
C      1  0.4363590000000  0.5473290000000  0.6007460000000 1.0
C      1  0.5453930000000  0.5232880000000  0.5633660000000 1.0
C      1  0.5029740000000  0.4341780000000  0.4463710000000 1.0
END
