TITL C-599894-471-420 12.0493880165143 125000 -135.300194051029 0 0 24 (C1) n - 1
REM
REM in /home/nfs/bkarasulu/CARBON/AIRSS/Generating-Clusters/TERSOFF/Only-C1/FIRE-HFTN
REM
REM
REM
REM
REM
REM ./C.cell (11c1c37f851c82e70ff6c80c92926a4b)
REM AIRSS Version 0.9.1 bugfix July 2018 build 013d7b7c2542+ Fri, 06 Jul 2018 19:26:36 +0100
REM compiler GCC version 9.2.1 20190827 (Red Hat 9.2.1-1)
REM options -cpp -mtune=generic -march=x86-64 -g -O0 -fpre-include=/usr/include/finclude/math-vector-fortran.h
REM seed 1617831491 71074269 -2025587606 -1642101752 883696421 278257641 1814873892 1031410177 564857563 -989401602 -2024026255 1018131454 -306819202 -116722465 -1024985228 -911855906 -2125860167 107355025 -586738227 1639274198 1208822792 -1707918839 1859313448 -464899555 1443024919 817298767 1209023107 -867309030 -429235948 -2130914039 882461287 21296388 -1625069535
REM
CELL 1.54180   50.00000   50.00000   50.00000   90.00000   90.00000   90.00000
LATT -1
SFAC C  
C      1  0.4934430000000  0.4663580000000  0.4955720000000 1.0
C      1  0.4976580000000  0.5218520000000  0.5009910000000 1.0
C      1  0.5694060000000  0.5196170000000  0.5245140000000 1.0
C      1  0.4957870000000  0.4941590000000  0.4975220000000 1.0
C      1  0.4134680000000  0.5847020000000  0.4787610000000 1.0
C      1  0.5119370000000  0.4496150000000  0.5093380000000 1.0
C      1  0.5621110000000  0.3755710000000  0.5199100000000 1.0
C      1  0.5833470000000  0.4970710000000  0.5263640000000 1.0
C      1  0.5595760000000  0.4009970000000  0.5147860000000 1.0
C      1  0.4342710000000  0.5692350000000  0.4842610000000 1.0
C      1  0.3718560000000  0.6156380000000  0.4677600000000 1.0
C      1  0.5318240000000  0.4335950000000  0.4679470000000 1.0
C      1  0.5753410000000  0.4468090000000  0.5175670000000 1.0
C      1  0.4550740000000  0.5537690000000  0.4897620000000 1.0
C      1  0.5851080000000  0.4707030000000  0.5237050000000 1.0
C      1  0.5562750000000  0.4281510000000  0.5092300000000 1.0
C      1  0.5332200000000  0.4371310000000  0.4950800000000 1.0
C      1  0.3513900000000  0.6308530000000  0.4623490000000 1.0
C      1  0.4731180000000  0.4552340000000  0.4809790000000 1.0
C      1  0.3926640000000  0.6001680000000  0.4732610000000 1.0
C      1  0.5087780000000  0.4453230000000  0.5362250000000 1.0
C      1  0.5468450000000  0.5323290000000  0.5185840000000 1.0
C      1  0.5216430000000  0.5328180000000  0.5102750000000 1.0
C      1  0.4758630000000  0.5383030000000  0.4952570000000 1.0
END
