TITL C-599894-471-851 -2114.71099193688 125000 -683.672963255135 0 0 114 (C1) n - 1
REM
REM in /home/nfs/bkarasulu/CARBON/AIRSS/Generating-Clusters/TERSOFF/Only-C1/FIRE-HFTN
REM
REM
REM
REM
REM
REM ./C.cell (11c1c37f851c82e70ff6c80c92926a4b)
REM AIRSS Version 0.9.1 bugfix July 2018 build 013d7b7c2542+ Fri, 06 Jul 2018 19:26:36 +0100
REM compiler GCC version 9.2.1 20190827 (Red Hat 9.2.1-1)
REM options -cpp -mtune=generic -march=x86-64 -g -O0 -fpre-include=/usr/include/finclude/math-vector-fortran.h
REM seed -451730738 1728936011 1885339261 -630049395 1575018334 9843154 -888576186 -1877329600 -2093705631 510922331 521543503 -1558354052 -8156894 1524335056 951671073 2077267348 1357488245 571819726 226055291 -1399735333 1295794870 -1378824784 -1886098945 1708735157 -734278567 1721731514 -1898654669 -1617936676 -1309663469 -1604975619 -765164276 406503343 75868990
REM
CELL 1.54180   50.00000   50.00000   50.00000   90.00000   90.00000   90.00000
LATT -1
SFAC C  
C      1  0.5690230000000  0.4910130000000  0.4690180000000 1.0
C      1  0.4590370000000  0.4850930000000  0.5022820000000 1.0
C      1  0.5281010000000  0.4903540000000  0.4481350000000 1.0
C      1  0.4840680000000  0.4874220000000  0.4416090000000 1.0
C      1  0.4557930000000  0.4485510000000  0.4711860000000 1.0
C      1  0.5320770000000  0.4551880000000  0.4183310000000 1.0
C      1  0.4639760000000  0.5934550000000  0.4764130000000 1.0
C      1  0.4994850000000  0.5448640000000  0.4773190000000 1.0
C      1  0.5049200000000  0.6048380000000  0.4995940000000 1.0
C      1  0.5178080000000  0.5577100000000  0.4970660000000 1.0
C      1  0.5426280000000  0.4795350000000  0.5119100000000 1.0
C      1  0.4829050000000  0.4032000000000  0.4768900000000 1.0
C      1  0.4987300000000  0.4051630000000  0.4516390000000 1.0
C      1  0.5541620000000  0.5256480000000  0.5840870000000 1.0
C      1  0.5028370000000  0.5127960000000  0.5111260000000 1.0
C      1  0.5298060000000  0.5605770000000  0.5244480000000 1.0
C      1  0.5154050000000  0.4427210000000  0.5321600000000 1.0
C      1  0.5499420000000  0.5438980000000  0.5385860000000 1.0
C      1  0.5038230000000  0.5225610000000  0.5354890000000 1.0
C      1  0.5464480000000  0.5479550000000  0.4339710000000 1.0
C      1  0.5542820000000  0.4213740000000  0.5007620000000 1.0
C      1  0.4529310000000  0.5806690000000  0.4995380000000 1.0
C      1  0.4749210000000  0.4424520000000  0.5153130000000 1.0
C      1  0.5540250000000  0.4748640000000  0.4125880000000 1.0
C      1  0.4581070000000  0.5088640000000  0.4867080000000 1.0
C      1  0.4565750000000  0.4639100000000  0.4159330000000 1.0
C      1  0.5273340000000  0.4009380000000  0.4589710000000 1.0
C      1  0.5323330000000  0.5263310000000  0.4192050000000 1.0
C      1  0.4952800000000  0.5344010000000  0.5572890000000 1.0
C      1  0.4590970000000  0.5225900000000  0.5288380000000 1.0
C      1  0.5112420000000  0.5762160000000  0.5681940000000 1.0
C      1  0.4770410000000  0.5494550000000  0.4581060000000 1.0
C      1  0.4821500000000  0.4464820000000  0.4184680000000 1.0
C      1  0.4280780000000  0.5165650000000  0.5599430000000 1.0
C      1  0.4824110000000  0.4335680000000  0.5950710000000 1.0
C      1  0.4888380000000  0.4510350000000  0.5374400000000 1.0
C      1  0.5272830000000  0.5946540000000  0.4566650000000 1.0
C      1  0.5342050000000  0.5275340000000  0.6023840000000 1.0
C      1  0.5134790000000  0.4686770000000  0.5841370000000 1.0
C      1  0.5732540000000  0.4660140000000  0.5116670000000 1.0
C      1  0.4707750000000  0.4688080000000  0.4565410000000 1.0
C      1  0.5778730000000  0.4990290000000  0.5493790000000 1.0
C      1  0.5869350000000  0.5324220000000  0.5007480000000 1.0
C      1  0.5040740000000  0.5291010000000  0.4141120000000 1.0
C      1  0.4175230000000  0.4696520000000  0.5312530000000 1.0
C      1  0.5361130000000  0.4833210000000  0.5435570000000 1.0
C      1  0.4045620000000  0.5142040000000  0.5142700000000 1.0
C      1  0.4407740000000  0.5553010000000  0.4934760000000 1.0
C      1  0.4429150000000  0.4641990000000  0.4917540000000 1.0
C      1  0.4163680000000  0.4650520000000  0.5018050000000 1.0
C      1  0.5408440000000  0.4997540000000  0.4233620000000 1.0
C      1  0.5118400000000  0.4828350000000  0.5593310000000 1.0
C      1  0.5131030000000  0.5762150000000  0.4142230000000 1.0
C      1  0.4644720000000  0.5281110000000  0.4425760000000 1.0
C      1  0.5077980000000  0.4477430000000  0.4623010000000 1.0
C      1  0.4383370000000  0.5123040000000  0.4432410000000 1.0
C      1  0.4527480000000  0.5658470000000  0.5460740000000 1.0
C      1  0.4940460000000  0.5927000000000  0.5240780000000 1.0
C      1  0.4378390000000  0.5093820000000  0.5858910000000 1.0
C      1  0.4982200000000  0.5553570000000  0.4049090000000 1.0
C      1  0.5480220000000  0.5007630000000  0.4898750000000 1.0
C      1  0.5905060000000  0.4912280000000  0.5230410000000 1.0
C      1  0.5044390000000  0.4003290000000  0.4978750000000 1.0
C      1  0.5220920000000  0.4569240000000  0.5071250000000 1.0
C      1  0.4384760000000  0.4419280000000  0.5689430000000 1.0
C      1  0.4865090000000  0.6104680000000  0.4773790000000 1.0
C      1  0.4659480000000  0.5825380000000  0.5254520000000 1.0
C      1  0.4144290000000  0.4992620000000  0.5383430000000 1.0
C      1  0.4179410000000  0.5219130000000  0.4641070000000 1.0
C      1  0.5796170000000  0.5132560000000  0.4537190000000 1.0
C      1  0.5707060000000  0.4506310000000  0.5386410000000 1.0
C      1  0.5622450000000  0.4744100000000  0.5552890000000 1.0
C      1  0.4545790000000  0.5321940000000  0.5022210000000 1.0
C      1  0.5321590000000  0.5742120000000  0.4360470000000 1.0
C      1  0.4033500000000  0.5074000000000  0.4852510000000 1.0
C      1  0.5705790000000  0.5377460000000  0.4453830000000 1.0
C      1  0.5317430000000  0.5994890000000  0.4857410000000 1.0
C      1  0.5070330000000  0.5360170000000  0.6015630000000 1.0
C      1  0.5562660000000  0.6030430000000  0.4970550000000 1.0
C      1  0.4851800000000  0.5130950000000  0.4288790000000 1.0
C      1  0.5634780000000  0.4606010000000  0.4596300000000 1.0
C      1  0.5042510000000  0.5174540000000  0.4838250000000 1.0
C      1  0.4451430000000  0.5377950000000  0.5482400000000 1.0
C      1  0.6030580000000  0.5123850000000  0.5094040000000 1.0
C      1  0.4657740000000  0.5751320000000  0.4548910000000 1.0
C      1  0.5604310000000  0.5270360000000  0.4974170000000 1.0
C      1  0.4862920000000  0.4785330000000  0.5451430000000 1.0
C      1  0.4419070000000  0.4138200000000  0.5012070000000 1.0
C      1  0.5320800000000  0.4248740000000  0.5461850000000 1.0
C      1  0.5315670000000  0.4600610000000  0.4499740000000 1.0
C      1  0.5681400000000  0.4454480000000  0.4870880000000 1.0
C      1  0.5071410000000  0.4523160000000  0.4046350000000 1.0
C      1  0.5027770000000  0.6108310000000  0.4531920000000 1.0
C      1  0.5324370000000  0.4053450000000  0.4878630000000 1.0
C      1  0.5631590000000  0.5243300000000  0.5566840000000 1.0
C      1  0.3987960000000  0.4792690000000  0.4848750000000 1.0
C      1  0.4407860000000  0.4860410000000  0.4262220000000 1.0
C      1  0.4328590000000  0.4469280000000  0.5418750000000 1.0
C      1  0.5141200000000  0.5797540000000  0.5401480000000 1.0
C      1  0.5753450000000  0.4634770000000  0.4304440000000 1.0
C      1  0.4836710000000  0.5217740000000  0.6099850000000 1.0
C      1  0.4221500000000  0.5493390000000  0.4727700000000 1.0
C      1  0.4568490000000  0.4357530000000  0.5873870000000 1.0
C      1  0.5257350000000  0.4229770000000  0.5736630000000 1.0
C      1  0.4591750000000  0.5128330000000  0.6023760000000 1.0
C      1  0.4486300000000  0.4318630000000  0.5220730000000 1.0
C      1  0.5567540000000  0.4256340000000  0.5313220000000 1.0
C      1  0.4925950000000  0.4317210000000  0.4423140000000 1.0
C      1  0.4671910000000  0.4937920000000  0.5296250000000 1.0
C      1  0.5022160000000  0.5514760000000  0.5781760000000 1.0
C      1  0.5248190000000  0.5038540000000  0.4719520000000 1.0
C      1  0.5008120000000  0.4503580000000  0.4898070000000 1.0
C      1  0.4582120000000  0.4191020000000  0.4778650000000 1.0
C      1  0.5088390000000  0.4407760000000  0.5884540000000 1.0
END
