TITL C-599895-9959-753 23.789834232989 125000 -761.524645973494 0 0 125 (C1) n - 1
REM
REM in /home/nfs/bkarasulu/CARBON/AIRSS/Generating-Clusters/TERSOFF/Only-C1/FIRE-HFTN
REM
REM
REM
REM
REM
REM ./C.cell (11c1c37f851c82e70ff6c80c92926a4b)
REM AIRSS Version 0.9.1 bugfix July 2018 build 013d7b7c2542+ Fri, 06 Jul 2018 19:26:36 +0100
REM compiler GCC version 9.2.1 20190827 (Red Hat 9.2.1-1)
REM options -cpp -mtune=generic -march=x86-64 -g -O0 -fpre-include=/usr/include/finclude/math-vector-fortran.h
REM seed 612498594 -793123462 1289629167 42653290 2012453476 -1460960096 1279968633 -742636296 -492847092 1577191020 -183125781 -1065881940 -339681497 2115366149 -1241171535 1594351549 -291926456 -419506662 -715475525 -2074444095 -22804449 -976784094 837852964 -1343729091 223467292 -520173575 566189742 530087426 1847631013 -1392103961 -291607668 -1954420829 -325349045
REM
CELL 1.54180   50.00000   50.00000   50.00000   90.00000   90.00000   90.00000
LATT -1
SFAC C  
C      1  0.5098540000000  0.4828570000000  0.4411230000000 1.0
C      1  0.5280340000000  0.5320620000000  0.5279100000000 1.0
C      1  0.5464780000000  0.4668970000000  0.5726780000000 1.0
C      1  0.4725640000000  0.6101920000000  0.5547550000000 1.0
C      1  0.4116100000000  0.5421490000000  0.5396270000000 1.0
C      1  0.4234020000000  0.4654110000000  0.4663920000000 1.0
C      1  0.5231230000000  0.5356800000000  0.4431350000000 1.0
C      1  0.4321130000000  0.5346740000000  0.4982460000000 1.0
C      1  0.5376880000000  0.4229470000000  0.5389190000000 1.0
C      1  0.4985230000000  0.4391840000000  0.5083740000000 1.0
C      1  0.4307970000000  0.5366370000000  0.4696190000000 1.0
C      1  0.4072860000000  0.5177930000000  0.4663210000000 1.0
C      1  0.4740130000000  0.4550980000000  0.4691920000000 1.0
C      1  0.5493480000000  0.5242360000000  0.4479180000000 1.0
C      1  0.5810020000000  0.5147500000000  0.5518320000000 1.0
C      1  0.4493190000000  0.5147400000000  0.5061680000000 1.0
C      1  0.3901120000000  0.5232390000000  0.4916870000000 1.0
C      1  0.5721020000000  0.5598860000000  0.4051230000000 1.0
C      1  0.5232980000000  0.6021300000000  0.5550560000000 1.0
C      1  0.4823830000000  0.5080520000000  0.5343860000000 1.0
C      1  0.4694510000000  0.5273890000000  0.5204440000000 1.0
C      1  0.5222570000000  0.5813450000000  0.4528110000000 1.0
C      1  0.4904490000000  0.4833000000000  0.3907590000000 1.0
C      1  0.4945850000000  0.4389040000000  0.4800900000000 1.0
C      1  0.6091150000000  0.5273400000000  0.5069480000000 1.0
C      1  0.3676350000000  0.5092260000000  0.5004660000000 1.0
C      1  0.5455650000000  0.4507040000000  0.4938710000000 1.0
C      1  0.5697280000000  0.4725510000000  0.5289850000000 1.0
C      1  0.4442080000000  0.4007480000000  0.4013240000000 1.0
C      1  0.5371620000000  0.4790420000000  0.4472290000000 1.0
C      1  0.5303630000000  0.4502900000000  0.3969680000000 1.0
C      1  0.5405990000000  0.5060160000000  0.4885770000000 1.0
C      1  0.5641140000000  0.5502590000000  0.5016550000000 1.0
C      1  0.4700100000000  0.5482930000000  0.4183030000000 1.0
C      1  0.5267820000000  0.5100420000000  0.5492240000000 1.0
C      1  0.5868360000000  0.4023020000000  0.5311690000000 1.0
C      1  0.4820310000000  0.5485530000000  0.5807210000000 1.0
C      1  0.5450350000000  0.4660330000000  0.5179150000000 1.0
C      1  0.4384190000000  0.4576620000000  0.5966780000000 1.0
C      1  0.5152840000000  0.4237920000000  0.4673190000000 1.0
C      1  0.5109470000000  0.4662980000000  0.3876720000000 1.0
C      1  0.4449100000000  0.4205350000000  0.4841910000000 1.0
C      1  0.5716000000000  0.5414890000000  0.5565830000000 1.0
C      1  0.5674340000000  0.4815250000000  0.5562880000000 1.0
C      1  0.5120110000000  0.5798550000000  0.5068120000000 1.0
C      1  0.4957330000000  0.5963950000000  0.5630340000000 1.0
C      1  0.5421700000000  0.5816230000000  0.5643680000000 1.0
C      1  0.5638040000000  0.5602750000000  0.4745790000000 1.0
C      1  0.5206000000000  0.5096330000000  0.5776200000000 1.0
C      1  0.5708490000000  0.5406000000000  0.4562700000000 1.0
C      1  0.5032270000000  0.4237820000000  0.5694130000000 1.0
C      1  0.5599130000000  0.5669000000000  0.5477210000000 1.0
C      1  0.5131090000000  0.3956310000000  0.4687420000000 1.0
C      1  0.4750180000000  0.4009980000000  0.5278420000000 1.0
C      1  0.5629290000000  0.4116350000000  0.5356870000000 1.0
C      1  0.5988870000000  0.4877490000000  0.4865390000000 1.0
C      1  0.4823350000000  0.4545630000000  0.5254970000000 1.0
C      1  0.4462320000000  0.4443510000000  0.4623210000000 1.0
C      1  0.5460950000000  0.4525030000000  0.4447920000000 1.0
C      1  0.4073860000000  0.5361110000000  0.5120530000000 1.0
C      1  0.4124360000000  0.4897950000000  0.4614090000000 1.0
C      1  0.4972140000000  0.4641650000000  0.5491270000000 1.0
C      1  0.4633980000000  0.4616750000000  0.5882890000000 1.0
C      1  0.5011800000000  0.3941010000000  0.5158150000000 1.0
C      1  0.4573610000000  0.4888970000000  0.4971230000000 1.0
C      1  0.3883180000000  0.4667620000000  0.5847870000000 1.0
C      1  0.5902840000000  0.4858430000000  0.5142340000000 1.0
C      1  0.5484810000000  0.5001260000000  0.4618610000000 1.0
C      1  0.4720020000000  0.4992150000000  0.5589490000000 1.0
C      1  0.5190290000000  0.4822440000000  0.5363710000000 1.0
C      1  0.3699390000000  0.4747950000000  0.5673060000000 1.0
C      1  0.5315580000000  0.4856000000000  0.5890430000000 1.0
C      1  0.4119760000000  0.4602800000000  0.5950940000000 1.0
C      1  0.4481580000000  0.4461320000000  0.4308400000000 1.0
C      1  0.4814610000000  0.5395670000000  0.4763220000000 1.0
C      1  0.5008780000000  0.4944460000000  0.5167190000000 1.0
C      1  0.4546420000000  0.4085730000000  0.5075360000000 1.0
C      1  0.4453280000000  0.4231300000000  0.4154500000000 1.0
C      1  0.4546440000000  0.5476880000000  0.5719670000000 1.0
C      1  0.6093050000000  0.5360020000000  0.4310250000000 1.0
C      1  0.4687630000000  0.4932840000000  0.4062960000000 1.0
C      1  0.4911920000000  0.4980640000000  0.4556520000000 1.0
C      1  0.4574470000000  0.4669490000000  0.5168150000000 1.0
C      1  0.5466040000000  0.5652890000000  0.4121750000000 1.0
C      1  0.4569450000000  0.5489220000000  0.4627370000000 1.0
C      1  0.3575250000000  0.4952590000000  0.5208130000000 1.0
C      1  0.5484130000000  0.5269140000000  0.5068910000000 1.0
C      1  0.5976560000000  0.5301190000000  0.4562180000000 1.0
C      1  0.5389830000000  0.5874270000000  0.5020440000000 1.0
C      1  0.3589550000000  0.4839010000000  0.5448480000000 1.0
C      1  0.4329720000000  0.4582680000000  0.5272500000000 1.0
C      1  0.5143710000000  0.4975230000000  0.4932910000000 1.0
C      1  0.4535000000000  0.4723180000000  0.4191370000000 1.0
C      1  0.5163500000000  0.4188970000000  0.5200750000000 1.0
C      1  0.4857060000000  0.5426260000000  0.5041900000000 1.0
C      1  0.4990380000000  0.5256970000000  0.4581460000000 1.0
C      1  0.5583060000000  0.5725260000000  0.5194080000000 1.0
C      1  0.4973280000000  0.5724820000000  0.5799700000000 1.0
C      1  0.4987710000000  0.5257260000000  0.5863530000000 1.0
C      1  0.4659350000000  0.6109760000000  0.5274160000000 1.0
C      1  0.5061960000000  0.3816680000000  0.4910310000000 1.0
C      1  0.4668420000000  0.5220910000000  0.4101740000000 1.0
C      1  0.5300770000000  0.4367090000000  0.5636730000000 1.0
C      1  0.4566610000000  0.6227540000000  0.5731310000000 1.0
C      1  0.6034590000000  0.4663140000000  0.4695520000000 1.0
C      1  0.5451300000000  0.4428580000000  0.4182810000000 1.0
C      1  0.5087810000000  0.5528570000000  0.5170060000000 1.0
C      1  0.5973650000000  0.5112230000000  0.5281410000000 1.0
C      1  0.5268240000000  0.5620810000000  0.4322720000000 1.0
C      1  0.4912740000000  0.5903800000000  0.4886660000000 1.0
C      1  0.5961220000000  0.5489640000000  0.4109910000000 1.0
C      1  0.4821820000000  0.4113660000000  0.5552270000000 1.0
C      1  0.4712410000000  0.6048320000000  0.5019160000000 1.0
C      1  0.4433360000000  0.3786920000000  0.3874530000000 1.0
C      1  0.4940800000000  0.5838020000000  0.4602660000000 1.0
C      1  0.4693950000000  0.5650580000000  0.4421310000000 1.0
C      1  0.5442600000000  0.5822570000000  0.4729040000000 1.0
C      1  0.4795690000000  0.4740730000000  0.5694900000000 1.0
C      1  0.6105910000000  0.4463870000000  0.4543460000000 1.0
C      1  0.4102520000000  0.4462200000000  0.5314350000000 1.0
C      1  0.4309880000000  0.5459340000000  0.5585570000000 1.0
C      1  0.6056480000000  0.5158920000000  0.4799240000000 1.0
C      1  0.5401030000000  0.4380510000000  0.4684610000000 1.0
C      1  0.4732430000000  0.4835400000000  0.4731450000000 1.0
C      1  0.5261610000000  0.5689360000000  0.5848940000000 1.0
END
