TITL C-599890-3321-1215 -2514.29511277775 125000 -1205.37691135253 0 0 197 (C1) n - 1
REM
REM in /home/nfs/bkarasulu/CARBON/AIRSS/Generating-Clusters/TERSOFF/Only-C1/FIRE-HFTN
REM
REM
REM
REM
REM
REM ./C.cell (11c1c37f851c82e70ff6c80c92926a4b)
REM AIRSS Version 0.9.1 bugfix July 2018 build 013d7b7c2542+ Fri, 06 Jul 2018 19:26:36 +0100
REM compiler GCC version 9.2.1 20190827 (Red Hat 9.2.1-1)
REM options -cpp -mtune=generic -march=x86-64 -g -O0 -fpre-include=/usr/include/finclude/math-vector-fortran.h
REM seed -266567667 -654532961 -1417647456 1464720329 181272692 81070654 488906202 -229097402 -735864955 197466133 -405737818 682088349 -1234832857 1282371526 -1286286011 -890051285 -430449374 -1822056376 -357679361 -1593958686 -109577372 506259446 -339958246 -803884911 688513457 -1002653454 -918005151 1508405523 -1064778200 1829282232 1589353015 -1682937671 -1461648342
REM
CELL 1.54180   50.00000   50.00000   50.00000   90.00000   90.00000   90.00000
LATT -1
SFAC C  
C      1  0.6004000000000  0.5799500000000  0.4014540000000 1.0
C      1  0.5573360000000  0.3755140000000  0.4892290000000 1.0
C      1  0.5770540000000  0.5746360000000  0.5251670000000 1.0
C      1  0.4317670000000  0.4234760000000  0.4730340000000 1.0
C      1  0.4377530000000  0.4952400000000  0.4434640000000 1.0
C      1  0.5343160000000  0.6036090000000  0.4551300000000 1.0
C      1  0.4342280000000  0.4629570000000  0.5053480000000 1.0
C      1  0.5265460000000  0.4339250000000  0.4623340000000 1.0
C      1  0.4164390000000  0.5341640000000  0.4675980000000 1.0
C      1  0.4468890000000  0.5355890000000  0.5122800000000 1.0
C      1  0.4878950000000  0.5162530000000  0.3912190000000 1.0
C      1  0.4362920000000  0.4009030000000  0.5257960000000 1.0
C      1  0.4721290000000  0.3850280000000  0.4512350000000 1.0
C      1  0.4264090000000  0.5929130000000  0.4711800000000 1.0
C      1  0.5324230000000  0.6122580000000  0.4820320000000 1.0
C      1  0.5790560000000  0.5444130000000  0.5784640000000 1.0
C      1  0.4751580000000  0.5282730000000  0.5190280000000 1.0
C      1  0.4128590000000  0.4751580000000  0.5489870000000 1.0
C      1  0.5783240000000  0.4566850000000  0.5545870000000 1.0
C      1  0.4879340000000  0.3871340000000  0.5312010000000 1.0
C      1  0.5272110000000  0.5374750000000  0.5459380000000 1.0
C      1  0.4877710000000  0.5944860000000  0.5155710000000 1.0
C      1  0.5508670000000  0.4535260000000  0.5422260000000 1.0
C      1  0.4208510000000  0.4772760000000  0.4296300000000 1.0
C      1  0.5503270000000  0.5511240000000  0.5846310000000 1.0
C      1  0.4697330000000  0.5741730000000  0.5299050000000 1.0
C      1  0.4729470000000  0.5798250000000  0.5997790000000 1.0
C      1  0.5477140000000  0.5073510000000  0.3871380000000 1.0
C      1  0.5539610000000  0.5815280000000  0.4522730000000 1.0
C      1  0.4474200000000  0.5389970000000  0.3698440000000 1.0
C      1  0.5493690000000  0.4253000000000  0.4157210000000 1.0
C      1  0.5670120000000  0.4828100000000  0.5040910000000 1.0
C      1  0.4864880000000  0.5518930000000  0.5304140000000 1.0
C      1  0.6016870000000  0.5168560000000  0.5299650000000 1.0
C      1  0.4106220000000  0.4155510000000  0.5275880000000 1.0
C      1  0.4359860000000  0.5136970000000  0.3703620000000 1.0
C      1  0.3949710000000  0.5508440000000  0.5136710000000 1.0
C      1  0.4080940000000  0.5165750000000  0.5136520000000 1.0
C      1  0.5481870000000  0.5597080000000  0.4706170000000 1.0
C      1  0.5157910000000  0.4005700000000  0.5463150000000 1.0
C      1  0.5503250000000  0.4810820000000  0.5285280000000 1.0
C      1  0.5649310000000  0.5495370000000  0.5177540000000 1.0
C      1  0.5107720000000  0.4790970000000  0.5559550000000 1.0
C      1  0.4722930000000  0.5553800000000  0.4471440000000 1.0
C      1  0.4738740000000  0.4390680000000  0.3894960000000 1.0
C      1  0.4351770000000  0.5455940000000  0.4885830000000 1.0
C      1  0.5487250000000  0.4189660000000  0.6430150000000 1.0
C      1  0.5090160000000  0.4421020000000  0.4419650000000 1.0
C      1  0.5654030000000  0.5447690000000  0.4888380000000 1.0
C      1  0.4850510000000  0.5248510000000  0.4918850000000 1.0
C      1  0.5254280000000  0.4537370000000  0.5603370000000 1.0
C      1  0.4830890000000  0.6173840000000  0.5357020000000 1.0
C      1  0.5092260000000  0.4912390000000  0.5082710000000 1.0
C      1  0.4452730000000  0.4226650000000  0.4264070000000 1.0
C      1  0.3962580000000  0.4332910000000  0.5084670000000 1.0
C      1  0.5931130000000  0.4408450000000  0.4413890000000 1.0
C      1  0.5512920000000  0.4470900000000  0.4611200000000 1.0
C      1  0.5135940000000  0.5247420000000  0.5684570000000 1.0
C      1  0.5700640000000  0.5222190000000  0.3888240000000 1.0
C      1  0.4430430000000  0.4141550000000  0.5854570000000 1.0
C      1  0.4095360000000  0.5716150000000  0.5323180000000 1.0
C      1  0.5380400000000  0.5779140000000  0.5780580000000 1.0
C      1  0.4434290000000  0.4910220000000  0.3870830000000 1.0
C      1  0.5928630000000  0.5324420000000  0.5545870000000 1.0
C      1  0.4486410000000  0.4426690000000  0.4044130000000 1.0
C      1  0.4877290000000  0.3738310000000  0.5047510000000 1.0
C      1  0.5857300000000  0.4771240000000  0.6150790000000 1.0
C      1  0.4583520000000  0.4315330000000  0.6011260000000 1.0
C      1  0.5196970000000  0.4997380000000  0.4827500000000 1.0
C      1  0.6194840000000  0.5947920000000  0.3917250000000 1.0
C      1  0.3889770000000  0.4622180000000  0.5028280000000 1.0
C      1  0.3871190000000  0.5689080000000  0.4914110000000 1.0
C      1  0.6374730000000  0.4635850000000  0.5143750000000 1.0
C      1  0.4023850000000  0.4176310000000  0.5549760000000 1.0
C      1  0.4193520000000  0.5554110000000  0.5791020000000 1.0
C      1  0.4235150000000  0.5479060000000  0.4426840000000 1.0
C      1  0.4716420000000  0.5106480000000  0.5440970000000 1.0
C      1  0.5532450000000  0.5297420000000  0.5370730000000 1.0
C      1  0.4886470000000  0.5634440000000  0.6138710000000 1.0
C      1  0.4891210000000  0.6093820000000  0.4279350000000 1.0
C      1  0.4417060000000  0.5943870000000  0.4453390000000 1.0
C      1  0.5818750000000  0.5354210000000  0.4109810000000 1.0
C      1  0.5219600000000  0.5379710000000  0.4356150000000 1.0
C      1  0.4699850000000  0.5905380000000  0.5741130000000 1.0
C      1  0.6436500000000  0.4886940000000  0.5213820000000 1.0
C      1  0.4660610000000  0.6105600000000  0.4451210000000 1.0
C      1  0.5499150000000  0.3970860000000  0.4194440000000 1.0
C      1  0.4349720000000  0.5181450000000  0.6067630000000 1.0
C      1  0.4826460000000  0.3848740000000  0.4781500000000 1.0
C      1  0.4268540000000  0.5685450000000  0.5553550000000 1.0
C      1  0.4921990000000  0.6060260000000  0.5625130000000 1.0
C      1  0.5484720000000  0.5236670000000  0.4381740000000 1.0
C      1  0.5720010000000  0.4586140000000  0.6284440000000 1.0
C      1  0.5277040000000  0.5305240000000  0.5952330000000 1.0
C      1  0.5569430000000  0.5759910000000  0.4236520000000 1.0
C      1  0.4845220000000  0.4777280000000  0.5062410000000 1.0
C      1  0.4927550000000  0.5450570000000  0.3922760000000 1.0
C      1  0.5274470000000  0.4499590000000  0.6124850000000 1.0
C      1  0.6028760000000  0.5774780000000  0.5336180000000 1.0
C      1  0.5494350000000  0.4419580000000  0.6282920000000 1.0
C      1  0.4709700000000  0.4266300000000  0.4996930000000 1.0
C      1  0.4655340000000  0.5023500000000  0.4019120000000 1.0
C      1  0.4450620000000  0.4966780000000  0.5914090000000 1.0
C      1  0.5783980000000  0.4846740000000  0.5649090000000 1.0
C      1  0.4827510000000  0.4447850000000  0.6026510000000 1.0
C      1  0.5859780000000  0.5055900000000  0.5062360000000 1.0
C      1  0.5449380000000  0.4048740000000  0.5279280000000 1.0
C      1  0.5594720000000  0.4662640000000  0.4813890000000 1.0
C      1  0.5088050000000  0.4321430000000  0.5970380000000 1.0
C      1  0.4275920000000  0.4902520000000  0.4946640000000 1.0
C      1  0.3921160000000  0.4797450000000  0.4717090000000 1.0
C      1  0.4433020000000  0.5092930000000  0.5490870000000 1.0
C      1  0.4857780000000  0.5913860000000  0.4850540000000 1.0
C      1  0.5902030000000  0.5099720000000  0.4582450000000 1.0
C      1  0.4798270000000  0.4605980000000  0.5283050000000 1.0
C      1  0.5140410000000  0.5555820000000  0.4107900000000 1.0
C      1  0.5651870000000  0.4397780000000  0.4365390000000 1.0
C      1  0.4538720000000  0.5783900000000  0.5534440000000 1.0
C      1  0.6027720000000  0.4543310000000  0.4651400000000 1.0
C      1  0.5282510000000  0.4361990000000  0.3974990000000 1.0
C      1  0.6001610000000  0.4464510000000  0.5398140000000 1.0
C      1  0.4900650000000  0.4365450000000  0.5193690000000 1.0
C      1  0.4100240000000  0.5544080000000  0.6263580000000 1.0
C      1  0.4240390000000  0.4236580000000  0.4459840000000 1.0
C      1  0.4213060000000  0.5427730000000  0.6043140000000 1.0
C      1  0.4879060000000  0.4733000000000  0.6059780000000 1.0
C      1  0.5146640000000  0.4226130000000  0.4840730000000 1.0
C      1  0.4333760000000  0.4613080000000  0.5341260000000 1.0
C      1  0.4570660000000  0.5088330000000  0.4278080000000 1.0
C      1  0.5157610000000  0.4271320000000  0.5691750000000 1.0
C      1  0.4700260000000  0.4083380000000  0.4338540000000 1.0
C      1  0.5508040000000  0.3778190000000  0.4379740000000 1.0
C      1  0.4925740000000  0.5680770000000  0.4663650000000 1.0
C      1  0.5625320000000  0.5023540000000  0.5470540000000 1.0
C      1  0.5419300000000  0.4327290000000  0.5232240000000 1.0
C      1  0.5530180000000  0.3700090000000  0.4634160000000 1.0
C      1  0.5301430000000  0.4882120000000  0.3980080000000 1.0
C      1  0.5119760000000  0.5269670000000  0.4825450000000 1.0
C      1  0.5166500000000  0.6017660000000  0.4306620000000 1.0
C      1  0.4331620000000  0.4682440000000  0.4037810000000 1.0
C      1  0.5191870000000  0.5503300000000  0.4650690000000 1.0
C      1  0.4742700000000  0.4922490000000  0.5896670000000 1.0
C      1  0.5299290000000  0.5025130000000  0.6079640000000 1.0
C      1  0.4290070000000  0.5223300000000  0.5297600000000 1.0
C      1  0.4755760000000  0.5246690000000  0.4442350000000 1.0
C      1  0.4461630000000  0.5658490000000  0.4388200000000 1.0
C      1  0.4650650000000  0.4592430000000  0.4616810000000 1.0
C      1  0.5098770000000  0.4704950000000  0.4397690000000 1.0
C      1  0.4430290000000  0.4991040000000  0.4719300000000 1.0
C      1  0.4159870000000  0.4180720000000  0.5783260000000 1.0
C      1  0.5225030000000  0.4879820000000  0.5312150000000 1.0
C      1  0.4417760000000  0.5724740000000  0.4847090000000 1.0
C      1  0.5165930000000  0.5841340000000  0.5198940000000 1.0
C      1  0.4883720000000  0.4123630000000  0.4822850000000 1.0
C      1  0.5621440000000  0.5975290000000  0.5185960000000 1.0
C      1  0.4687250000000  0.5545910000000  0.3785330000000 1.0
C      1  0.6027520000000  0.4836130000000  0.4612730000000 1.0
C      1  0.3973570000000  0.5104130000000  0.4695760000000 1.0
C      1  0.5064230000000  0.4813160000000  0.4654530000000 1.0
C      1  0.5838280000000  0.4154170000000  0.4965280000000 1.0
C      1  0.5166670000000  0.4775220000000  0.6121160000000 1.0
C      1  0.5639680000000  0.3963250000000  0.5070860000000 1.0
C      1  0.5327460000000  0.4621700000000  0.3876470000000 1.0
C      1  0.6011280000000  0.4384950000000  0.4910520000000 1.0
C      1  0.4938430000000  0.4232040000000  0.4273170000000 1.0
C      1  0.5366120000000  0.6002310000000  0.5076090000000 1.0
C      1  0.6293380000000  0.5100210000000  0.5290000000000 1.0
C      1  0.4995570000000  0.4292310000000  0.3995810000000 1.0
C      1  0.4452660000000  0.4379660000000  0.4931320000000 1.0
C      1  0.5829730000000  0.5226710000000  0.4830970000000 1.0
C      1  0.5767430000000  0.5213210000000  0.4357170000000 1.0
C      1  0.3995100000000  0.4375240000000  0.4424320000000 1.0
C      1  0.5799420000000  0.5641460000000  0.4118790000000 1.0
C      1  0.3900670000000  0.4755550000000  0.5300590000000 1.0
C      1  0.4124690000000  0.5979470000000  0.5177550000000 1.0
C      1  0.5965860000000  0.5510000000000  0.5991830000000 1.0
C      1  0.4606710000000  0.3937000000000  0.5408860000000 1.0
C      1  0.4573060000000  0.3962660000000  0.5688670000000 1.0
C      1  0.6141110000000  0.4480890000000  0.5149960000000 1.0
C      1  0.4585200000000  0.4585770000000  0.5455850000000 1.0
C      1  0.4035390000000  0.5939690000000  0.4892760000000 1.0
C      1  0.4919220000000  0.5019050000000  0.5655650000000 1.0
C      1  0.4311350000000  0.6182150000000  0.5257220000000 1.0
C      1  0.5130850000000  0.4913420000000  0.4211990000000 1.0
C      1  0.5024370000000  0.5159170000000  0.4328960000000 1.0
C      1  0.4560080000000  0.6273690000000  0.5323870000000 1.0
C      1  0.4827120000000  0.4713370000000  0.4782570000000 1.0
C      1  0.4750120000000  0.6143470000000  0.4718560000000 1.0
C      1  0.5172360000000  0.4347830000000  0.5096730000000 1.0
C      1  0.5874010000000  0.4885220000000  0.5910280000000 1.0
C      1  0.5138580000000  0.5577420000000  0.5319700000000 1.0
C      1  0.4000010000000  0.4655990000000  0.4463500000000 1.0
C      1  0.5289700000000  0.5803820000000  0.4137860000000 1.0
C      1  0.5187860000000  0.5964030000000  0.5707550000000 1.0
C      1  0.4294370000000  0.4920890000000  0.5671270000000 1.0
C      1  0.4673030000000  0.5154140000000  0.4722100000000 1.0
C      1  0.5094220000000  0.5467340000000  0.6130110000000 1.0
END
