TITL C-599895-9959-118 2.24102101513458 125000 -281.09021616581 0 0 48 (C1) n - 1
REM
REM in /home/nfs/bkarasulu/CARBON/AIRSS/Generating-Clusters/TERSOFF/Only-C1/FIRE-HFTN
REM
REM
REM
REM
REM
REM ./C.cell (11c1c37f851c82e70ff6c80c92926a4b)
REM AIRSS Version 0.9.1 bugfix July 2018 build 013d7b7c2542+ Fri, 06 Jul 2018 19:26:36 +0100
REM compiler GCC version 9.2.1 20190827 (Red Hat 9.2.1-1)
REM options -cpp -mtune=generic -march=x86-64 -g -O0 -fpre-include=/usr/include/finclude/math-vector-fortran.h
REM seed 661568537 -125511886 1838832064 -1261394096 1743538808 -1055361575 -987255723 -231830922 2043874433 1066546328 386268421 1292150749 1145470287 -1855228193 -2041566339 1701550099 -1734524571 1891032715 1832636713 100474204 -1875383772 -1371294449 -415494467 807898647 321353032 -947741412 1795530954 -1969403740 -529926638 533745650 1680309212 471760510 400243581
REM
CELL 1.54180   50.00000   50.00000   50.00000   90.00000   90.00000   90.00000
LATT -1
SFAC C  
C      1  0.4628780000000  0.5526930000000  0.4558900000000 1.0
C      1  0.4508080000000  0.5609900000000  0.5647150000000 1.0
C      1  0.3803370000000  0.6356180000000  0.5402160000000 1.0
C      1  0.5780440000000  0.4236910000000  0.5157300000000 1.0
C      1  0.3663150000000  0.5882400000000  0.4844010000000 1.0
C      1  0.3923230000000  0.6370260000000  0.5640380000000 1.0
C      1  0.5109500000000  0.5097710000000  0.5608770000000 1.0
C      1  0.4191360000000  0.5793420000000  0.5327650000000 1.0
C      1  0.4101520000000  0.6229320000000  0.5781120000000 1.0
C      1  0.5458950000000  0.4994060000000  0.3977060000000 1.0
C      1  0.4249830000000  0.6009050000000  0.5753930000000 1.0
C      1  0.5437690000000  0.4897520000000  0.4481540000000 1.0
C      1  0.3496820000000  0.5783930000000  0.4662820000000 1.0
C      1  0.5530420000000  0.4807500000000  0.5470720000000 1.0
C      1  0.6247830000000  0.3914010000000  0.5590250000000 1.0
C      1  0.5239910000000  0.2735040000000  0.4424000000000 1.0
C      1  0.5564160000000  0.4750690000000  0.4681370000000 1.0
C      1  0.5342080000000  0.2937510000000  0.4552580000000 1.0
C      1  0.4317230000000  0.5801020000000  0.5578300000000 1.0
C      1  0.5658150000000  0.4625360000000  0.4894830000000 1.0
C      1  0.5757510000000  0.3760630000000  0.5075410000000 1.0
C      1  0.6239460000000  0.4689630000000  0.5614290000000 1.0
C      1  0.5009010000000  0.5238630000000  0.4490180000000 1.0
C      1  0.4702540000000  0.5431070000000  0.5667000000000 1.0
C      1  0.6063720000000  0.3935500000000  0.5407050000000 1.0
C      1  0.5068610000000  0.5302320000000  0.3993260000000 1.0
C      1  0.4247920000000  0.5769620000000  0.4849260000000 1.0
C      1  0.3784290000000  0.6208490000000  0.5181440000000 1.0
C      1  0.6473520000000  0.4670900000000  0.5727540000000 1.0
C      1  0.4095080000000  0.5847250000000  0.5070140000000 1.0
C      1  0.5271600000000  0.5163670000000  0.3888410000000 1.0
C      1  0.4903870000000  0.5259430000000  0.5651280000000 1.0
C      1  0.5524320000000  0.4888500000000  0.4214220000000 1.0
C      1  0.4423620000000  0.5663600000000  0.4681860000000 1.0
C      1  0.5730300000000  0.4510860000000  0.5139010000000 1.0
C      1  0.5754220000000  0.4673820000000  0.5370630000000 1.0
C      1  0.5445960000000  0.3143360000000  0.4683320000000 1.0
C      1  0.4820560000000  0.5346520000000  0.4680790000000 1.0
C      1  0.3846320000000  0.5980930000000  0.5030340000000 1.0
C      1  0.5653670000000  0.3554960000000  0.4944730000000 1.0
C      1  0.6001720000000  0.4698280000000  0.5497690000000 1.0
C      1  0.3334320000000  0.5686330000000  0.4483850000000 1.0
C      1  0.4707940000000  0.5526040000000  0.4280070000000 1.0
C      1  0.4935110000000  0.5355730000000  0.4230660000000 1.0
C      1  0.5867060000000  0.3977470000000  0.5213080000000 1.0
C      1  0.5549820000000  0.3349160000000  0.4814030000000 1.0
C      1  0.5318510000000  0.4946940000000  0.5546990000000 1.0
C      1  0.5216850000000  0.5061650000000  0.4538640000000 1.0
END
