TITL C-599892-9790-1299 1.12996602574164 125000 -192.46947496999 0 0 34 (C1) n - 1
REM
REM in /home/nfs/bkarasulu/CARBON/AIRSS/Generating-Clusters/TERSOFF/Only-C1/FIRE-HFTN
REM
REM
REM
REM
REM
REM ./C.cell (11c1c37f851c82e70ff6c80c92926a4b)
REM AIRSS Version 0.9.1 bugfix July 2018 build 013d7b7c2542+ Fri, 06 Jul 2018 19:26:36 +0100
REM compiler GCC version 9.2.1 20190827 (Red Hat 9.2.1-1)
REM options -cpp -mtune=generic -march=x86-64 -g -O0 -fpre-include=/usr/include/finclude/math-vector-fortran.h
REM seed -12969374 -1941378507 1582262491 -1451085308 -1963435143 -728273088 -1402297679 245508691 -1801839095 342327437 1635076045 -1386418320 -811985292 1033621160 -644059045 198652428 -1127259043 320763513 -613846182 -1895872960 -1398189513 -333816301 -1133025856 1789889332 -1912266085 119811475 898399915 -984776343 1436324315 -1134897469 847324505 -1682053456 -2007504904
REM
CELL 1.54180   50.00000   50.00000   50.00000   90.00000   90.00000   90.00000
LATT -1
SFAC C  
C      1  0.4416530000000  0.5184100000000  0.5019750000000 1.0
C      1  0.4545130000000  0.5024640000000  0.5468810000000 1.0
C      1  0.5593450000000  0.5744840000000  0.4672260000000 1.0
C      1  0.5138520000000  0.5026470000000  0.4608690000000 1.0
C      1  0.4771590000000  0.4600180000000  0.5385910000000 1.0
C      1  0.4867980000000  0.5021240000000  0.4539600000000 1.0
C      1  0.5162480000000  0.4897420000000  0.5773990000000 1.0
C      1  0.4530230000000  0.5233450000000  0.5274440000000 1.0
C      1  0.5394250000000  0.4965160000000  0.5021720000000 1.0
C      1  0.4742700000000  0.4780640000000  0.4449430000000 1.0
C      1  0.4286200000000  0.4940840000000  0.4961140000000 1.0
C      1  0.5034050000000  0.4979700000000  0.5546750000000 1.0
C      1  0.5590850000000  0.5206140000000  0.4641110000000 1.0
C      1  0.4341920000000  0.4744510000000  0.4786670000000 1.0
C      1  0.5596580000000  0.5485190000000  0.4650230000000 1.0
C      1  0.4758720000000  0.4365390000000  0.5263900000000 1.0
C      1  0.4721870000000  0.5438810000000  0.5302840000000 1.0
C      1  0.4744030000000  0.4143100000000  0.5128510000000 1.0
C      1  0.5422400000000  0.4696030000000  0.5064330000000 1.0
C      1  0.5992590000000  0.4921530000000  0.4409710000000 1.0
C      1  0.4529230000000  0.5314600000000  0.4795810000000 1.0
C      1  0.5146320000000  0.5185060000000  0.5382450000000 1.0
C      1  0.4143100000000  0.4935500000000  0.5816660000000 1.0
C      1  0.5798460000000  0.5064320000000  0.4519750000000 1.0
C      1  0.4834060000000  0.4647120000000  0.4229320000000 1.0
C      1  0.4987140000000  0.5413120000000  0.5338630000000 1.0
C      1  0.4519690000000  0.4688780000000  0.4594790000000 1.0
C      1  0.5389510000000  0.5144990000000  0.5242620000000 1.0
C      1  0.6183220000000  0.4780120000000  0.4301880000000 1.0
C      1  0.5617610000000  0.5274380000000  0.5320990000000 1.0
C      1  0.4705880000000  0.5240710000000  0.4608430000000 1.0
C      1  0.4338420000000  0.4980540000000  0.5650150000000 1.0
C      1  0.5372520000000  0.5065760000000  0.4756440000000 1.0
C      1  0.4782790000000  0.4865610000000  0.5472290000000 1.0
END
