TITL C-599897-7526-1144 11358.8561751324 125000 -932.232561108694 0 0 153 (C1) n - 1
REM
REM in /home/nfs/bkarasulu/CARBON/AIRSS/Generating-Clusters/TERSOFF/Only-C1/FIRE-HFTN
REM
REM
REM
REM
REM
REM ./C.cell (11c1c37f851c82e70ff6c80c92926a4b)
REM AIRSS Version 0.9.1 bugfix July 2018 build 013d7b7c2542+ Fri, 06 Jul 2018 19:26:36 +0100
REM compiler GCC version 9.2.1 20190827 (Red Hat 9.2.1-1)
REM options -cpp -mtune=generic -march=x86-64 -g -O0 -fpre-include=/usr/include/finclude/math-vector-fortran.h
REM seed -280157384 -1784082725 -1933760345 177237432 -658092423 -1335647943 1176772370 -702220161 -524246809 1427789162 195228039 1156444957 -1418670942 -1096223450 -1348003099 995088470 -232238698 -2054102975 738477850 -2137440015 1712171485 1734735511 -1993757847 -1586904428 -1329682374 -72541343 435300739 738876325 -2143054254 212847173 1034451842 516049511 -1463650322
REM
CELL 1.54180   50.00000   50.00000   50.00000   90.00000   90.00000   90.00000
LATT -1
SFAC C  
C      1  0.5299800000000  0.5731790000000  0.4458690000000 1.0
C      1  0.5170900000000  0.5644800000000  0.4031560000000 1.0
C      1  0.5614960000000  0.4960460000000  0.5885890000000 1.0
C      1  0.5396870000000  0.4680690000000  0.4736660000000 1.0
C      1  0.3836040000000  0.4992300000000  0.5165820000000 1.0
C      1  0.4804590000000  0.4949180000000  0.6062180000000 1.0
C      1  0.5659530000000  0.4474330000000  0.5734960000000 1.0
C      1  0.4175250000000  0.5259830000000  0.4594670000000 1.0
C      1  0.4380860000000  0.4476600000000  0.4728160000000 1.0
C      1  0.4005350000000  0.4987710000000  0.5386210000000 1.0
C      1  0.4871280000000  0.4919060000000  0.4204800000000 1.0
C      1  0.5230760000000  0.5595360000000  0.4695600000000 1.0
C      1  0.4969640000000  0.5503360000000  0.3886590000000 1.0
C      1  0.5488930000000  0.4721780000000  0.5000390000000 1.0
C      1  0.4317800000000  0.5424980000000  0.4798400000000 1.0
C      1  0.4280240000000  0.4213780000000  0.4371910000000 1.0
C      1  0.4915670000000  0.4998610000000  0.5802940000000 1.0
C      1  0.4081200000000  0.5234970000000  0.5534710000000 1.0
C      1  0.4806750000000  0.5508110000000  0.4915690000000 1.0
C      1  0.5548020000000  0.5204630000000  0.4776560000000 1.0
C      1  0.5234810000000  0.4268340000000  0.5160030000000 1.0
C      1  0.3650370000000  0.5041650000000  0.4989640000000 1.0
C      1  0.4549270000000  0.5401840000000  0.4973890000000 1.0
C      1  0.4989630000000  0.5942990000000  0.4939560000000 1.0
C      1  0.4034520000000  0.4693420000000  0.4543190000000 1.0
C      1  0.4176780000000  0.4836010000000  0.5787280000000 1.0
C      1  0.5537940000000  0.4674460000000  0.5912150000000 1.0
C      1  0.4280490000000  0.4143950000000  0.5040550000000 1.0
C      1  0.4813780000000  0.5812860000000  0.4377370000000 1.0
C      1  0.5430070000000  0.4981320000000  0.4040520000000 1.0
C      1  0.5130190000000  0.4629450000000  0.6198890000000 1.0
C      1  0.4115180000000  0.5499650000000  0.5430960000000 1.0
C      1  0.4598750000000  0.4972430000000  0.4230080000000 1.0
C      1  0.5751030000000  0.5384890000000  0.4863070000000 1.0
C      1  0.4366380000000  0.5200460000000  0.5996520000000 1.0
C      1  0.5007890000000  0.4152570000000  0.5764850000000 1.0
C      1  0.5420330000000  0.4756320000000  0.3873670000000 1.0
C      1  0.5006290000000  0.4042800000000  0.4672740000000 1.0
C      1  0.5079460000000  0.5242900000000  0.3800680000000 1.0
C      1  0.5572510000000  0.5700380000000  0.4378470000000 1.0
C      1  0.4912640000000  0.5707930000000  0.5772130000000 1.0
C      1  0.5473770000000  0.5121640000000  0.5414280000000 1.0
C      1  0.5181740000000  0.5626460000000  0.5831480000000 1.0
C      1  0.4650290000000  0.4382860000000  0.4683080000000 1.0
C      1  0.5919510000000  0.4851390000000  0.5209680000000 1.0
C      1  0.4700000000000  0.6101700000000  0.6071380000000 1.0
C      1  0.5001500000000  0.5414180000000  0.4723030000000 1.0
C      1  0.5118840000000  0.5167110000000  0.5098470000000 1.0
C      1  0.5379380000000  0.5593300000000  0.5350110000000 1.0
C      1  0.4958180000000  0.4837850000000  0.6271720000000 1.0
C      1  0.4636230000000  0.5105440000000  0.3711420000000 1.0
C      1  0.5287490000000  0.4550440000000  0.4238560000000 1.0
C      1  0.5465490000000  0.5211210000000  0.5962100000000 1.0
C      1  0.4760290000000  0.5947060000000  0.4696500000000 1.0
C      1  0.5457650000000  0.4282070000000  0.5628910000000 1.0
C      1  0.4799180000000  0.4327470000000  0.4216440000000 1.0
C      1  0.5662410000000  0.5655820000000  0.5916180000000 1.0
C      1  0.5125940000000  0.4517000000000  0.5263430000000 1.0
C      1  0.4639310000000  0.3831720000000  0.5160260000000 1.0
C      1  0.4469360000000  0.5893990000000  0.4886060000000 1.0
C      1  0.3925180000000  0.4530130000000  0.4776040000000 1.0
C      1  0.4543150000000  0.5295760000000  0.5234710000000 1.0
C      1  0.5173280000000  0.4524750000000  0.4726140000000 1.0
C      1  0.4876710000000  0.5725470000000  0.5086950000000 1.0
C      1  0.5346220000000  0.5877980000000  0.5320640000000 1.0
C      1  0.5357170000000  0.4879370000000  0.4409890000000 1.0
C      1  0.4508200000000  0.4021220000000  0.4416370000000 1.0
C      1  0.4356680000000  0.4739400000000  0.5989380000000 1.0
C      1  0.6012950000000  0.5301570000000  0.4945280000000 1.0
C      1  0.4369840000000  0.4325610000000  0.5265650000000 1.0
C      1  0.5630180000000  0.5473820000000  0.4215650000000 1.0
C      1  0.5369530000000  0.4307790000000  0.4347810000000 1.0
C      1  0.5292170000000  0.4736710000000  0.5220970000000 1.0
C      1  0.4450150000000  0.4658370000000  0.4955020000000 1.0
C      1  0.5486550000000  0.4250840000000  0.5328340000000 1.0
C      1  0.6147850000000  0.5768320000000  0.4955080000000 1.0
C      1  0.5338910000000  0.5217510000000  0.3925490000000 1.0
C      1  0.5234440000000  0.4309460000000  0.5811530000000 1.0
C      1  0.4656060000000  0.3954120000000  0.4672640000000 1.0
C      1  0.4614380000000  0.5673380000000  0.4200740000000 1.0
C      1  0.5424190000000  0.5803090000000  0.5814410000000 1.0
C      1  0.4173400000000  0.5137930000000  0.5791540000000 1.0
C      1  0.4228440000000  0.5721060000000  0.5316870000000 1.0
C      1  0.4453500000000  0.5857020000000  0.5190210000000 1.0
C      1  0.4689610000000  0.4079270000000  0.4199930000000 1.0
C      1  0.5051740000000  0.4929390000000  0.4446690000000 1.0
C      1  0.4535800000000  0.5339780000000  0.3814250000000 1.0
C      1  0.4609920000000  0.4904670000000  0.5459430000000 1.0
C      1  0.4345290000000  0.5622010000000  0.4271960000000 1.0
C      1  0.5666180000000  0.4275600000000  0.4352930000000 1.0
C      1  0.5091090000000  0.5775910000000  0.4276180000000 1.0
C      1  0.4905070000000  0.5018850000000  0.3762310000000 1.0
C      1  0.4756180000000  0.3865780000000  0.5398950000000 1.0
C      1  0.4284540000000  0.5713450000000  0.4763320000000 1.0
C      1  0.4545460000000  0.4911740000000  0.4965250000000 1.0
C      1  0.4679340000000  0.5358810000000  0.5491740000000 1.0
C      1  0.4712180000000  0.5787900000000  0.5308890000000 1.0
C      1  0.4695890000000  0.5531040000000  0.3956570000000 1.0
C      1  0.5734670000000  0.4418580000000  0.5275410000000 1.0
C      1  0.4792500000000  0.4473200000000  0.4458260000000 1.0
C      1  0.4959860000000  0.4805790000000  0.3955830000000 1.0
C      1  0.5139180000000  0.4888030000000  0.5670000000000 1.0
C      1  0.4244700000000  0.4493690000000  0.4457090000000 1.0
C      1  0.4593320000000  0.4463980000000  0.5137580000000 1.0
C      1  0.5676270000000  0.5662090000000  0.4898450000000 1.0
C      1  0.4195950000000  0.4491770000000  0.5422700000000 1.0
C      1  0.4983840000000  0.4646530000000  0.4556370000000 1.0
C      1  0.5461440000000  0.3878660000000  0.4500880000000 1.0
C      1  0.5335090000000  0.5166740000000  0.4952430000000 1.0
C      1  0.5701480000000  0.4002400000000  0.4437950000000 1.0
C      1  0.4717760000000  0.5022360000000  0.4774680000000 1.0
C      1  0.4521820000000  0.5015540000000  0.5219530000000 1.0
C      1  0.5268400000000  0.5933470000000  0.5042190000000 1.0
C      1  0.4135940000000  0.4333770000000  0.4867430000000 1.0
C      1  0.5290450000000  0.4533420000000  0.5993680000000 1.0
C      1  0.6210880000000  0.5504220000000  0.4954350000000 1.0
C      1  0.4144900000000  0.4972040000000  0.4506850000000 1.0
C      1  0.5838920000000  0.4493140000000  0.4300560000000 1.0
C      1  0.4166390000000  0.5443460000000  0.4367340000000 1.0
C      1  0.4942990000000  0.5139200000000  0.4636660000000 1.0
C      1  0.5874790000000  0.5548580000000  0.5751120000000 1.0
C      1  0.5905320000000  0.5017240000000  0.4237270000000 1.0
C      1  0.4943290000000  0.4930750000000  0.6527690000000 1.0
C      1  0.5412380000000  0.5980000000000  0.5583240000000 1.0
C      1  0.4520960000000  0.4966180000000  0.6077430000000 1.0
C      1  0.5745850000000  0.4648010000000  0.5094300000000 1.0
C      1  0.4103700000000  0.4742560000000  0.5523340000000 1.0
C      1  0.5387310000000  0.5365050000000  0.5503950000000 1.0
C      1  0.5187670000000  0.4624030000000  0.3978810000000 1.0
C      1  0.5848560000000  0.5015080000000  0.5702270000000 1.0
C      1  0.5938430000000  0.5288550000000  0.5694280000000 1.0
C      1  0.5596190000000  0.5432900000000  0.6099590000000 1.0
C      1  0.4373150000000  0.4485480000000  0.6084130000000 1.0
C      1  0.5718290000000  0.5216700000000  0.4319370000000 1.0
C      1  0.5888690000000  0.5845930000000  0.4933020000000 1.0
C      1  0.4343810000000  0.4955090000000  0.4296210000000 1.0
C      1  0.5290010000000  0.5362680000000  0.5772170000000 1.0
C      1  0.5402750000000  0.5727100000000  0.4887910000000 1.0
C      1  0.5312780000000  0.4898760000000  0.5445740000000 1.0
C      1  0.5922650000000  0.4746020000000  0.4253380000000 1.0
C      1  0.4792130000000  0.5894000000000  0.5943770000000 1.0
C      1  0.4782820000000  0.4350430000000  0.4948560000000 1.0
C      1  0.4762550000000  0.5625280000000  0.5539690000000 1.0
C      1  0.5841270000000  0.4539040000000  0.5530940000000 1.0
C      1  0.6041910000000  0.5053160000000  0.5065920000000 1.0
C      1  0.5533520000000  0.5103210000000  0.4511620000000 1.0
C      1  0.4500340000000  0.3954690000000  0.4940070000000 1.0
C      1  0.4733540000000  0.5106700000000  0.5621240000000 1.0
C      1  0.5232480000000  0.4060910000000  0.4480000000000 1.0
C      1  0.5416040000000  0.5472700000000  0.4023630000000 1.0
C      1  0.5919890000000  0.4818600000000  0.5500170000000 1.0
C      1  0.4861130000000  0.3990240000000  0.5611020000000 1.0
C      1  0.5072220000000  0.4259670000000  0.4894490000000 1.0
END
