TITL C-599890-3321-329 3.11432780051219e-05 125000 -347.502592209013 0 0 57 (C1) n - 1
REM
REM in /home/nfs/bkarasulu/CARBON/AIRSS/Generating-Clusters/TERSOFF/Only-C1/FIRE-HFTN
REM
REM
REM
REM
REM
REM ./C.cell (11c1c37f851c82e70ff6c80c92926a4b)
REM AIRSS Version 0.9.1 bugfix July 2018 build 013d7b7c2542+ Fri, 06 Jul 2018 19:26:36 +0100
REM compiler GCC version 9.2.1 20190827 (Red Hat 9.2.1-1)
REM options -cpp -mtune=generic -march=x86-64 -g -O0 -fpre-include=/usr/include/finclude/math-vector-fortran.h
REM seed -1623449208 1200689986 2121274063 -1684006715 -223808954 1800246759 1313913160 -654917819 345396541 46563564 -2088625568 466156248 1694193297 711266576 -1812142129 -1405695394 1460270103 -667487462 -1257695939 -1891160338 -1468259452 -172623613 -2104621987 -2008154232 1368054999 105024765 -584897165 1992369602 -1007556514 1260694669 -2062983361 661576981 17773387
REM
CELL 1.54180   50.00000   50.00000   50.00000   90.00000   90.00000   90.00000
LATT -1
SFAC C  
C      1  0.5271350000000  0.4981800000000  0.5920940000000 1.0
C      1  0.4952330000000  0.4949300000000  0.5558840000000 1.0
C      1  0.5384610000000  0.5843480000000  0.4778590000000 1.0
C      1  0.5289270000000  0.5304340000000  0.4880300000000 1.0
C      1  0.4834650000000  0.5206030000000  0.4832090000000 1.0
C      1  0.4673150000000  0.4713250000000  0.4660200000000 1.0
C      1  0.4478850000000  0.5724560000000  0.5191340000000 1.0
C      1  0.5511580000000  0.4713930000000  0.5336950000000 1.0
C      1  0.4387290000000  0.5165630000000  0.4683240000000 1.0
C      1  0.5513150000000  0.5179990000000  0.4474950000000 1.0
C      1  0.4180650000000  0.5239580000000  0.5145000000000 1.0
C      1  0.4440100000000  0.4629470000000  0.5176230000000 1.0
C      1  0.4672040000000  0.5444350000000  0.4332220000000 1.0
C      1  0.4506350000000  0.5040440000000  0.5449780000000 1.0
C      1  0.5333640000000  0.5761910000000  0.5034460000000 1.0
C      1  0.4949020000000  0.5491610000000  0.5184470000000 1.0
C      1  0.5355310000000  0.4248940000000  0.4561780000000 1.0
C      1  0.4285580000000  0.5214980000000  0.5410840000000 1.0
C      1  0.4667400000000  0.4458740000000  0.4798380000000 1.0
C      1  0.4313520000000  0.4788010000000  0.4975530000000 1.0
C      1  0.4550410000000  0.5609660000000  0.5446830000000 1.0
C      1  0.4575510000000  0.4413520000000  0.5050490000000 1.0
C      1  0.5142720000000  0.5673160000000  0.4381200000000 1.0
C      1  0.4919390000000  0.4750270000000  0.4514560000000 1.0
C      1  0.5497310000000  0.4454210000000  0.4693880000000 1.0
C      1  0.5219650000000  0.4962210000000  0.5646530000000 1.0
C      1  0.4507760000000  0.5544190000000  0.4971490000000 1.0
C      1  0.5318410000000  0.4998550000000  0.6176700000000 1.0
C      1  0.5440510000000  0.4952580000000  0.5465980000000 1.0
C      1  0.5408380000000  0.4915500000000  0.4502950000000 1.0
C      1  0.5593220000000  0.5176970000000  0.5428240000000 1.0
C      1  0.4548410000000  0.4759610000000  0.5401660000000 1.0
C      1  0.4801700000000  0.5447880000000  0.5430860000000 1.0
C      1  0.5092150000000  0.5107960000000  0.4805740000000 1.0
C      1  0.5584460000000  0.4702100000000  0.4554960000000 1.0
C      1  0.4900080000000  0.5583020000000  0.4311610000000 1.0
C      1  0.4314500000000  0.5336560000000  0.4911000000000 1.0
C      1  0.4992090000000  0.4537360000000  0.4343200000000 1.0
C      1  0.5338800000000  0.4271150000000  0.5301780000000 1.0
C      1  0.5219240000000  0.5505490000000  0.5087240000000 1.0
C      1  0.5108380000000  0.4273930000000  0.5437390000000 1.0
C      1  0.4485050000000  0.5292720000000  0.4450150000000 1.0
C      1  0.5511990000000  0.4467090000000  0.5200760000000 1.0
C      1  0.4812170000000  0.4698920000000  0.5506930000000 1.0
C      1  0.5853600000000  0.4740210000000  0.4659380000000 1.0
C      1  0.5887130000000  0.4591410000000  0.4890860000000 1.0
C      1  0.4770020000000  0.5170560000000  0.5509690000000 1.0
C      1  0.5138120000000  0.4912280000000  0.4606100000000 1.0
C      1  0.5157940000000  0.4329740000000  0.4378290000000 1.0
C      1  0.4328480000000  0.5461330000000  0.5551800000000 1.0
C      1  0.4449480000000  0.4889660000000  0.4742140000000 1.0
C      1  0.5641820000000  0.4447090000000  0.4952240000000 1.0
C      1  0.5406700000000  0.3985070000000  0.4608830000000 1.0
C      1  0.5434360000000  0.5393030000000  0.4643320000000 1.0
C      1  0.4770680000000  0.5442330000000  0.4962330000000 1.0
C      1  0.4922290000000  0.4444470000000  0.5522940000000 1.0
C      1  0.5357230000000  0.5657840000000  0.4563870000000 1.0
END
