TITL C-599892-9790-683 0.00134233846643942 125000 -346.370632711679 0 0 58 (C1) n - 1
REM
REM in /home/nfs/bkarasulu/CARBON/AIRSS/Generating-Clusters/TERSOFF/Only-C1/FIRE-HFTN
REM
REM
REM
REM
REM
REM ./C.cell (11c1c37f851c82e70ff6c80c92926a4b)
REM AIRSS Version 0.9.1 bugfix July 2018 build 013d7b7c2542+ Fri, 06 Jul 2018 19:26:36 +0100
REM compiler GCC version 9.2.1 20190827 (Red Hat 9.2.1-1)
REM options -cpp -mtune=generic -march=x86-64 -g -O0 -fpre-include=/usr/include/finclude/math-vector-fortran.h
REM seed 2124823562 -309761210 1415946301 -695618111 659727165 -125820086 -102587501 391585067 1847861473 -447681418 -150757420 -283360267 -705901260 988576317 -1205841162 1762685074 254217473 486810539 -1540481245 702612073 324051676 -1526908205 1226314927 -233284256 -1860288633 -1352914476 1062986609 -46283565 -1039037851 -1376465327 -288276845 -984390386 1871528331
REM
CELL 1.54180   50.00000   50.00000   50.00000   90.00000   90.00000   90.00000
LATT -1
SFAC C  
C      1  0.4630900000000  0.4764620000000  0.5434480000000 1.0
C      1  0.4841580000000  0.4396380000000  0.5632450000000 1.0
C      1  0.4218160000000  0.5784130000000  0.5231430000000 1.0
C      1  0.4901640000000  0.4894260000000  0.4655770000000 1.0
C      1  0.4816910000000  0.4968720000000  0.4919870000000 1.0
C      1  0.5038940000000  0.4950830000000  0.5611220000000 1.0
C      1  0.4413260000000  0.4888550000000  0.4526590000000 1.0
C      1  0.4983160000000  0.4871100000000  0.5120500000000 1.0
C      1  0.5228670000000  0.4784080000000  0.5013480000000 1.0
C      1  0.5742930000000  0.5950890000000  0.4794850000000 1.0
C      1  0.4948280000000  0.4072730000000  0.4725380000000 1.0
C      1  0.5706470000000  0.5201830000000  0.5249840000000 1.0
C      1  0.5222570000000  0.4103480000000  0.4814160000000 1.0
C      1  0.5486340000000  0.4528020000000  0.5528630000000 1.0
C      1  0.5224080000000  0.5349370000000  0.4688250000000 1.0
C      1  0.4451090000000  0.5334740000000  0.5076810000000 1.0
C      1  0.5401550000000  0.5259910000000  0.4889750000000 1.0
C      1  0.4323410000000  0.5552220000000  0.5158030000000 1.0
C      1  0.4882410000000  0.4889020000000  0.5384070000000 1.0
C      1  0.5566570000000  0.5401980000000  0.5087530000000 1.0
C      1  0.4609060000000  0.5143740000000  0.4983120000000 1.0
C      1  0.4961860000000  0.5985240000000  0.5337710000000 1.0
C      1  0.5300880000000  0.4304220000000  0.5505810000000 1.0
C      1  0.4680610000000  0.4485440000000  0.4732130000000 1.0
C      1  0.5564600000000  0.4644850000000  0.5276620000000 1.0
C      1  0.5132360000000  0.4672480000000  0.4150860000000 1.0
C      1  0.5422810000000  0.4985650000000  0.4970860000000 1.0
C      1  0.5259200000000  0.5929180000000  0.4808590000000 1.0
C      1  0.4443970000000  0.4646580000000  0.4662520000000 1.0
C      1  0.5373400000000  0.4542520000000  0.5071150000000 1.0
C      1  0.4791380000000  0.4267900000000  0.4895380000000 1.0
C      1  0.5243970000000  0.4300300000000  0.5019830000000 1.0
C      1  0.4985030000000  0.5350350000000  0.4534340000000 1.0
C      1  0.5407700000000  0.5767010000000  0.5372600000000 1.0
C      1  0.5275200000000  0.4821340000000  0.3991620000000 1.0
C      1  0.4973560000000  0.4539980000000  0.5844360000000 1.0
C      1  0.5512940000000  0.5855350000000  0.4907190000000 1.0
C      1  0.5017830000000  0.4291790000000  0.5432070000000 1.0
C      1  0.4923960000000  0.4248920000000  0.4275160000000 1.0
C      1  0.4353290000000  0.4383160000000  0.5569970000000 1.0
C      1  0.5149230000000  0.4761230000000  0.5792260000000 1.0
C      1  0.5623560000000  0.4929600000000  0.5192060000000 1.0
C      1  0.4851160000000  0.5099010000000  0.4473780000000 1.0
C      1  0.4983150000000  0.4519750000000  0.4329540000000 1.0
C      1  0.4889720000000  0.4624060000000  0.4577640000000 1.0
C      1  0.4969990000000  0.4291220000000  0.5145560000000 1.0
C      1  0.4977820000000  0.5931860000000  0.4832270000000 1.0
C      1  0.4773340000000  0.5552370000000  0.4523720000000 1.0
C      1  0.4819060000000  0.5800180000000  0.4642160000000 1.0
C      1  0.5521370000000  0.5676430000000  0.5131330000000 1.0
C      1  0.4125850000000  0.6017640000000  0.5301550000000 1.0
C      1  0.4875950000000  0.6006640000000  0.5084160000000 1.0
C      1  0.5422510000000  0.4695560000000  0.5748730000000 1.0
C      1  0.4527280000000  0.5414630000000  0.4449400000000 1.0
C      1  0.4593500000000  0.4508060000000  0.5547080000000 1.0
C      1  0.4894440000000  0.4046820000000  0.4451280000000 1.0
C      1  0.5182380000000  0.5886890000000  0.5455020000000 1.0
C      1  0.4557170000000  0.5125180000000  0.4437500000000 1.0
END
