TITL C-599894-471-468 -21316.2113374671 125000 -919.131034887722 0 0 148 (C1) n - 1
REM
REM in /home/nfs/bkarasulu/CARBON/AIRSS/Generating-Clusters/TERSOFF/Only-C1/FIRE-HFTN
REM
REM
REM
REM
REM
REM ./C.cell (11c1c37f851c82e70ff6c80c92926a4b)
REM AIRSS Version 0.9.1 bugfix July 2018 build 013d7b7c2542+ Fri, 06 Jul 2018 19:26:36 +0100
REM compiler GCC version 9.2.1 20190827 (Red Hat 9.2.1-1)
REM options -cpp -mtune=generic -march=x86-64 -g -O0 -fpre-include=/usr/include/finclude/math-vector-fortran.h
REM seed -1718980299 2059006881 -330706504 194091303 630627560 1385503045 50911980 -1180681312 -1750744672 -2129634141 1774195439 -207583677 1925568673 -2023170804 1598732093 -1736787106 980772475 -1547066755 -1156218880 -2132962762 -2010317925 -1893888406 -1917950952 732625695 754690520 2121821970 -1043601586 1799535637 -666333395 684583000 -76568762 -765683571 -1889823466
REM
CELL 1.54180   50.00000   50.00000   50.00000   90.00000   90.00000   90.00000
LATT -1
SFAC C  
C      1  0.5234590000000  0.4750210000000  0.3965280000000 1.0
C      1  0.4180590000000  0.5748720000000  0.5264500000000 1.0
C      1  0.4808010000000  0.4951820000000  0.4610670000000 1.0
C      1  0.4792970000000  0.4371200000000  0.5277700000000 1.0
C      1  0.5150990000000  0.4668020000000  0.4636590000000 1.0
C      1  0.5112130000000  0.5552550000000  0.4848600000000 1.0
C      1  0.3367890000000  0.3597440000000  0.5270930000000 1.0
C      1  0.5524040000000  0.4955840000000  0.5039890000000 1.0
C      1  0.4825880000000  0.5046400000000  0.4887980000000 1.0
C      1  0.5416370000000  0.5854400000000  0.5646870000000 1.0
C      1  0.4825670000000  0.4894690000000  0.3700550000000 1.0
C      1  0.5533990000000  0.4502140000000  0.4336760000000 1.0
C      1  0.4644190000000  0.5334030000000  0.5531920000000 1.0
C      1  0.5238150000000  0.5122730000000  0.4492620000000 1.0
C      1  0.5146960000000  0.6130370000000  0.5417750000000 1.0
C      1  0.4840710000000  0.5473780000000  0.4747660000000 1.0
C      1  0.5322690000000  0.4895780000000  0.4643100000000 1.0
C      1  0.5570110000000  0.4909680000000  0.4771500000000 1.0
C      1  0.5660330000000  0.5277150000000  0.4273710000000 1.0
C      1  0.4706430000000  0.4071410000000  0.4635750000000 1.0
C      1  0.4083210000000  0.5701710000000  0.5004160000000 1.0
C      1  0.5833630000000  0.4523280000000  0.5724280000000 1.0
C      1  0.4162710000000  0.5001710000000  0.5442760000000 1.0
C      1  0.4451530000000  0.5032020000000  0.4344350000000 1.0
C      1  0.4812590000000  0.5725090000000  0.5296280000000 1.0
C      1  0.5244940000000  0.3854880000000  0.4671390000000 1.0
C      1  0.5118990000000  0.5755360000000  0.4410460000000 1.0
C      1  0.4921600000000  0.5415180000000  0.6427060000000 1.0
C      1  0.5304810000000  0.4587400000000  0.5223230000000 1.0
C      1  0.5373360000000  0.5182870000000  0.3760080000000 1.0
C      1  0.5385350000000  0.5018340000000  0.5609700000000 1.0
C      1  0.5389190000000  0.4502350000000  0.4076280000000 1.0
C      1  0.4616580000000  0.4833240000000  0.5393360000000 1.0
C      1  0.4758550000000  0.3902570000000  0.5800930000000 1.0
C      1  0.4767780000000  0.5297720000000  0.4025470000000 1.0
C      1  0.5152510000000  0.5974730000000  0.5674600000000 1.0
C      1  0.4181450000000  0.5512490000000  0.4822360000000 1.0
C      1  0.5752550000000  0.5541120000000  0.4171950000000 1.0
C      1  0.4690880000000  0.5765260000000  0.5735370000000 1.0
C      1  0.5189780000000  0.5378580000000  0.3788150000000 1.0
C      1  0.4549010000000  0.6001390000000  0.5016060000000 1.0
C      1  0.4505500000000  0.4331050000000  0.5221370000000 1.0
C      1  0.5971600000000  0.5348840000000  0.4715590000000 1.0
C      1  0.4128680000000  0.5531490000000  0.5441990000000 1.0
C      1  0.4896850000000  0.5933590000000  0.4400540000000 1.0
C      1  0.4679910000000  0.5059190000000  0.5554680000000 1.0
C      1  0.6049240000000  0.5760000000000  0.4974400000000 1.0
C      1  0.4716970000000  0.5111850000000  0.3816950000000 1.0
C      1  0.6004550000000  0.4955320000000  0.5345430000000 1.0
C      1  0.5824910000000  0.4482120000000  0.5238020000000 1.0
C      1  0.4053320000000  0.5306790000000  0.4372400000000 1.0
C      1  0.5925030000000  0.5633510000000  0.4754930000000 1.0
C      1  0.3798570000000  0.3702130000000  0.5414550000000 1.0
C      1  0.5750190000000  0.5764590000000  0.4328210000000 1.0
C      1  0.4810570000000  0.5884450000000  0.5064740000000 1.0
C      1  0.5175880000000  0.5530200000000  0.4241170000000 1.0
C      1  0.5020690000000  0.4218360000000  0.5155230000000 1.0
C      1  0.4595510000000  0.4517860000000  0.4517960000000 1.0
C      1  0.5064410000000  0.5280550000000  0.5270830000000 1.0
C      1  0.4522810000000  0.5108940000000  0.6073270000000 1.0
C      1  0.4579240000000  0.4812570000000  0.4501360000000 1.0
C      1  0.5010760000000  0.4720360000000  0.5643840000000 1.0
C      1  0.5487590000000  0.4326170000000  0.4864090000000 1.0
C      1  0.4992570000000  0.4588920000000  0.4843420000000 1.0
C      1  0.5343700000000  0.5496230000000  0.5974610000000 1.0
C      1  0.5267380000000  0.4354860000000  0.5067770000000 1.0
C      1  0.5557750000000  0.5365780000000  0.5869120000000 1.0
C      1  0.4841830000000  0.4411540000000  0.4382430000000 1.0
C      1  0.4675360000000  0.5293090000000  0.4904580000000 1.0
C      1  0.5273510000000  0.4854720000000  0.5131950000000 1.0
C      1  0.5077370000000  0.5600220000000  0.5998980000000 1.0
C      1  0.4717980000000  0.5452730000000  0.4482740000000 1.0
C      1  0.4098750000000  0.4786110000000  0.4806030000000 1.0
C      1  0.4653870000000  0.5354980000000  0.6020140000000 1.0
C      1  0.6113060000000  0.5183290000000  0.4910690000000 1.0
C      1  0.5982910000000  0.4470880000000  0.4808290000000 1.0
C      1  0.4068800000000  0.5489340000000  0.4567700000000 1.0
C      1  0.4532390000000  0.4295000000000  0.4713140000000 1.0
C      1  0.5024780000000  0.5439970000000  0.4011830000000 1.0
C      1  0.5473560000000  0.5815900000000  0.5369540000000 1.0
C      1  0.4272200000000  0.3757750000000  0.5664330000000 1.0
C      1  0.5835970000000  0.5197070000000  0.4514560000000 1.0
C      1  0.4305620000000  0.4471080000000  0.5689350000000 1.0
C      1  0.5443820000000  0.6055490000000  0.4954810000000 1.0
C      1  0.5041600000000  0.4735060000000  0.3738840000000 1.0
C      1  0.6042650000000  0.5674050000000  0.5229370000000 1.0
C      1  0.4934540000000  0.5003940000000  0.5665720000000 1.0
C      1  0.5755330000000  0.4376710000000  0.4966200000000 1.0
C      1  0.4524240000000  0.6074120000000  0.4744650000000 1.0
C      1  0.4966990000000  0.5813740000000  0.5825150000000 1.0
C      1  0.5768500000000  0.4920240000000  0.4574970000000 1.0
C      1  0.4401260000000  0.5352550000000  0.4906430000000 1.0
C      1  0.5050940000000  0.4813430000000  0.4202250000000 1.0
C      1  0.4053940000000  0.4862810000000  0.4553780000000 1.0
C      1  0.5691600000000  0.4766380000000  0.4336600000000 1.0
C      1  0.5303410000000  0.4737590000000  0.5650880000000 1.0
C      1  0.4992860000000  0.5027550000000  0.4390970000000 1.0
C      1  0.4326010000000  0.4484070000000  0.5404700000000 1.0
C      1  0.5690040000000  0.4463830000000  0.5486930000000 1.0
C      1  0.4245210000000  0.4786280000000  0.5028200000000 1.0
C      1  0.6017500000000  0.4702290000000  0.5208950000000 1.0
C      1  0.5635150000000  0.4988220000000  0.4134690000000 1.0
C      1  0.5481870000000  0.5873930000000  0.4737930000000 1.0
C      1  0.6051430000000  0.5193280000000  0.5191210000000 1.0
C      1  0.4145940000000  0.4138410000000  0.4958480000000 1.0
C      1  0.4928660000000  0.4151910000000  0.4470490000000 1.0
C      1  0.5876970000000  0.4994820000000  0.5607140000000 1.0
C      1  0.6127450000000  0.4687060000000  0.4935390000000 1.0
C      1  0.5936000000000  0.5425240000000  0.5301290000000 1.0
C      1  0.4398040000000  0.4261710000000  0.4962500000000 1.0
C      1  0.4108990000000  0.5264060000000  0.5475890000000 1.0
C      1  0.3749670000000  0.3837900000000  0.5155710000000 1.0
C      1  0.6221510000000  0.4931320000000  0.4831640000000 1.0
C      1  0.3479230000000  0.3764110000000  0.5078690000000 1.0
C      1  0.5424380000000  0.4554680000000  0.5477460000000 1.0
C      1  0.5022080000000  0.3940010000000  0.5104890000000 1.0
C      1  0.4350650000000  0.4635440000000  0.5899910000000 1.0
C      1  0.4681580000000  0.6039540000000  0.4525790000000 1.0
C      1  0.4168480000000  0.5050900000000  0.4377130000000 1.0
C      1  0.5634500000000  0.5187490000000  0.5625580000000 1.0
C      1  0.5667440000000  0.5386340000000  0.5390760000000 1.0
C      1  0.5210090000000  0.4097480000000  0.4523360000000 1.0
C      1  0.5904370000000  0.4777580000000  0.5788190000000 1.0
C      1  0.5726110000000  0.5783460000000  0.4611120000000 1.0
C      1  0.3553510000000  0.3556950000000  0.5473540000000 1.0
C      1  0.5241590000000  0.5467450000000  0.5107330000000 1.0
C      1  0.4330060000000  0.4777940000000  0.5313510000000 1.0
C      1  0.3929560000000  0.3999630000000  0.5022170000000 1.0
C      1  0.5141830000000  0.3792020000000  0.4913480000000 1.0
C      1  0.4824310000000  0.5448880000000  0.5339900000000 1.0
C      1  0.5362370000000  0.5330730000000  0.4350660000000 1.0
C      1  0.4518450000000  0.3822920000000  0.5737800000000 1.0
C      1  0.5354010000000  0.6037950000000  0.5221610000000 1.0
C      1  0.4424610000000  0.4862880000000  0.6024150000000 1.0
C      1  0.4823480000000  0.4614320000000  0.5437920000000 1.0
C      1  0.4616280000000  0.5859570000000  0.5475200000000 1.0
C      1  0.5442990000000  0.4964270000000  0.3924840000000 1.0
C      1  0.4885480000000  0.5453070000000  0.6158880000000 1.0
C      1  0.5245330000000  0.5732680000000  0.4668350000000 1.0
C      1  0.4621150000000  0.5274210000000  0.4275150000000 1.0
C      1  0.5428480000000  0.4303540000000  0.4565620000000 1.0
C      1  0.5146150000000  0.5163810000000  0.5544260000000 1.0
C      1  0.4608180000000  0.5489090000000  0.5771900000000 1.0
C      1  0.4030990000000  0.3714550000000  0.5563560000000 1.0
C      1  0.5039400000000  0.5027130000000  0.5091320000000 1.0
C      1  0.5470350000000  0.5552980000000  0.5266080000000 1.0
C      1  0.4406480000000  0.5928610000000  0.5276820000000 1.0
C      1  0.5048110000000  0.4594770000000  0.4379960000000 1.0
END
