TITL C-599895-9959-480 5.52997133698931e-05 125000 -551.658489823837 0 0 93 (C1) n - 1
REM
REM in /home/nfs/bkarasulu/CARBON/AIRSS/Generating-Clusters/TERSOFF/Only-C1/FIRE-HFTN
REM
REM
REM
REM
REM
REM ./C.cell (11c1c37f851c82e70ff6c80c92926a4b)
REM AIRSS Version 0.9.1 bugfix July 2018 build 013d7b7c2542+ Fri, 06 Jul 2018 19:26:36 +0100
REM compiler GCC version 9.2.1 20190827 (Red Hat 9.2.1-1)
REM options -cpp -mtune=generic -march=x86-64 -g -O0 -fpre-include=/usr/include/finclude/math-vector-fortran.h
REM seed 1516342095 -1414028290 -1584424102 -322909685 -1095658151 356646449 -1066870819 -467166316 -2139289370 630731426 -1237656252 1306586725 -1826824216 1778672670 686720696 1180722875 219112210 132306818 1489831467 180514750 -978317520 -1356115349 -1931945088 46242519 185768824 -1225973160 -796636393 1476065012 1891330910 -821753530 -914476843 -1533798767 1611219575
REM
CELL 1.54180   50.00000   50.00000   50.00000   90.00000   90.00000   90.00000
LATT -1
SFAC C  
C      1  0.5044750000000  0.4490460000000  0.4203010000000 1.0
C      1  0.5070100000000  0.5101230000000  0.5446700000000 1.0
C      1  0.4249310000000  0.4840420000000  0.4830360000000 1.0
C      1  0.5966520000000  0.5129960000000  0.5236310000000 1.0
C      1  0.5224950000000  0.5439740000000  0.4115740000000 1.0
C      1  0.4488870000000  0.5670370000000  0.4299990000000 1.0
C      1  0.5772020000000  0.5210880000000  0.5668080000000 1.0
C      1  0.6108090000000  0.5488920000000  0.4940100000000 1.0
C      1  0.5357870000000  0.5695240000000  0.5504880000000 1.0
C      1  0.5432180000000  0.5653000000000  0.5221850000000 1.0
C      1  0.4696520000000  0.4364990000000  0.5633080000000 1.0
C      1  0.5804790000000  0.4648970000000  0.5297140000000 1.0
C      1  0.4268350000000  0.5141300000000  0.5185040000000 1.0
C      1  0.4948160000000  0.5306270000000  0.4677800000000 1.0
C      1  0.5185420000000  0.4298520000000  0.4057970000000 1.0
C      1  0.4293530000000  0.5394180000000  0.4757210000000 1.0
C      1  0.5389990000000  0.4805900000000  0.4961030000000 1.0
C      1  0.5235100000000  0.5753030000000  0.5031790000000 1.0
C      1  0.5153550000000  0.4207470000000  0.5141540000000 1.0
C      1  0.5914180000000  0.5380330000000  0.5101010000000 1.0
C      1  0.5179600000000  0.5400230000000  0.5907010000000 1.0
C      1  0.3607840000000  0.5421910000000  0.4492400000000 1.0
C      1  0.5425370000000  0.4953630000000  0.5180520000000 1.0
C      1  0.4790600000000  0.5055290000000  0.5886490000000 1.0
C      1  0.4327470000000  0.4669720000000  0.4622050000000 1.0
C      1  0.4983890000000  0.5883100000000  0.5076610000000 1.0
C      1  0.4907070000000  0.4116060000000  0.5270850000000 1.0
C      1  0.4721050000000  0.5801420000000  0.5442310000000 1.0
C      1  0.4406840000000  0.5360790000000  0.5267370000000 1.0
C      1  0.4145350000000  0.5420650000000  0.4512650000000 1.0
C      1  0.4542950000000  0.4717440000000  0.3922680000000 1.0
C      1  0.5102090000000  0.4510070000000  0.4714150000000 1.0
C      1  0.5242710000000  0.4936350000000  0.6029310000000 1.0
C      1  0.4708040000000  0.4304010000000  0.4574270000000 1.0
C      1  0.3868320000000  0.5424500000000  0.4499940000000 1.0
C      1  0.4226160000000  0.4708900000000  0.5091170000000 1.0
C      1  0.4915130000000  0.4908720000000  0.5318960000000 1.0
C      1  0.5909280000000  0.4868160000000  0.5123800000000 1.0
C      1  0.5323010000000  0.4119650000000  0.3927650000000 1.0
C      1  0.4724090000000  0.4834310000000  0.4091050000000 1.0
C      1  0.4653440000000  0.4840780000000  0.5753390000000 1.0
C      1  0.5186570000000  0.5920350000000  0.5534530000000 1.0
C      1  0.4952920000000  0.5337840000000  0.5539580000000 1.0
C      1  0.4842630000000  0.4141010000000  0.5545540000000 1.0
C      1  0.4650010000000  0.5044410000000  0.4266490000000 1.0
C      1  0.4785610000000  0.4579450000000  0.5801470000000 1.0
C      1  0.5412920000000  0.4284800000000  0.5218080000000 1.0
C      1  0.4797730000000  0.5105210000000  0.4501370000000 1.0
C      1  0.5056040000000  0.5142820000000  0.5968990000000 1.0
C      1  0.4523640000000  0.5872660000000  0.5240050000000 1.0
C      1  0.4840010000000  0.4788880000000  0.5095650000000 1.0
C      1  0.5369710000000  0.4620660000000  0.4746160000000 1.0
C      1  0.5506020000000  0.5207000000000  0.4666760000000 1.0
C      1  0.4947590000000  0.4434980000000  0.4460690000000 1.0
C      1  0.5504730000000  0.5247400000000  0.5595540000000 1.0
C      1  0.4460080000000  0.4478570000000  0.5516290000000 1.0
C      1  0.5640830000000  0.4429870000000  0.5211220000000 1.0
C      1  0.4641230000000  0.5829140000000  0.4982970000000 1.0
C      1  0.4527010000000  0.5659770000000  0.4779330000000 1.0
C      1  0.4792990000000  0.4155570000000  0.4810760000000 1.0
C      1  0.5742700000000  0.5088390000000  0.4713840000000 1.0
C      1  0.4705110000000  0.4056010000000  0.5066460000000 1.0
C      1  0.5607810000000  0.4526480000000  0.4629870000000 1.0
C      1  0.4787510000000  0.5523150000000  0.5423790000000 1.0
C      1  0.4434070000000  0.5209090000000  0.4191810000000 1.0
C      1  0.4257570000000  0.5132340000000  0.4891890000000 1.0
C      1  0.5071420000000  0.4250370000000  0.4868890000000 1.0
C      1  0.5363720000000  0.5476570000000  0.5695470000000 1.0
C      1  0.4315420000000  0.5445720000000  0.4284620000000 1.0
C      1  0.5265200000000  0.5191510000000  0.4025600000000 1.0
C      1  0.4466440000000  0.4448810000000  0.4556410000000 1.0
C      1  0.5985950000000  0.5154980000000  0.5516090000000 1.0
C      1  0.5241930000000  0.5244040000000  0.4693020000000 1.0
C      1  0.5673050000000  0.5524900000000  0.5147210000000 1.0
C      1  0.4908540000000  0.4694760000000  0.4858430000000 1.0
C      1  0.4292550000000  0.4884280000000  0.5314620000000 1.0
C      1  0.4917410000000  0.5563640000000  0.4511060000000 1.0
C      1  0.4673550000000  0.5403950000000  0.5190890000000 1.0
C      1  0.4994770000000  0.4747630000000  0.4094750000000 1.0
C      1  0.4439690000000  0.4774750000000  0.5536720000000 1.0
C      1  0.5096290000000  0.5591200000000  0.4295080000000 1.0
C      1  0.5877720000000  0.4867470000000  0.4835940000000 1.0
C      1  0.5651710000000  0.4697690000000  0.5804400000000 1.0
C      1  0.4659820000000  0.5682860000000  0.4525350000000 1.0
C      1  0.4471710000000  0.3923490000000  0.5110560000000 1.0
C      1  0.5451490000000  0.4783730000000  0.5959830000000 1.0
C      1  0.5852500000000  0.4625470000000  0.4691330000000 1.0
C      1  0.4819920000000  0.5330280000000  0.4956340000000 1.0
C      1  0.4959380000000  0.5951790000000  0.5369030000000 1.0
C      1  0.4920830000000  0.3947960000000  0.5722940000000 1.0
C      1  0.5351400000000  0.5087800000000  0.5413790000000 1.0
C      1  0.5797830000000  0.4676950000000  0.5580480000000 1.0
C      1  0.5192170000000  0.4934680000000  0.4026770000000 1.0
END
