TITL C-599891-72-520 -1.23886458644127e-05 125000 -165.790173350838 0 0 28 (C1) n - 1
REM
REM in /home/nfs/bkarasulu/CARBON/AIRSS/Generating-Clusters/TERSOFF/Only-C1/FIRE-HFTN
REM
REM
REM
REM
REM
REM ./C.cell (11c1c37f851c82e70ff6c80c92926a4b)
REM AIRSS Version 0.9.1 bugfix July 2018 build 013d7b7c2542+ Fri, 06 Jul 2018 19:26:36 +0100
REM compiler GCC version 9.2.1 20190827 (Red Hat 9.2.1-1)
REM options -cpp -mtune=generic -march=x86-64 -g -O0 -fpre-include=/usr/include/finclude/math-vector-fortran.h
REM seed 468144890 534121320 -143700352 1271555405 1682853526 -1218997252 570482917 487893345 -2043170853 2024057444 1136274992 1521548225 1824297195 1370620468 1668752127 -835898073 -952672723 -98632175 -1014912925 814293653 287183812 -695349611 -430862784 1235287497 980709860 -995828632 -381748672 -766563062 483571999 -1058688676 1770190716 1774589735 -212823996
REM
CELL 1.54180   50.00000   50.00000   50.00000   90.00000   90.00000   90.00000
LATT -1
SFAC C  
C      1  0.4851100000000  0.4563250000000  0.4802730000000 1.0
C      1  0.4889100000000  0.5030550000000  0.4828290000000 1.0
C      1  0.5461210000000  0.4863770000000  0.4911540000000 1.0
C      1  0.4601970000000  0.5335140000000  0.4626130000000 1.0
C      1  0.4773570000000  0.5011810000000  0.5312210000000 1.0
C      1  0.5113400000000  0.4514100000000  0.4842000000000 1.0
C      1  0.5092860000000  0.5341630000000  0.5144010000000 1.0
C      1  0.4710040000000  0.4804940000000  0.4797210000000 1.0
C      1  0.4647840000000  0.5552150000000  0.5129300000000 1.0
C      1  0.4434480000000  0.5213180000000  0.4830520000000 1.0
C      1  0.5576010000000  0.4388910000000  0.4923080000000 1.0
C      1  0.4510710000000  0.5124750000000  0.5309590000000 1.0
C      1  0.4908000000000  0.4855320000000  0.5502790000000 1.0
C      1  0.5382120000000  0.4587780000000  0.4892200000000 1.0
C      1  0.5169200000000  0.4795070000000  0.5532250000000 1.0
C      1  0.4868420000000  0.5232540000000  0.4621890000000 1.0
C      1  0.5351490000000  0.5179970000000  0.4509870000000 1.0
C      1  0.4920600000000  0.5567070000000  0.5156090000000 1.0
C      1  0.5396430000000  0.4853320000000  0.5399460000000 1.0
C      1  0.5366470000000  0.5275930000000  0.5167500000000 1.0
C      1  0.5103640000000  0.5280030000000  0.4479150000000 1.0
C      1  0.4938390000000  0.5105050000000  0.5095370000000 1.0
C      1  0.4445060000000  0.4919950000000  0.4807050000000 1.0
C      1  0.5484480000000  0.5016280000000  0.4675350000000 1.0
C      1  0.5759610000000  0.4207090000000  0.4956970000000 1.0
C      1  0.4477240000000  0.5321500000000  0.5098830000000 1.0
C      1  0.4312590000000  0.5057600000000  0.5483990000000 1.0
C      1  0.5453970000000  0.5001310000000  0.5164630000000 1.0
END
