TITL C-599890-3321-1132 0.392602190728106 125000 -77.1571735808572 0 0 15 (C1) n - 1
REM
REM in /home/nfs/bkarasulu/CARBON/AIRSS/Generating-Clusters/TERSOFF/Only-C1/FIRE-HFTN
REM
REM
REM
REM
REM
REM ./C.cell (11c1c37f851c82e70ff6c80c92926a4b)
REM AIRSS Version 0.9.1 bugfix July 2018 build 013d7b7c2542+ Fri, 06 Jul 2018 19:26:36 +0100
REM compiler GCC version 9.2.1 20190827 (Red Hat 9.2.1-1)
REM options -cpp -mtune=generic -march=x86-64 -g -O0 -fpre-include=/usr/include/finclude/math-vector-fortran.h
REM seed -428289543 -394555982 -1988160025 -577412017 1564988957 1725901679 -1904704482 -622150248 1125017428 1401256697 202963018 -545393378 -1918353705 151160478 1750735951 -2012760254 1003818661 1330657586 999066183 1727253723 -735593105 -1453032207 1470864176 -417103871 987680888 -890257492 499984525 -2040981733 -1967351532 -1428051787 557251070 2029887088 -1021102273
REM
CELL 1.54180   50.00000   50.00000   50.00000   90.00000   90.00000   90.00000
LATT -1
SFAC C  
C      1  0.4705830000000  0.4760050000000  0.5155980000000 1.0
C      1  0.4641740000000  0.5010170000000  0.5263080000000 1.0
C      1  0.5880000000000  0.5370160000000  0.4896340000000 1.0
C      1  0.5285200000000  0.4535500000000  0.4915100000000 1.0
C      1  0.5623860000000  0.5326640000000  0.4917000000000 1.0
C      1  0.4631480000000  0.4529950000000  0.5283870000000 1.0
C      1  0.4714710000000  0.4722730000000  0.4669080000000 1.0
C      1  0.5255560000000  0.5015200000000  0.4921180000000 1.0
C      1  0.5174640000000  0.5484640000000  0.4977600000000 1.0
C      1  0.5134230000000  0.4763610000000  0.4915770000000 1.0
C      1  0.4599910000000  0.5255700000000  0.5353380000000 1.0
C      1  0.5349410000000  0.5277800000000  0.4939000000000 1.0
C      1  0.4564850000000  0.5499600000000  0.5438500000000 1.0
C      1  0.4850540000000  0.4747840000000  0.4911710000000 1.0
C      1  0.4588030000000  0.4700410000000  0.4442440000000 1.0
END
