TITL C-599890-3321-511 16.4278459675859 125000 -225.847409399301 0 0 39 (C1) n - 1
REM
REM in /home/nfs/bkarasulu/CARBON/AIRSS/Generating-Clusters/TERSOFF/Only-C1/FIRE-HFTN
REM
REM
REM
REM
REM
REM ./C.cell (11c1c37f851c82e70ff6c80c92926a4b)
REM AIRSS Version 0.9.1 bugfix July 2018 build 013d7b7c2542+ Fri, 06 Jul 2018 19:26:36 +0100
REM compiler GCC version 9.2.1 20190827 (Red Hat 9.2.1-1)
REM options -cpp -mtune=generic -march=x86-64 -g -O0 -fpre-include=/usr/include/finclude/math-vector-fortran.h
REM seed 1376423049 650691072 1369999175 -1846382615 575780632 1104801631 637639798 -814365026 -1315932960 -1372686203 -1616532760 226732568 -137714671 -30929325 1347910977 -1452263380 177853363 -2007394828 -1640555587 -2023374999 -1086565145 -2002466291 -1261716312 -733163079 722263948 -2036038549 -531119175 -760587898 2054995183 -1092339946 1973543564 229241283 -673405869
REM
CELL 1.54180   50.00000   50.00000   50.00000   90.00000   90.00000   90.00000
LATT -1
SFAC C  
C      1  0.4886890000000  0.4537270000000  0.5110490000000 1.0
C      1  0.5911790000000  0.5189590000000  0.5321820000000 1.0
C      1  0.5292270000000  0.5243940000000  0.4898240000000 1.0
C      1  0.4197020000000  0.5055700000000  0.4797360000000 1.0
C      1  0.5253360000000  0.4417880000000  0.5412010000000 1.0
C      1  0.3940840000000  0.5119640000000  0.4767530000000 1.0
C      1  0.3663430000000  0.5323350000000  0.4136840000000 1.0
C      1  0.6529010000000  0.4908980000000  0.4887780000000 1.0
C      1  0.4696830000000  0.4664600000000  0.4972240000000 1.0
C      1  0.5239680000000  0.5318860000000  0.4640170000000 1.0
C      1  0.5130990000000  0.4418610000000  0.5942090000000 1.0
C      1  0.3848310000000  0.5325110000000  0.3944610000000 1.0
C      1  0.4341730000000  0.5204400000000  0.3990160000000 1.0
C      1  0.4105650000000  0.5279240000000  0.3892240000000 1.0
C      1  0.5125690000000  0.4604620000000  0.5241090000000 1.0
C      1  0.5949300000000  0.5320480000000  0.5559100000000 1.0
C      1  0.3729230000000  0.5198580000000  0.4626970000000 1.0
C      1  0.4729780000000  0.5350770000000  0.5150320000000 1.0
C      1  0.5639680000000  0.5582260000000  0.4981220000000 1.0
C      1  0.4531290000000  0.5058900000000  0.4449690000000 1.0
C      1  0.5651090000000  0.5151790000000  0.5219340000000 1.0
C      1  0.4491060000000  0.5124890000000  0.4195460000000 1.0
C      1  0.5234440000000  0.4863710000000  0.5199080000000 1.0
C      1  0.4833000000000  0.5120820000000  0.5030190000000 1.0
C      1  0.5747250000000  0.5815790000000  0.4938760000000 1.0
C      1  0.5070300000000  0.4424280000000  0.6200040000000 1.0
C      1  0.5010600000000  0.4429870000000  0.6453760000000 1.0
C      1  0.4630360000000  0.5567820000000  0.5254760000000 1.0
C      1  0.5191420000000  0.4413930000000  0.5684260000000 1.0
C      1  0.5618240000000  0.4078190000000  0.5204930000000 1.0
C      1  0.4462600000000  0.5015410000000  0.4717800000000 1.0
C      1  0.5112750000000  0.5069260000000  0.5038680000000 1.0
C      1  0.6130200000000  0.5091600000000  0.5177420000000 1.0
C      1  0.4657920000000  0.4933960000000  0.4904360000000 1.0
C      1  0.3621550000000  0.5274640000000  0.4395570000000 1.0
C      1  0.6331500000000  0.4999520000000  0.5031850000000 1.0
C      1  0.5491010000000  0.4932600000000  0.5293890000000 1.0
C      1  0.5531380000000  0.5330110000000  0.5030580000000 1.0
C      1  0.5440570000000  0.4239010000000  0.5307330000000 1.0
END
