TITL C-599894-471-13 831.339962079415 125000 -570.896311663978 0 0 95 (C1) n - 1
REM
REM in /home/nfs/bkarasulu/CARBON/AIRSS/Generating-Clusters/TERSOFF/Only-C1/FIRE-HFTN
REM
REM
REM
REM
REM
REM ./C.cell (11c1c37f851c82e70ff6c80c92926a4b)
REM AIRSS Version 0.9.1 bugfix July 2018 build 013d7b7c2542+ Fri, 06 Jul 2018 19:26:36 +0100
REM compiler GCC version 9.2.1 20190827 (Red Hat 9.2.1-1)
REM options -cpp -mtune=generic -march=x86-64 -g -O0 -fpre-include=/usr/include/finclude/math-vector-fortran.h
REM seed 1446334048 44006588 -960190418 -209780269 5207133 401223666 1592457733 -1567623293 801904654 -314805972 294884725 -1806047732 -1564161045 -304440568 198604912 -508238829 -148239563 393124994 -1484010257 -1185966092 693203676 71485800 938267468 678870799 -1625037089 1991973790 -121401720 506662473 -1393105070 1704365931 354825163 -517104512 748586578
REM
CELL 1.54180   50.00000   50.00000   50.00000   90.00000   90.00000   90.00000
LATT -1
SFAC C  
C      1  0.5381230000000  0.5132900000000  0.4226800000000 1.0
C      1  0.4251590000000  0.4498290000000  0.5373950000000 1.0
C      1  0.4838310000000  0.5681170000000  0.4468420000000 1.0
C      1  0.4867770000000  0.4159680000000  0.5530270000000 1.0
C      1  0.4619480000000  0.5609300000000  0.4636540000000 1.0
C      1  0.5046210000000  0.5005840000000  0.4553840000000 1.0
C      1  0.4917860000000  0.5293410000000  0.5208170000000 1.0
C      1  0.5518900000000  0.4558630000000  0.4239600000000 1.0
C      1  0.5335520000000  0.5782390000000  0.4052570000000 1.0
C      1  0.4738860000000  0.4058860000000  0.4991460000000 1.0
C      1  0.5802110000000  0.5375450000000  0.5048280000000 1.0
C      1  0.5335870000000  0.4482770000000  0.5627270000000 1.0
C      1  0.5004010000000  0.4517090000000  0.5243050000000 1.0
C      1  0.5583910000000  0.4524400000000  0.5475640000000 1.0
C      1  0.5280860000000  0.6677310000000  0.4447720000000 1.0
C      1  0.4742730000000  0.4189080000000  0.4233780000000 1.0
C      1  0.5226560000000  0.4935160000000  0.5249630000000 1.0
C      1  0.5179510000000  0.4694240000000  0.5121360000000 1.0
C      1  0.4155760000000  0.4392480000000  0.4859620000000 1.0
C      1  0.4380800000000  0.5451980000000  0.4573700000000 1.0
C      1  0.5285120000000  0.5289060000000  0.5552770000000 1.0
C      1  0.5312760000000  0.5328110000000  0.4728950000000 1.0
C      1  0.5154720000000  0.5193740000000  0.5319450000000 1.0
C      1  0.5023890000000  0.4989910000000  0.5898120000000 1.0
C      1  0.5471770000000  0.5098730000000  0.4730720000000 1.0
C      1  0.4743080000000  0.4528700000000  0.5128870000000 1.0
C      1  0.4711730000000  0.5597490000000  0.4906360000000 1.0
C      1  0.5042760000000  0.4507580000000  0.4452350000000 1.0
C      1  0.5254270000000  0.6165260000000  0.4332010000000 1.0
C      1  0.5704260000000  0.5628670000000  0.4969250000000 1.0
C      1  0.5299000000000  0.5606440000000  0.4680590000000 1.0
C      1  0.4601290000000  0.4375940000000  0.4662360000000 1.0
C      1  0.5489200000000  0.4819040000000  0.4804330000000 1.0
C      1  0.5947540000000  0.4216310000000  0.5401270000000 1.0
C      1  0.5740250000000  0.4772180000000  0.5489130000000 1.0
C      1  0.4373740000000  0.5171740000000  0.4642720000000 1.0
C      1  0.5504920000000  0.5740450000000  0.4823450000000 1.0
C      1  0.4883250000000  0.5178460000000  0.4723810000000 1.0
C      1  0.5687710000000  0.4770350000000  0.4254540000000 1.0
C      1  0.4685560000000  0.4040380000000  0.4027570000000 1.0
C      1  0.4589370000000  0.4751520000000  0.5228700000000 1.0
C      1  0.4424490000000  0.4954170000000  0.5108890000000 1.0
C      1  0.5135250000000  0.5228640000000  0.5789290000000 1.0
C      1  0.5899390000000  0.5172570000000  0.4842910000000 1.0
C      1  0.4796580000000  0.4358560000000  0.4449860000000 1.0
C      1  0.5549320000000  0.4172090000000  0.5144640000000 1.0
C      1  0.5699280000000  0.5162990000000  0.5769900000000 1.0
C      1  0.4596170000000  0.4129700000000  0.5508870000000 1.0
C      1  0.5043570000000  0.4415790000000  0.5525050000000 1.0
C      1  0.4652890000000  0.5763600000000  0.5126870000000 1.0
C      1  0.5274280000000  0.4457650000000  0.4294180000000 1.0
C      1  0.4877910000000  0.5006300000000  0.4115400000000 1.0
C      1  0.4687310000000  0.4322800000000  0.4932150000000 1.0
C      1  0.4674980000000  0.5292820000000  0.5347600000000 1.0
C      1  0.4166640000000  0.5570630000000  0.4450700000000 1.0
C      1  0.5695010000000  0.4301430000000  0.5337120000000 1.0
C      1  0.4634940000000  0.5791220000000  0.5889820000000 1.0
C      1  0.4440060000000  0.4705230000000  0.5479910000000 1.0
C      1  0.5219980000000  0.4811290000000  0.6008440000000 1.0
C      1  0.4527370000000  0.4892270000000  0.5700670000000 1.0
C      1  0.5728630000000  0.5143370000000  0.4594530000000 1.0
C      1  0.4795940000000  0.4841340000000  0.5794150000000 1.0
C      1  0.4268030000000  0.4710740000000  0.4495790000000 1.0
C      1  0.4145420000000  0.4569600000000  0.5089240000000 1.0
C      1  0.4629650000000  0.4895550000000  0.4134910000000 1.0
C      1  0.4886620000000  0.5369050000000  0.4939190000000 1.0
C      1  0.5078180000000  0.4726910000000  0.4630650000000 1.0
C      1  0.4646890000000  0.4790690000000  0.4729180000000 1.0
C      1  0.5904610000000  0.4913890000000  0.5001090000000 1.0
C      1  0.4199820000000  0.4843060000000  0.4971250000000 1.0
C      1  0.5337090000000  0.4596460000000  0.5891810000000 1.0
C      1  0.4423860000000  0.5164900000000  0.5699950000000 1.0
C      1  0.5745000000000  0.4720280000000  0.4868850000000 1.0
C      1  0.4879450000000  0.4582880000000  0.5718530000000 1.0
C      1  0.5769230000000  0.4900090000000  0.5744230000000 1.0
C      1  0.4631160000000  0.5059110000000  0.4695600000000 1.0
C      1  0.4416220000000  0.5196600000000  0.5246120000000 1.0
C      1  0.5267680000000  0.6423480000000  0.4389720000000 1.0
C      1  0.4630280000000  0.5657960000000  0.5646470000000 1.0
C      1  0.5239400000000  0.5890170000000  0.4284910000000 1.0
C      1  0.5104070000000  0.5068240000000  0.4279470000000 1.0
C      1  0.4624180000000  0.5374700000000  0.5623940000000 1.0
C      1  0.4641640000000  0.5910310000000  0.6121530000000 1.0
C      1  0.5122030000000  0.5722180000000  0.4483280000000 1.0
C      1  0.4413780000000  0.4785640000000  0.4258300000000 1.0
C      1  0.5648410000000  0.5046260000000  0.4321370000000 1.0
C      1  0.4323860000000  0.4454980000000  0.4632040000000 1.0
C      1  0.4233180000000  0.5201490000000  0.5476420000000 1.0
C      1  0.4633440000000  0.5793590000000  0.5394590000000 1.0
C      1  0.5248560000000  0.4692230000000  0.4851400000000 1.0
C      1  0.5729150000000  0.5240700000000  0.5299800000000 1.0
C      1  0.4198840000000  0.4930540000000  0.4686380000000 1.0
C      1  0.5575800000000  0.5290580000000  0.5544090000000 1.0
C      1  0.4353190000000  0.4237330000000  0.5445390000000 1.0
C      1  0.5817230000000  0.4954860000000  0.5274530000000 1.0
END
