TITL C-599893-4344-669 0.103900598584885 125000 -269.039373672574 0 0 45 (C1) n - 1
REM
REM in /home/nfs/bkarasulu/CARBON/AIRSS/Generating-Clusters/TERSOFF/Only-C1/FIRE-HFTN
REM
REM
REM
REM
REM
REM ./C.cell (11c1c37f851c82e70ff6c80c92926a4b)
REM AIRSS Version 0.9.1 bugfix July 2018 build 013d7b7c2542+ Fri, 06 Jul 2018 19:26:36 +0100
REM compiler GCC version 9.2.1 20190827 (Red Hat 9.2.1-1)
REM options -cpp -mtune=generic -march=x86-64 -g -O0 -fpre-include=/usr/include/finclude/math-vector-fortran.h
REM seed -312729555 -562830831 -1059417084 -212494486 -226846949 -1034996389 -1865231701 -1957779381 -105847326 -366831328 540899235 1281954357 1032710401 1865753862 -967090187 1161765548 -957836993 -784570514 -2072212282 -100810036 1555014882 1937992358 1921473686 -1114982172 -332400671 -1882193690 -1575770916 -1322680226 1774500255 1941949795 1398780866 934705790 -16520730
REM
CELL 1.54180   50.00000   50.00000   50.00000   90.00000   90.00000   90.00000
LATT -1
SFAC C  
C      1  0.5902890000000  0.4911600000000  0.4945950000000 1.0
C      1  0.4955190000000  0.5208120000000  0.4866750000000 1.0
C      1  0.5172660000000  0.4252750000000  0.4959910000000 1.0
C      1  0.4953760000000  0.4179610000000  0.4801990000000 1.0
C      1  0.5277380000000  0.4205710000000  0.5222720000000 1.0
C      1  0.5871910000000  0.5167040000000  0.4875500000000 1.0
C      1  0.4483850000000  0.5135210000000  0.5316670000000 1.0
C      1  0.5497550000000  0.4382250000000  0.5285280000000 1.0
C      1  0.5111010000000  0.6366660000000  0.4950570000000 1.0
C      1  0.5529650000000  0.4944530000000  0.5755630000000 1.0
C      1  0.5779760000000  0.4680550000000  0.4992660000000 1.0
C      1  0.4882350000000  0.5686020000000  0.4859110000000 1.0
C      1  0.4257130000000  0.4661520000000  0.4318140000000 1.0
C      1  0.5189200000000  0.5539380000000  0.5461430000000 1.0
C      1  0.5071280000000  0.6112910000000  0.4994760000000 1.0
C      1  0.5197590000000  0.5148000000000  0.4737640000000 1.0
C      1  0.5557360000000  0.4520410000000  0.5034790000000 1.0
C      1  0.5575240000000  0.4482750000000  0.5531810000000 1.0
C      1  0.4848370000000  0.5059370000000  0.5077330000000 1.0
C      1  0.4462900000000  0.5199270000000  0.5048130000000 1.0
C      1  0.5117450000000  0.4484560000000  0.4172520000000 1.0
C      1  0.4292470000000  0.5132130000000  0.5514720000000 1.0
C      1  0.5386530000000  0.5165510000000  0.5716170000000 1.0
C      1  0.4401460000000  0.4445280000000  0.4373780000000 1.0
C      1  0.5170800000000  0.5290470000000  0.5589780000000 1.0
C      1  0.5343380000000  0.4467430000000  0.4849010000000 1.0
C      1  0.4614020000000  0.4313980000000  0.4464650000000 1.0
C      1  0.5677350000000  0.5333120000000  0.4798320000000 1.0
C      1  0.4112090000000  0.5129880000000  0.5708760000000 1.0
C      1  0.5078060000000  0.4469480000000  0.4442180000000 1.0
C      1  0.4197620000000  0.4920510000000  0.4328790000000 1.0
C      1  0.4343050000000  0.5333460000000  0.4598110000000 1.0
C      1  0.5415670000000  0.5323900000000  0.4746320000000 1.0
C      1  0.5029300000000  0.5841220000000  0.5041890000000 1.0
C      1  0.4937200000000  0.5139610000000  0.5546580000000 1.0
C      1  0.5237440000000  0.4892180000000  0.4630560000000 1.0
C      1  0.5240640000000  0.4613220000000  0.4628880000000 1.0
C      1  0.4229420000000  0.5166960000000  0.4423970000000 1.0
C      1  0.4875780000000  0.4303090000000  0.4559460000000 1.0
C      1  0.4511840000000  0.5351900000000  0.4819120000000 1.0
C      1  0.3934950000000  0.5127670000000  0.5900020000000 1.0
C      1  0.5133750000000  0.5718810000000  0.5272570000000 1.0
C      1  0.4786660000000  0.5430350000000  0.4800670000000 1.0
C      1  0.5591230000000  0.4692900000000  0.5694470000000 1.0
C      1  0.4764780000000  0.5068730000000  0.5341930000000 1.0
END
