TITL C-599894-471-221 -4893.55825744683 125000 -913.23641397586 0 0 151 (C1) n - 1
REM
REM in /home/nfs/bkarasulu/CARBON/AIRSS/Generating-Clusters/TERSOFF/Only-C1/FIRE-HFTN
REM
REM
REM
REM
REM
REM ./C.cell (11c1c37f851c82e70ff6c80c92926a4b)
REM AIRSS Version 0.9.1 bugfix July 2018 build 013d7b7c2542+ Fri, 06 Jul 2018 19:26:36 +0100
REM compiler GCC version 9.2.1 20190827 (Red Hat 9.2.1-1)
REM options -cpp -mtune=generic -march=x86-64 -g -O0 -fpre-include=/usr/include/finclude/math-vector-fortran.h
REM seed 1033288104 -559342603 -1683335845 96078739 1703561518 1732497258 -1781165202 -553176717 -580252282 -383032010 -501241005 1476180946 818102784 771445165 -274042335 -908792969 -2080573643 1618397606 823777579 -1752627169 -86313778 1609239171 970275419 -661722805 -2012391439 297519797 -339798096 475296460 -883122479 1793723038 987766977 -1348503675 95764889
REM
CELL 1.54180   50.00000   50.00000   50.00000   90.00000   90.00000   90.00000
LATT -1
SFAC C  
C      1  0.5846010000000  0.5646540000000  0.5290410000000 1.0
C      1  0.5150180000000  0.4389980000000  0.4959460000000 1.0
C      1  0.4709970000000  0.4609040000000  0.4970810000000 1.0
C      1  0.5322980000000  0.4341070000000  0.5193810000000 1.0
C      1  0.5284530000000  0.4564850000000  0.4166130000000 1.0
C      1  0.4470240000000  0.4161330000000  0.5382450000000 1.0
C      1  0.4198770000000  0.5334550000000  0.5626780000000 1.0
C      1  0.3612600000000  0.4531760000000  0.5138740000000 1.0
C      1  0.4307590000000  0.5899820000000  0.4910800000000 1.0
C      1  0.4963050000000  0.5751130000000  0.4865860000000 1.0
C      1  0.5049440000000  0.4659660000000  0.6133240000000 1.0
C      1  0.4046540000000  0.4542380000000  0.4533070000000 1.0
C      1  0.4295370000000  0.4773680000000  0.5131040000000 1.0
C      1  0.4817910000000  0.4462260000000  0.6072960000000 1.0
C      1  0.5977310000000  0.4701150000000  0.4981470000000 1.0
C      1  0.6279550000000  0.5551660000000  0.5578990000000 1.0
C      1  0.4946810000000  0.4935530000000  0.4527330000000 1.0
C      1  0.4573970000000  0.5249310000000  0.5336610000000 1.0
C      1  0.4644890000000  0.5860330000000  0.5644510000000 1.0
C      1  0.5962020000000  0.5051810000000  0.4543020000000 1.0
C      1  0.5835390000000  0.5920750000000  0.4388730000000 1.0
C      1  0.4192780000000  0.4409770000000  0.4739580000000 1.0
C      1  0.5372380000000  0.5729320000000  0.5271040000000 1.0
C      1  0.5329330000000  0.3924770000000  0.4330950000000 1.0
C      1  0.5341640000000  0.5126660000000  0.4997780000000 1.0
C      1  0.5434790000000  0.4978740000000  0.4773290000000 1.0
C      1  0.4975320000000  0.5076900000000  0.5353130000000 1.0
C      1  0.5374090000000  0.4229950000000  0.5666690000000 1.0
C      1  0.4219330000000  0.5130210000000  0.4166710000000 1.0
C      1  0.4435170000000  0.5332240000000  0.4788730000000 1.0
C      1  0.3869130000000  0.4511500000000  0.5098840000000 1.0
C      1  0.4184100000000  0.5400330000000  0.4918080000000 1.0
C      1  0.4606170000000  0.4448000000000  0.4507400000000 1.0
C      1  0.4622320000000  0.4762070000000  0.5723560000000 1.0
C      1  0.4691660000000  0.6253040000000  0.5345830000000 1.0
C      1  0.5163930000000  0.5547030000000  0.4786880000000 1.0
C      1  0.5772910000000  0.5671440000000  0.5015100000000 1.0
C      1  0.5450670000000  0.5220760000000  0.5903080000000 1.0
C      1  0.4954320000000  0.5274810000000  0.4174270000000 1.0
C      1  0.4732670000000  0.5071890000000  0.5175580000000 1.0
C      1  0.4712070000000  0.5537830000000  0.4459100000000 1.0
C      1  0.6010870000000  0.4424170000000  0.4897580000000 1.0
C      1  0.5105030000000  0.5618310000000  0.5336060000000 1.0
C      1  0.4648830000000  0.4927210000000  0.4604590000000 1.0
C      1  0.4552390000000  0.4044090000000  0.4754190000000 1.0
C      1  0.5515730000000  0.5820280000000  0.5007940000000 1.0
C      1  0.5132580000000  0.5300600000000  0.4930010000000 1.0
C      1  0.4354560000000  0.5916200000000  0.5213860000000 1.0
C      1  0.4423090000000  0.4264380000000  0.4631520000000 1.0
C      1  0.4812000000000  0.5541530000000  0.5294530000000 1.0
C      1  0.5432090000000  0.4902090000000  0.3843370000000 1.0
C      1  0.5598740000000  0.5946980000000  0.4520440000000 1.0
C      1  0.4561360000000  0.3788360000000  0.4646240000000 1.0
C      1  0.4712230000000  0.4069080000000  0.5450460000000 1.0
C      1  0.5486490000000  0.4125650000000  0.4440030000000 1.0
C      1  0.4930680000000  0.5554880000000  0.4267830000000 1.0
C      1  0.4728900000000  0.5135840000000  0.4065540000000 1.0
C      1  0.5232120000000  0.6102300000000  0.4694600000000 1.0
C      1  0.5835030000000  0.4334770000000  0.4694640000000 1.0
C      1  0.5409630000000  0.5018970000000  0.5431870000000 1.0
C      1  0.4372160000000  0.5173750000000  0.5787840000000 1.0
C      1  0.4588590000000  0.4804970000000  0.5134300000000 1.0
C      1  0.5533400000000  0.4941950000000  0.5902900000000 1.0
C      1  0.5574060000000  0.4456050000000  0.5628480000000 1.0
C      1  0.4531920000000  0.5273100000000  0.6008340000000 1.0
C      1  0.4952340000000  0.4223000000000  0.5981080000000 1.0
C      1  0.4411230000000  0.5074900000000  0.4648180000000 1.0
C      1  0.5295980000000  0.4533690000000  0.6029080000000 1.0
C      1  0.5286910000000  0.5532020000000  0.4523180000000 1.0
C      1  0.5482790000000  0.5998800000000  0.4784710000000 1.0
C      1  0.5185400000000  0.5175150000000  0.5514310000000 1.0
C      1  0.5186020000000  0.4466050000000  0.4681670000000 1.0
C      1  0.4903510000000  0.5764570000000  0.5733610000000 1.0
C      1  0.4614800000000  0.3322900000000  0.4535970000000 1.0
C      1  0.5236290000000  0.4165950000000  0.5418970000000 1.0
C      1  0.5812640000000  0.5272720000000  0.4659460000000 1.0
C      1  0.4076730000000  0.4672640000000  0.4298630000000 1.0
C      1  0.4433770000000  0.5724880000000  0.5788010000000 1.0
C      1  0.5160060000000  0.3676770000000  0.3957170000000 1.0
C      1  0.4701560000000  0.5402540000000  0.4725900000000 1.0
C      1  0.4292470000000  0.4290490000000  0.5230260000000 1.0
C      1  0.5210680000000  0.5310840000000  0.5760820000000 1.0
C      1  0.4992430000000  0.6017210000000  0.4787210000000 1.0
C      1  0.4905600000000  0.4821510000000  0.5739670000000 1.0
C      1  0.5742580000000  0.4747330000000  0.4167030000000 1.0
C      1  0.5511520000000  0.4553960000000  0.5332170000000 1.0
C      1  0.5606140000000  0.5676610000000  0.5451010000000 1.0
C      1  0.5811500000000  0.5007380000000  0.4279320000000 1.0
C      1  0.5549870000000  0.5176920000000  0.4621660000000 1.0
C      1  0.5629000000000  0.4534090000000  0.4630640000000 1.0
C      1  0.5550830000000  0.4731120000000  0.4823480000000 1.0
C      1  0.4938300000000  0.4626590000000  0.4111790000000 1.0
C      1  0.5387150000000  0.5268230000000  0.4400900000000 1.0
C      1  0.5111790000000  0.5120820000000  0.4364300000000 1.0
C      1  0.4865720000000  0.4373530000000  0.5007840000000 1.0
C      1  0.5075750000000  0.4697680000000  0.5560320000000 1.0
C      1  0.4979040000000  0.4052110000000  0.5432610000000 1.0
C      1  0.4113070000000  0.5070300000000  0.4624090000000 1.0
C      1  0.4854910000000  0.5231630000000  0.4922050000000 1.0
C      1  0.6142900000000  0.5426110000000  0.6040960000000 1.0
C      1  0.4193970000000  0.5718280000000  0.5346310000000 1.0
C      1  0.4510090000000  0.4999930000000  0.5623380000000 1.0
C      1  0.5164880000000  0.5708630000000  0.4331610000000 1.0
C      1  0.4701420000000  0.3581500000000  0.4519530000000 1.0
C      1  0.5308450000000  0.4754900000000  0.5421750000000 1.0
C      1  0.5394080000000  0.4411510000000  0.4474110000000 1.0
C      1  0.5017980000000  0.4650210000000  0.4547940000000 1.0
C      1  0.4945620000000  0.4914480000000  0.6019210000000 1.0
C      1  0.5862850000000  0.5497390000000  0.4814910000000 1.0
C      1  0.6305540000000  0.5482310000000  0.5835770000000 1.0
C      1  0.4252120000000  0.5248240000000  0.5331840000000 1.0
C      1  0.5228900000000  0.4266170000000  0.5913140000000 1.0
C      1  0.5511260000000  0.4656400000000  0.5866080000000 1.0
C      1  0.4227900000000  0.4843500000000  0.4130410000000 1.0
C      1  0.5744410000000  0.4096860000000  0.4565830000000 1.0
C      1  0.4471140000000  0.5272320000000  0.4124450000000 1.0
C      1  0.4616250000000  0.4660420000000  0.4706130000000 1.0
C      1  0.5533820000000  0.5065390000000  0.5195480000000 1.0
C      1  0.5142180000000  0.3748190000000  0.4220750000000 1.0
C      1  0.5281500000000  0.5959350000000  0.4343840000000 1.0
C      1  0.4518190000000  0.4820260000000  0.6179290000000 1.0
C      1  0.4839850000000  0.4506690000000  0.4354020000000 1.0
C      1  0.4226230000000  0.5768030000000  0.4669730000000 1.0
C      1  0.6103000000000  0.5607730000000  0.5387680000000 1.0
C      1  0.4222120000000  0.5627790000000  0.5622070000000 1.0
C      1  0.4580130000000  0.4611500000000  0.5984930000000 1.0
C      1  0.4691240000000  0.5055940000000  0.6128360000000 1.0
C      1  0.4739920000000  0.4838410000000  0.4018480000000 1.0
C      1  0.4081020000000  0.5264210000000  0.4400820000000 1.0
C      1  0.6059650000000  0.5884780000000  0.4260910000000 1.0
C      1  0.4935410000000  0.3646210000000  0.4379550000000 1.0
C      1  0.5878190000000  0.5409020000000  0.6076650000000 1.0
C      1  0.4140910000000  0.5014880000000  0.5149920000000 1.0
C      1  0.5644930000000  0.5428070000000  0.5924050000000 1.0
C      1  0.5620380000000  0.5628990000000  0.5725890000000 1.0
C      1  0.4743250000000  0.4125360000000  0.4945810000000 1.0
C      1  0.5687690000000  0.4742390000000  0.5091930000000 1.0
C      1  0.5060760000000  0.5552210000000  0.5805500000000 1.0
C      1  0.6057400000000  0.4882260000000  0.4759220000000 1.0
C      1  0.5490280000000  0.4696370000000  0.4032460000000 1.0
C      1  0.4162950000000  0.5493090000000  0.5180940000000 1.0
C      1  0.4464030000000  0.4746500000000  0.3999080000000 1.0
C      1  0.4165730000000  0.4496550000000  0.5045560000000 1.0
C      1  0.5590900000000  0.5205800000000  0.4179960000000 1.0
C      1  0.4513000000000  0.5557960000000  0.6013090000000 1.0
C      1  0.5495240000000  0.5158110000000  0.3914550000000 1.0
C      1  0.4468950000000  0.5507470000000  0.4307850000000 1.0
C      1  0.4211200000000  0.5547350000000  0.4452160000000 1.0
C      1  0.4761370000000  0.5687450000000  0.5055440000000 1.0
C      1  0.4040550000000  0.5137560000000  0.4896700000000 1.0
C      1  0.4567520000000  0.6012650000000  0.5397900000000 1.0
END
