TITL C-599893-4344-698 -0.000782227296631634 125000 -268.220646759774 0 0 45 (C1) n - 1
REM
REM in /home/nfs/bkarasulu/CARBON/AIRSS/Generating-Clusters/TERSOFF/Only-C1/FIRE-HFTN
REM
REM
REM
REM
REM
REM ./C.cell (11c1c37f851c82e70ff6c80c92926a4b)
REM AIRSS Version 0.9.1 bugfix July 2018 build 013d7b7c2542+ Fri, 06 Jul 2018 19:26:36 +0100
REM compiler GCC version 9.2.1 20190827 (Red Hat 9.2.1-1)
REM options -cpp -mtune=generic -march=x86-64 -g -O0 -fpre-include=/usr/include/finclude/math-vector-fortran.h
REM seed -666556511 1053576970 -488515337 1840524325 1866264382 -1961242252 -586701766 1909283952 -194436739 530467659 -229122237 -595503708 -1790002784 -307863875 -523416715 -992154365 -1632947646 656699446 2781357 1610550817 1717372550 921485359 -641413918 -1159372877 -238804524 457122306 1745915408 -2025763408 1593537879 -1789848250 1401546868 -1357266488 1692092566
REM
CELL 1.54180   50.00000   50.00000   50.00000   90.00000   90.00000   90.00000
LATT -1
SFAC C  
C      1  0.5798620000000  0.5349530000000  0.5433210000000 1.0
C      1  0.4581970000000  0.5369610000000  0.5165070000000 1.0
C      1  0.4129580000000  0.5036750000000  0.5171280000000 1.0
C      1  0.4603480000000  0.5368640000000  0.4883880000000 1.0
C      1  0.5014680000000  0.4821200000000  0.5220070000000 1.0
C      1  0.5115600000000  0.5042040000000  0.4303230000000 1.0
C      1  0.5415740000000  0.5023100000000  0.5765670000000 1.0
C      1  0.6081200000000  0.4990450000000  0.4600400000000 1.0
C      1  0.4746060000000  0.5539030000000  0.4712240000000 1.0
C      1  0.5388070000000  0.5015830000000  0.4364560000000 1.0
C      1  0.4987120000000  0.3844590000000  0.4536730000000 1.0
C      1  0.4768060000000  0.4933300000000  0.4794470000000 1.0
C      1  0.4506520000000  0.4421550000000  0.4811670000000 1.0
C      1  0.5830050000000  0.5067120000000  0.4677690000000 1.0
C      1  0.4675630000000  0.4818000000000  0.4219460000000 1.0
C      1  0.5744270000000  0.5381620000000  0.5706380000000 1.0
C      1  0.4093530000000  0.5054450000000  0.4903650000000 1.0
C      1  0.5613290000000  0.5031010000000  0.4504060000000 1.0
C      1  0.4490420000000  0.4683870000000  0.4390570000000 1.0
C      1  0.4926020000000  0.4095490000000  0.4501650000000 1.0
C      1  0.4833710000000  0.5316450000000  0.5730540000000 1.0
C      1  0.5208610000000  0.4896910000000  0.5653540000000 1.0
C      1  0.5022320000000  0.5459640000000  0.5854930000000 1.0
C      1  0.5931280000000  0.5499340000000  0.5876490000000 1.0
C      1  0.4999900000000  0.5296690000000  0.4339170000000 1.0
C      1  0.4552010000000  0.5111360000000  0.4770340000000 1.0
C      1  0.4567010000000  0.5154740000000  0.5353600000000 1.0
C      1  0.4600020000000  0.4466120000000  0.4548920000000 1.0
C      1  0.5034650000000  0.4552130000000  0.4351940000000 1.0
C      1  0.4276220000000  0.4835640000000  0.4493350000000 1.0
C      1  0.4435040000000  0.4682240000000  0.5257380000000 1.0
C      1  0.4947000000000  0.4831630000000  0.4963270000000 1.0
C      1  0.5798090000000  0.5278690000000  0.5177340000000 1.0
C      1  0.4785290000000  0.5121650000000  0.5533180000000 1.0
C      1  0.5288840000000  0.5464010000000  0.5885960000000 1.0
C      1  0.4857180000000  0.4362870000000  0.4469020000000 1.0
C      1  0.6103470000000  0.5610070000000  0.6037760000000 1.0
C      1  0.4993350000000  0.4930640000000  0.5476810000000 1.0
C      1  0.4891690000000  0.5487700000000  0.4492010000000 1.0
C      1  0.4956730000000  0.4809960000000  0.4260430000000 1.0
C      1  0.4367720000000  0.4953410000000  0.5302960000000 1.0
C      1  0.5790280000000  0.5181590000000  0.4930390000000 1.0
C      1  0.4464790000000  0.4497210000000  0.5065210000000 1.0
C      1  0.4289080000000  0.5022050000000  0.4703240000000 1.0
C      1  0.5495810000000  0.5290080000000  0.5806280000000 1.0
END
