TITL C-599892-9790-638 -3.77708073803865e-06 125000 -495.722882838573 0 0 82 (C1) n - 1
REM
REM in /home/nfs/bkarasulu/CARBON/AIRSS/Generating-Clusters/TERSOFF/Only-C1/FIRE-HFTN
REM
REM
REM
REM
REM
REM ./C.cell (11c1c37f851c82e70ff6c80c92926a4b)
REM AIRSS Version 0.9.1 bugfix July 2018 build 013d7b7c2542+ Fri, 06 Jul 2018 19:26:36 +0100
REM compiler GCC version 9.2.1 20190827 (Red Hat 9.2.1-1)
REM options -cpp -mtune=generic -march=x86-64 -g -O0 -fpre-include=/usr/include/finclude/math-vector-fortran.h
REM seed 1934325801 -1079617522 824568135 2080972791 1618468701 -1558138332 1421874821 -1202895266 -1052015717 -1212079818 -613775002 -166838502 -1297358952 780727009 -127162795 482928114 -233661922 -1532721991 -1780234688 -54641757 1327950584 -750259906 81709964 -1048521692 229183542 -1353872744 -1675107397 -711595308 2128245662 827348222 246921439 -1886912865 -1935118354
REM
CELL 1.54180   50.00000   50.00000   50.00000   90.00000   90.00000   90.00000
LATT -1
SFAC C  
C      1  0.4691270000000  0.5468090000000  0.5641870000000 1.0
C      1  0.5855980000000  0.5377230000000  0.4424200000000 1.0
C      1  0.4502580000000  0.5635290000000  0.4947490000000 1.0
C      1  0.4834100000000  0.5766700000000  0.5274270000000 1.0
C      1  0.4255490000000  0.5283660000000  0.5153760000000 1.0
C      1  0.5067690000000  0.4735390000000  0.4075540000000 1.0
C      1  0.4244130000000  0.4415330000000  0.5254210000000 1.0
C      1  0.4885590000000  0.4725970000000  0.5139590000000 1.0
C      1  0.5848230000000  0.4876790000000  0.5458600000000 1.0
C      1  0.5669810000000  0.5527940000000  0.4838860000000 1.0
C      1  0.4273360000000  0.4620640000000  0.4784060000000 1.0
C      1  0.5012460000000  0.4293240000000  0.5434670000000 1.0
C      1  0.4428400000000  0.5506860000000  0.5201590000000 1.0
C      1  0.4522110000000  0.4972780000000  0.5396980000000 1.0
C      1  0.4638830000000  0.4287610000000  0.4972230000000 1.0
C      1  0.4273080000000  0.5250870000000  0.4670980000000 1.0
C      1  0.4986950000000  0.5128670000000  0.5432890000000 1.0
C      1  0.5306000000000  0.5663740000000  0.4541730000000 1.0
C      1  0.4739600000000  0.5148440000000  0.4122960000000 1.0
C      1  0.5274540000000  0.4518760000000  0.5818020000000 1.0
C      1  0.4732180000000  0.4558750000000  0.4344130000000 1.0
C      1  0.4169360000000  0.4818260000000  0.4966580000000 1.0
C      1  0.5010230000000  0.4535210000000  0.4275620000000 1.0
C      1  0.5689670000000  0.5505450000000  0.4255350000000 1.0
C      1  0.5119480000000  0.5065630000000  0.4408620000000 1.0
C      1  0.5607120000000  0.4626440000000  0.4790260000000 1.0
C      1  0.4743880000000  0.5781790000000  0.4989030000000 1.0
C      1  0.4625230000000  0.4807210000000  0.4428160000000 1.0
C      1  0.5019790000000  0.5656250000000  0.4577760000000 1.0
C      1  0.4727870000000  0.4615720000000  0.5631430000000 1.0
C      1  0.5408550000000  0.4337810000000  0.5205810000000 1.0
C      1  0.5460230000000  0.5137930000000  0.5619230000000 1.0
C      1  0.4624240000000  0.5601500000000  0.5402990000000 1.0
C      1  0.4973110000000  0.5789050000000  0.4826100000000 1.0
C      1  0.4862820000000  0.5441810000000  0.4484510000000 1.0
C      1  0.4938540000000  0.4249430000000  0.4951540000000 1.0
C      1  0.5224360000000  0.5791470000000  0.4992280000000 1.0
C      1  0.5438980000000  0.4915630000000  0.5234500000000 1.0
C      1  0.4904590000000  0.5169270000000  0.4588590000000 1.0
C      1  0.5647120000000  0.4896320000000  0.5672830000000 1.0
C      1  0.4176850000000  0.4695710000000  0.5234600000000 1.0
C      1  0.4872890000000  0.5267590000000  0.5668060000000 1.0
C      1  0.5455170000000  0.5625580000000  0.4308790000000 1.0
C      1  0.5154210000000  0.4667760000000  0.4961130000000 1.0
C      1  0.5545030000000  0.4423090000000  0.5450070000000 1.0
C      1  0.5244770000000  0.4941720000000  0.4838920000000 1.0
C      1  0.5259080000000  0.4987720000000  0.5461050000000 1.0
C      1  0.5512230000000  0.4614100000000  0.5680640000000 1.0
C      1  0.5187700000000  0.4485920000000  0.4501870000000 1.0
C      1  0.4539260000000  0.4532560000000  0.4839390000000 1.0
C      1  0.5433350000000  0.4661120000000  0.4542470000000 1.0
C      1  0.5445780000000  0.5406300000000  0.5450760000000 1.0
C      1  0.5433730000000  0.5685470000000  0.4808650000000 1.0
C      1  0.4516850000000  0.5012060000000  0.4262020000000 1.0
C      1  0.4307500000000  0.5150030000000  0.4404380000000 1.0
C      1  0.5138740000000  0.5784260000000  0.5281970000000 1.0
C      1  0.4846570000000  0.4518530000000  0.5389590000000 1.0
C      1  0.4207840000000  0.5107850000000  0.4923220000000 1.0
C      1  0.4267030000000  0.4864970000000  0.5443740000000 1.0
C      1  0.4763630000000  0.5421900000000  0.4215390000000 1.0
C      1  0.4740030000000  0.4935200000000  0.4668810000000 1.0
C      1  0.5324510000000  0.5673850000000  0.5481330000000 1.0
C      1  0.5374050000000  0.5103170000000  0.5024180000000 1.0
C      1  0.5049790000000  0.5334700000000  0.5220730000000 1.0
C      1  0.5428230000000  0.4533510000000  0.5002960000000 1.0
C      1  0.5821200000000  0.5325440000000  0.4700830000000 1.0
C      1  0.4785470000000  0.4967800000000  0.5297580000000 1.0
C      1  0.4120710000000  0.4916370000000  0.5667480000000 1.0
C      1  0.5312150000000  0.4929350000000  0.4558810000000 1.0
C      1  0.4828910000000  0.4699380000000  0.5868470000000 1.0
C      1  0.5872970000000  0.5063320000000  0.4794000000000 1.0
C      1  0.5134350000000  0.4211580000000  0.5188460000000 1.0
C      1  0.4379010000000  0.5515520000000  0.4722550000000 1.0
C      1  0.5085030000000  0.4676580000000  0.5955850000000 1.0
C      1  0.4437210000000  0.4237950000000  0.5172500000000 1.0
C      1  0.5334400000000  0.5339610000000  0.5170630000000 1.0
C      1  0.5053180000000  0.4444950000000  0.4759840000000 1.0
C      1  0.5788170000000  0.4823690000000  0.4919710000000 1.0
C      1  0.5004400000000  0.5004980000000  0.4147850000000 1.0
C      1  0.5724750000000  0.4852490000000  0.5203830000000 1.0
C      1  0.5151160000000  0.4291000000000  0.5684460000000 1.0
C      1  0.4704540000000  0.4760390000000  0.4892620000000 1.0
END
