TITL C-599891-72-87 4.02905869278025e-06 125000 -611.080523161532 0 0 98 (C1) n - 1
REM
REM in /home/nfs/bkarasulu/CARBON/AIRSS/Generating-Clusters/TERSOFF/Only-C1/FIRE-HFTN
REM
REM
REM
REM
REM
REM ./C.cell (11c1c37f851c82e70ff6c80c92926a4b)
REM AIRSS Version 0.9.1 bugfix July 2018 build 013d7b7c2542+ Fri, 06 Jul 2018 19:26:36 +0100
REM compiler GCC version 9.2.1 20190827 (Red Hat 9.2.1-1)
REM options -cpp -mtune=generic -march=x86-64 -g -O0 -fpre-include=/usr/include/finclude/math-vector-fortran.h
REM seed 288610407 24402749 -149009478 -1379263398 -1885931743 906891143 941427332 -566916231 -866887673 1407120268 -1777279355 -643666826 129178639 -361353251 1552711769 1279325746 2134106902 -369424418 208396051 1770008177 -1631515386 1964202295 1604205732 2070312114 1463482520 -656267691 669340600 1053467897 1842046072 -923808844 1824034905 -1330169830 1578383453
REM
CELL 1.54180   50.00000   50.00000   50.00000   90.00000   90.00000   90.00000
LATT -1
SFAC C  
C      1  0.5025210000000  0.5856750000000  0.5356930000000 1.0
C      1  0.5048500000000  0.5808980000000  0.4448730000000 1.0
C      1  0.4373180000000  0.5501150000000  0.4145010000000 1.0
C      1  0.5836310000000  0.5625400000000  0.4832360000000 1.0
C      1  0.5423270000000  0.5915860000000  0.5118660000000 1.0
C      1  0.4186450000000  0.4733510000000  0.4817700000000 1.0
C      1  0.4724790000000  0.5141780000000  0.4239500000000 1.0
C      1  0.5939060000000  0.4849970000000  0.4955870000000 1.0
C      1  0.4744870000000  0.4886780000000  0.4374420000000 1.0
C      1  0.5693390000000  0.4885720000000  0.4200570000000 1.0
C      1  0.4978230000000  0.5994990000000  0.5093050000000 1.0
C      1  0.5164700000000  0.4867090000000  0.5595360000000 1.0
C      1  0.5003330000000  0.4926310000000  0.5821840000000 1.0
C      1  0.5318230000000  0.4385710000000  0.5706660000000 1.0
C      1  0.5529780000000  0.5276180000000  0.5215440000000 1.0
C      1  0.5216850000000  0.5965730000000  0.4916130000000 1.0
C      1  0.4843760000000  0.4059180000000  0.5288870000000 1.0
C      1  0.4355290000000  0.4494360000000  0.4890100000000 1.0
C      1  0.5107330000000  0.5442290000000  0.5078980000000 1.0
C      1  0.5403510000000  0.4596140000000  0.5288140000000 1.0
C      1  0.5648600000000  0.5481120000000  0.4673440000000 1.0
C      1  0.4573950000000  0.5938310000000  0.4320390000000 1.0
C      1  0.5132180000000  0.3943300000000  0.5640170000000 1.0
C      1  0.5279970000000  0.4246980000000  0.4649250000000 1.0
C      1  0.5347940000000  0.4598970000000  0.5013430000000 1.0
C      1  0.5790070000000  0.5388980000000  0.5253750000000 1.0
C      1  0.5513870000000  0.5059470000000  0.5010030000000 1.0
C      1  0.4942470000000  0.4353740000000  0.4943720000000 1.0
C      1  0.5012770000000  0.5173140000000  0.4722520000000 1.0
C      1  0.4324160000000  0.5848480000000  0.5147530000000 1.0
C      1  0.5236190000000  0.5815560000000  0.4666780000000 1.0
C      1  0.4744060000000  0.4882520000000  0.4970260000000 1.0
C      1  0.5741610000000  0.5090990000000  0.4363940000000 1.0
C      1  0.5104880000000  0.4559850000000  0.4330100000000 1.0
C      1  0.4382430000000  0.5319850000000  0.5176410000000 1.0
C      1  0.4838380000000  0.4328860000000  0.5204490000000 1.0
C      1  0.4970330000000  0.5654470000000  0.5796290000000 1.0
C      1  0.4168960000000  0.5118280000000  0.4539780000000 1.0
C      1  0.4942980000000  0.5325610000000  0.4234680000000 1.0
C      1  0.5369650000000  0.5554420000000  0.4693340000000 1.0
C      1  0.4582790000000  0.5619910000000  0.5516590000000 1.0
C      1  0.5713110000000  0.4197130000000  0.4379890000000 1.0
C      1  0.5039760000000  0.5169330000000  0.5956100000000 1.0
C      1  0.5013320000000  0.4799750000000  0.4445020000000 1.0
C      1  0.5318360000000  0.5465310000000  0.5263840000000 1.0
C      1  0.4879920000000  0.4810460000000  0.5199730000000 1.0
C      1  0.4753290000000  0.5131830000000  0.4846360000000 1.0
C      1  0.5930500000000  0.4500830000000  0.5358100000000 1.0
C      1  0.4408660000000  0.4879710000000  0.5462890000000 1.0
C      1  0.4537440000000  0.5355030000000  0.5631670000000 1.0
C      1  0.5757920000000  0.5040580000000  0.4851310000000 1.0
C      1  0.5056560000000  0.4968810000000  0.5351720000000 1.0
C      1  0.5311920000000  0.5748510000000  0.5332880000000 1.0
C      1  0.4822700000000  0.5972660000000  0.4415200000000 1.0
C      1  0.5228540000000  0.4369210000000  0.4904900000000 1.0
C      1  0.5044310000000  0.4334270000000  0.4494100000000 1.0
C      1  0.4108760000000  0.5274420000000  0.4754950000000 1.0
C      1  0.4844920000000  0.5741190000000  0.5555560000000 1.0
C      1  0.4837930000000  0.5494360000000  0.5115410000000 1.0
C      1  0.5755830000000  0.4400730000000  0.4209610000000 1.0
C      1  0.4407390000000  0.5757070000000  0.4215260000000 1.0
C      1  0.4240090000000  0.4747650000000  0.5275910000000 1.0
C      1  0.4273070000000  0.4857870000000  0.4571160000000 1.0
C      1  0.4431950000000  0.5163230000000  0.5444450000000 1.0
C      1  0.4526210000000  0.4738180000000  0.4494410000000 1.0
C      1  0.4753690000000  0.4792200000000  0.5804420000000 1.0
C      1  0.5035030000000  0.5436100000000  0.5937150000000 1.0
C      1  0.5976830000000  0.4664590000000  0.5148910000000 1.0
C      1  0.4812860000000  0.4362680000000  0.4683910000000 1.0
C      1  0.4636450000000  0.5332230000000  0.5007700000000 1.0
C      1  0.5331230000000  0.4856980000000  0.4887360000000 1.0
C      1  0.5176690000000  0.5379540000000  0.4813190000000 1.0
C      1  0.5147130000000  0.4927900000000  0.4666680000000 1.0
C      1  0.4388960000000  0.5618080000000  0.5290130000000 1.0
C      1  0.5911880000000  0.5563610000000  0.5085450000000 1.0
C      1  0.4163850000000  0.5185300000000  0.5020110000000 1.0
C      1  0.5317820000000  0.4578940000000  0.4148860000000 1.0
C      1  0.5043230000000  0.5567940000000  0.4293200000000 1.0
C      1  0.5301490000000  0.4624290000000  0.5551430000000 1.0
C      1  0.4139520000000  0.4898380000000  0.5052580000000 1.0
C      1  0.4469330000000  0.6045920000000  0.5039290000000 1.0
C      1  0.5001870000000  0.3597790000000  0.5319300000000 1.0
C      1  0.4779860000000  0.4581720000000  0.5342270000000 1.0
C      1  0.4992760000000  0.3853450000000  0.5411250000000 1.0
C      1  0.4320690000000  0.4471830000000  0.5192460000000 1.0
C      1  0.4557080000000  0.4248780000000  0.5628510000000 1.0
C      1  0.5591590000000  0.4297360000000  0.5707290000000 1.0
C      1  0.5596410000000  0.4626750000000  0.4154370000000 1.0
C      1  0.4625390000000  0.4716400000000  0.5561820000000 1.0
C      1  0.4803100000000  0.4263760000000  0.5753580000000 1.0
C      1  0.4730300000000  0.6101730000000  0.5022100000000 1.0
C      1  0.4483550000000  0.5256490000000  0.4149070000000 1.0
C      1  0.4393050000000  0.4296880000000  0.5411370000000 1.0
C      1  0.5736310000000  0.5208570000000  0.4617610000000 1.0
C      1  0.5515690000000  0.4138690000000  0.4551270000000 1.0
C      1  0.5088970000000  0.4208510000000  0.5738360000000 1.0
C      1  0.5807390000000  0.4364970000000  0.5556320000000 1.0
C      1  0.4563290000000  0.4496880000000  0.4671090000000 1.0
END
