TITL C-599890-3321-829 -133.889528038542 125000 -1243.11888579776 0 0 200 (C1) n - 1
REM
REM in /home/nfs/bkarasulu/CARBON/AIRSS/Generating-Clusters/TERSOFF/Only-C1/FIRE-HFTN
REM
REM
REM
REM
REM
REM ./C.cell (11c1c37f851c82e70ff6c80c92926a4b)
REM AIRSS Version 0.9.1 bugfix July 2018 build 013d7b7c2542+ Fri, 06 Jul 2018 19:26:36 +0100
REM compiler GCC version 9.2.1 20190827 (Red Hat 9.2.1-1)
REM options -cpp -mtune=generic -march=x86-64 -g -O0 -fpre-include=/usr/include/finclude/math-vector-fortran.h
REM seed -1404401153 -973125725 -1125710055 1452599269 -467091793 745894941 201035759 75280903 672596523 462780627 10262821 -2127970188 -1339912847 437477524 -786676316 -2063004286 -1437931993 -1514376688 417950907 65191774 -1777938291 1148143073 1553560431 -569812292 1954318933 2001729101 -63135835 -1663930427 1172935499 -183619843 1935713872 -2083456279 -261693703
REM
CELL 1.54180   50.00000   50.00000   50.00000   90.00000   90.00000   90.00000
LATT -1
SFAC C  
C      1  0.5656050000000  0.5414350000000  0.4909380000000 1.0
C      1  0.4734760000000  0.5358160000000  0.4850370000000 1.0
C      1  0.4019960000000  0.5051220000000  0.4060960000000 1.0
C      1  0.5658970000000  0.5050520000000  0.5300010000000 1.0
C      1  0.4445030000000  0.4639070000000  0.4522730000000 1.0
C      1  0.5491220000000  0.4010170000000  0.4520080000000 1.0
C      1  0.5250550000000  0.4507390000000  0.5264460000000 1.0
C      1  0.5861620000000  0.5834410000000  0.4737170000000 1.0
C      1  0.4397270000000  0.5084390000000  0.5988510000000 1.0
C      1  0.5410540000000  0.5123160000000  0.4632390000000 1.0
C      1  0.5588000000000  0.4229060000000  0.5962420000000 1.0
C      1  0.4853380000000  0.5969800000000  0.4284110000000 1.0
C      1  0.4580220000000  0.4387690000000  0.4435830000000 1.0
C      1  0.6179180000000  0.4372010000000  0.4987560000000 1.0
C      1  0.6259250000000  0.4638150000000  0.4887950000000 1.0
C      1  0.5546390000000  0.4262090000000  0.4382380000000 1.0
C      1  0.6257650000000  0.5136950000000  0.4550470000000 1.0
C      1  0.5996060000000  0.4412250000000  0.4551180000000 1.0
C      1  0.5855180000000  0.4032110000000  0.4862060000000 1.0
C      1  0.4590340000000  0.5791330000000  0.4699240000000 1.0
C      1  0.4311730000000  0.5409380000000  0.5610200000000 1.0
C      1  0.4119690000000  0.5067210000000  0.4317590000000 1.0
C      1  0.4595990000000  0.5971050000000  0.5165650000000 1.0
C      1  0.4943200000000  0.3851760000000  0.4795570000000 1.0
C      1  0.5120330000000  0.4835790000000  0.6097730000000 1.0
C      1  0.5123010000000  0.3863390000000  0.5030500000000 1.0
C      1  0.5969620000000  0.4459800000000  0.5426340000000 1.0
C      1  0.5481410000000  0.4417760000000  0.5394250000000 1.0
C      1  0.4624250000000  0.5315540000000  0.4126080000000 1.0
C      1  0.5094850000000  0.5407740000000  0.3588480000000 1.0
C      1  0.5782640000000  0.5066260000000  0.4159130000000 1.0
C      1  0.5592540000000  0.3986270000000  0.5249530000000 1.0
C      1  0.4302250000000  0.4829420000000  0.6110530000000 1.0
C      1  0.5096950000000  0.4713560000000  0.5376880000000 1.0
C      1  0.5262890000000  0.6015330000000  0.4671650000000 1.0
C      1  0.4286340000000  0.4652320000000  0.5643360000000 1.0
C      1  0.4064220000000  0.5312750000000  0.4466920000000 1.0
C      1  0.5715970000000  0.4569200000000  0.5356030000000 1.0
C      1  0.4911080000000  0.5728480000000  0.3888220000000 1.0
C      1  0.4552240000000  0.4581700000000  0.5717260000000 1.0
C      1  0.4205630000000  0.3947870000000  0.5634310000000 1.0
C      1  0.5140680000000  0.5767640000000  0.5076420000000 1.0
C      1  0.4049420000000  0.4269510000000  0.4709790000000 1.0
C      1  0.5352540000000  0.5995660000000  0.4403490000000 1.0
C      1  0.5159480000000  0.4668050000000  0.5862280000000 1.0
C      1  0.5717990000000  0.4456800000000  0.4500910000000 1.0
C      1  0.5510760000000  0.5095950000000  0.6336040000000 1.0
C      1  0.5590050000000  0.4752820000000  0.6017190000000 1.0
C      1  0.3708490000000  0.3878820000000  0.6549050000000 1.0
C      1  0.4382520000000  0.4861840000000  0.5191710000000 1.0
C      1  0.5725290000000  0.5250970000000  0.6277690000000 1.0
C      1  0.5301040000000  0.4552020000000  0.4060500000000 1.0
C      1  0.4677470000000  0.5304770000000  0.3849170000000 1.0
C      1  0.5080100000000  0.3742390000000  0.4570290000000 1.0
C      1  0.4697950000000  0.4693020000000  0.5930110000000 1.0
C      1  0.5251660000000  0.3892690000000  0.4409550000000 1.0
C      1  0.5210990000000  0.4422650000000  0.5004040000000 1.0
C      1  0.5062510000000  0.4447030000000  0.4530590000000 1.0
C      1  0.4218960000000  0.4269340000000  0.6052720000000 1.0
C      1  0.4278770000000  0.6157740000000  0.5889650000000 1.0
C      1  0.5997380000000  0.4844820000000  0.5755450000000 1.0
C      1  0.5413270000000  0.5624380000000  0.3890810000000 1.0
C      1  0.4832140000000  0.4691970000000  0.4156680000000 1.0
C      1  0.4647400000000  0.4779550000000  0.5227660000000 1.0
C      1  0.5178470000000  0.5267890000000  0.4692180000000 1.0
C      1  0.4249290000000  0.6545760000000  0.4564510000000 1.0
C      1  0.5297020000000  0.6298120000000  0.5145230000000 1.0
C      1  0.5522570000000  0.5251160000000  0.5131370000000 1.0
C      1  0.5165660000000  0.5038530000000  0.4178570000000 1.0
C      1  0.5530230000000  0.4089530000000  0.5741270000000 1.0
C      1  0.4712340000000  0.5850540000000  0.4060330000000 1.0
C      1  0.5722300000000  0.5699510000000  0.4947480000000 1.0
C      1  0.4733730000000  0.6001380000000  0.4544520000000 1.0
C      1  0.5413420000000  0.3917050000000  0.5017290000000 1.0
C      1  0.5230990000000  0.5242030000000  0.5194130000000 1.0
C      1  0.4110190000000  0.6104800000000  0.5117470000000 1.0
C      1  0.5621400000000  0.5501000000000  0.4056210000000 1.0
C      1  0.4212820000000  0.6312340000000  0.4703200000000 1.0
C      1  0.4331900000000  0.5133170000000  0.5145110000000 1.0
C      1  0.5326200000000  0.5544250000000  0.4382570000000 1.0
C      1  0.6087680000000  0.4599290000000  0.5641760000000 1.0
C      1  0.5623990000000  0.4476100000000  0.6057450000000 1.0
C      1  0.5133420000000  0.4073890000000  0.4215580000000 1.0
C      1  0.6202310000000  0.4877720000000  0.4446820000000 1.0
C      1  0.4402820000000  0.3837670000000  0.5149840000000 1.0
C      1  0.4256670000000  0.4555740000000  0.6110390000000 1.0
C      1  0.5717050000000  0.4795540000000  0.5184460000000 1.0
C      1  0.4335710000000  0.4097770000000  0.5842980000000 1.0
C      1  0.4655520000000  0.4745820000000  0.4695710000000 1.0
C      1  0.5142600000000  0.5976270000000  0.4210410000000 1.0
C      1  0.5717080000000  0.4880610000000  0.5792410000000 1.0
C      1  0.4427100000000  0.4966890000000  0.3512460000000 1.0
C      1  0.4763610000000  0.5536670000000  0.5374900000000 1.0
C      1  0.6040990000000  0.6034500000000  0.4788040000000 1.0
C      1  0.4857660000000  0.5356730000000  0.5855370000000 1.0
C      1  0.4840810000000  0.4084580000000  0.4190430000000 1.0
C      1  0.4753510000000  0.4251210000000  0.3963080000000 1.0
C      1  0.4689690000000  0.4509240000000  0.5135860000000 1.0
C      1  0.5346930000000  0.4833490000000  0.4064770000000 1.0
C      1  0.5174990000000  0.4808600000000  0.5624200000000 1.0
C      1  0.3800570000000  0.5334460000000  0.5175820000000 1.0
C      1  0.5020600000000  0.3790900000000  0.5283630000000 1.0
C      1  0.6032810000000  0.5595620000000  0.4373060000000 1.0
C      1  0.4614290000000  0.4116130000000  0.5773230000000 1.0
C      1  0.5863920000000  0.4050730000000  0.5157490000000 1.0
C      1  0.4677070000000  0.3969150000000  0.4721320000000 1.0
C      1  0.4935240000000  0.5145370000000  0.4790030000000 1.0
C      1  0.5710870000000  0.5313750000000  0.4269210000000 1.0
C      1  0.4302610000000  0.5913810000000  0.5800890000000 1.0
C      1  0.6357470000000  0.4968350000000  0.5274270000000 1.0
C      1  0.4073650000000  0.5598000000000  0.4387700000000 1.0
C      1  0.4042300000000  0.4136800000000  0.6228360000000 1.0
C      1  0.4162200000000  0.5837740000000  0.5025860000000 1.0
C      1  0.5181140000000  0.5774570000000  0.4802090000000 1.0
C      1  0.4006880000000  0.5802800000000  0.4587430000000 1.0
C      1  0.3875500000000  0.4008110000000  0.6388890000000 1.0
C      1  0.4702470000000  0.5815710000000  0.5374900000000 1.0
C      1  0.3544220000000  0.3751660000000  0.6706560000000 1.0
C      1  0.6170160000000  0.4641300000000  0.4598980000000 1.0
C      1  0.4693870000000  0.5148130000000  0.5987330000000 1.0
C      1  0.4911230000000  0.5382240000000  0.5568630000000 1.0
C      1  0.5795860000000  0.5391980000000  0.6040410000000 1.0
C      1  0.4331940000000  0.5673400000000  0.5693170000000 1.0
C      1  0.4656850000000  0.4099350000000  0.4445000000000 1.0
C      1  0.5236030000000  0.5315770000000  0.4218370000000 1.0
C      1  0.4237580000000  0.5308950000000  0.5348070000000 1.0
C      1  0.4189020000000  0.4664650000000  0.5103000000000 1.0
C      1  0.4276000000000  0.3848520000000  0.5390300000000 1.0
C      1  0.4842450000000  0.4906810000000  0.6060570000000 1.0
C      1  0.4764000000000  0.4527250000000  0.3930360000000 1.0
C      1  0.6332010000000  0.4895500000000  0.5003130000000 1.0
C      1  0.4040280000000  0.5275880000000  0.4748530000000 1.0
C      1  0.6019100000000  0.5308100000000  0.5881490000000 1.0
C      1  0.5614500000000  0.4667430000000  0.4663440000000 1.0
C      1  0.4542590000000  0.5128180000000  0.3681470000000 1.0
C      1  0.4053270000000  0.4789380000000  0.5629520000000 1.0
C      1  0.5188710000000  0.5801390000000  0.3975160000000 1.0
C      1  0.5502950000000  0.6125840000000  0.5174740000000 1.0
C      1  0.4831330000000  0.4949750000000  0.4584980000000 1.0
C      1  0.5531670000000  0.5766540000000  0.4383420000000 1.0
C      1  0.5301600000000  0.5063130000000  0.5620680000000 1.0
C      1  0.5587270000000  0.3958790000000  0.4779560000000 1.0
C      1  0.4259700000000  0.4833000000000  0.4419150000000 1.0
C      1  0.4446970000000  0.3986730000000  0.4908070000000 1.0
C      1  0.5616930000000  0.4903550000000  0.4026650000000 1.0
C      1  0.5163270000000  0.5266930000000  0.5477020000000 1.0
C      1  0.6052610000000  0.4268890000000  0.5232010000000 1.0
C      1  0.4566800000000  0.6249940000000  0.5082190000000 1.0
C      1  0.3910810000000  0.4504930000000  0.4736230000000 1.0
C      1  0.4215630000000  0.5692800000000  0.4161890000000 1.0
C      1  0.5626310000000  0.5886880000000  0.5139630000000 1.0
C      1  0.6191330000000  0.5383200000000  0.4428900000000 1.0
C      1  0.4912660000000  0.4878490000000  0.5235490000000 1.0
C      1  0.3971500000000  0.5711210000000  0.4860910000000 1.0
C      1  0.3952190000000  0.5228750000000  0.5396670000000 1.0
C      1  0.4789910000000  0.3900850000000  0.5735150000000 1.0
C      1  0.4715660000000  0.4321840000000  0.5338330000000 1.0
C      1  0.5810270000000  0.5748180000000  0.4471020000000 1.0
C      1  0.6345340000000  0.5114800000000  0.4818790000000 1.0
C      1  0.5583050000000  0.5035940000000  0.5585540000000 1.0
C      1  0.4800040000000  0.6337950000000  0.4942460000000 1.0
C      1  0.4772260000000  0.4545580000000  0.4871920000000 1.0
C      1  0.4621410000000  0.5407110000000  0.4377110000000 1.0
C      1  0.5187180000000  0.5790150000000  0.5332880000000 1.0
C      1  0.4435320000000  0.5807150000000  0.4058310000000 1.0
C      1  0.5391560000000  0.4895020000000  0.6179660000000 1.0
C      1  0.5643980000000  0.5292810000000  0.4626500000000 1.0
C      1  0.4931500000000  0.3793150000000  0.5534930000000 1.0
C      1  0.5058380000000  0.5496430000000  0.6003730000000 1.0
C      1  0.3998900000000  0.5068200000000  0.5644890000000 1.0
C      1  0.5507120000000  0.4144080000000  0.5468120000000 1.0
C      1  0.4844640000000  0.4497950000000  0.4364230000000 1.0
C      1  0.5031620000000  0.5070300000000  0.5067420000000 1.0
C      1  0.6135320000000  0.5094650000000  0.5728860000000 1.0
C      1  0.3971730000000  0.4699820000000  0.4919770000000 1.0
C      1  0.5348710000000  0.5483180000000  0.3649940000000 1.0
C      1  0.5331690000000  0.4298510000000  0.4181610000000 1.0
C      1  0.4257660000000  0.4387380000000  0.5113120000000 1.0
C      1  0.3881600000000  0.5445070000000  0.4919720000000 1.0
C      1  0.4090130000000  0.6081330000000  0.4575430000000 1.0
C      1  0.5725020000000  0.4733650000000  0.4913040000000 1.0
C      1  0.5314410000000  0.5579330000000  0.5987810000000 1.0
C      1  0.4708480000000  0.5419170000000  0.5123710000000 1.0
C      1  0.4287690000000  0.6292010000000  0.4985820000000 1.0
C      1  0.5050570000000  0.6377320000000  0.5069540000000 1.0
C      1  0.5580770000000  0.5555480000000  0.5952290000000 1.0
C      1  0.4266350000000  0.5182540000000  0.4879590000000 1.0
C      1  0.4922980000000  0.4931800000000  0.4294560000000 1.0
C      1  0.6045310000000  0.4220900000000  0.4761420000000 1.0
C      1  0.4641480000000  0.5517340000000  0.4634220000000 1.0
C      1  0.4659410000000  0.4342460000000  0.5611070000000 1.0
C      1  0.5427950000000  0.4852840000000  0.4579560000000 1.0
C      1  0.5193020000000  0.5542450000000  0.4639620000000 1.0
C      1  0.4219580000000  0.5206680000000  0.5798610000000 1.0
C      1  0.5028360000000  0.4451990000000  0.4802840000000 1.0
C      1  0.6304950000000  0.5099500000000  0.5503440000000 1.0
C      1  0.4448810000000  0.5824340000000  0.4956820000000 1.0
C      1  0.4794800000000  0.6246370000000  0.4675110000000 1.0
C      1  0.4873130000000  0.5483880000000  0.3747330000000 1.0
C      1  0.4257130000000  0.4202630000000  0.4892730000000 1.0
END
