TITL C-599893-4344-1250 0.131686033559164 125000 -254.878214230128 0 0 43 (C1) n - 1
REM
REM in /home/nfs/bkarasulu/CARBON/AIRSS/Generating-Clusters/TERSOFF/Only-C1/FIRE-HFTN
REM
REM
REM
REM
REM
REM ./C.cell (11c1c37f851c82e70ff6c80c92926a4b)
REM AIRSS Version 0.9.1 bugfix July 2018 build 013d7b7c2542+ Fri, 06 Jul 2018 19:26:36 +0100
REM compiler GCC version 9.2.1 20190827 (Red Hat 9.2.1-1)
REM options -cpp -mtune=generic -march=x86-64 -g -O0 -fpre-include=/usr/include/finclude/math-vector-fortran.h
REM seed 2056320143 150622435 253003593 -156240251 853462350 790224284 -1492932117 -1240166825 1372354570 2068128160 1316549093 571297536 -1550266191 -1328813421 -925815639 39809363 -254839673 -93868947 -1167224309 577311090 1450943821 44799380 347293775 -1981868139 -1194346428 795139450 384084515 1847542530 708047263 -1883874874 -1706419465 118267560 1519402950
REM
CELL 1.54180   50.00000   50.00000   50.00000   90.00000   90.00000   90.00000
LATT -1
SFAC C  
C      1  0.4676700000000  0.5141000000000  0.6183340000000 1.0
C      1  0.4449190000000  0.5236910000000  0.6085580000000 1.0
C      1  0.5760810000000  0.5247910000000  0.5397710000000 1.0
C      1  0.5363690000000  0.5474030000000  0.4313160000000 1.0
C      1  0.4795360000000  0.4832080000000  0.4757200000000 1.0
C      1  0.5449860000000  0.4993580000000  0.4256920000000 1.0
C      1  0.5494580000000  0.4944870000000  0.5734010000000 1.0
C      1  0.5278610000000  0.5923040000000  0.3893550000000 1.0
C      1  0.4029290000000  0.3573980000000  0.4877780000000 1.0
C      1  0.4522320000000  0.4180210000000  0.5023870000000 1.0
C      1  0.4711040000000  0.4607420000000  0.4895150000000 1.0
C      1  0.5024650000000  0.4845260000000  0.4581490000000 1.0
C      1  0.5746500000000  0.5692330000000  0.4748770000000 1.0
C      1  0.4855200000000  0.5272420000000  0.4632000000000 1.0
C      1  0.5593600000000  0.6158490000000  0.4206150000000 1.0
C      1  0.4696330000000  0.4392700000000  0.5073330000000 1.0
C      1  0.5658600000000  0.5826500000000  0.4524080000000 1.0
C      1  0.5121340000000  0.4913780000000  0.6042360000000 1.0
C      1  0.4193980000000  0.5316730000000  0.5640820000000 1.0
C      1  0.4358030000000  0.3978210000000  0.4975210000000 1.0
C      1  0.4278190000000  0.5298140000000  0.5891890000000 1.0
C      1  0.5657990000000  0.5092310000000  0.5586200000000 1.0
C      1  0.4683470000000  0.5099240000000  0.4785820000000 1.0
C      1  0.4858220000000  0.4392660000000  0.5301220000000 1.0
C      1  0.5433530000000  0.5935770000000  0.4115480000000 1.0
C      1  0.4302360000000  0.5242990000000  0.5135190000000 1.0
C      1  0.4915850000000  0.5026870000000  0.6166550000000 1.0
C      1  0.4193680000000  0.3776120000000  0.4926510000000 1.0
C      1  0.5476110000000  0.5727210000000  0.4316920000000 1.0
C      1  0.5264490000000  0.4814380000000  0.5823750000000 1.0
C      1  0.5070150000000  0.5128790000000  0.4507240000000 1.0
C      1  0.4465270000000  0.5174480000000  0.4937590000000 1.0
C      1  0.4205320000000  0.5294980000000  0.5376570000000 1.0
C      1  0.5156300000000  0.4375290000000  0.4533020000000 1.0
C      1  0.5723510000000  0.6095550000000  0.4441690000000 1.0
C      1  0.5804400000000  0.5402380000000  0.5186670000000 1.0
C      1  0.5192520000000  0.4640040000000  0.4480060000000 1.0
C      1  0.5160120000000  0.4600370000000  0.5677050000000 1.0
C      1  0.5403580000000  0.4733830000000  0.4316080000000 1.0
C      1  0.5796220000000  0.5551060000000  0.4967340000000 1.0
C      1  0.5293430000000  0.5208640000000  0.4353880000000 1.0
C      1  0.5018000000000  0.4462280000000  0.5500930000000 1.0
C      1  0.3867610000000  0.3375170000000  0.4829860000000 1.0
END
