TITL C-599893-4344-1360 2.14439205570257 125000 -317.28167387411 0 0 54 (C1) n - 1
REM
REM in /home/nfs/bkarasulu/CARBON/AIRSS/Generating-Clusters/TERSOFF/Only-C1/FIRE-HFTN
REM
REM
REM
REM
REM
REM ./C.cell (11c1c37f851c82e70ff6c80c92926a4b)
REM AIRSS Version 0.9.1 bugfix July 2018 build 013d7b7c2542+ Fri, 06 Jul 2018 19:26:36 +0100
REM compiler GCC version 9.2.1 20190827 (Red Hat 9.2.1-1)
REM options -cpp -mtune=generic -march=x86-64 -g -O0 -fpre-include=/usr/include/finclude/math-vector-fortran.h
REM seed 1147817164 -1985691236 -1892952069 468545721 1115007604 936816351 1944609437 -1166887531 -1689667474 902349329 -1113688963 -907778090 1340248473 -2019969207 -116059706 -1308320271 1187526421 -714655554 1721186736 1711854855 1352791080 -1670835366 -95037901 1780257974 -253931945 -2129674402 -788455851 -1880430516 7905844 -377315809 601018400 647141833 -161866168
REM
CELL 1.54180   50.00000   50.00000   50.00000   90.00000   90.00000   90.00000
LATT -1
SFAC C  
C      1  0.4091130000000  0.4956470000000  0.5061190000000 1.0
C      1  0.5697550000000  0.4837960000000  0.4853600000000 1.0
C      1  0.4654080000000  0.4333950000000  0.5136110000000 1.0
C      1  0.4210040000000  0.5106680000000  0.4843080000000 1.0
C      1  0.5210810000000  0.4868940000000  0.4420200000000 1.0
C      1  0.5736480000000  0.4893780000000  0.5574520000000 1.0
C      1  0.4563000000000  0.5507010000000  0.4992840000000 1.0
C      1  0.5311600000000  0.5324990000000  0.4485650000000 1.0
C      1  0.4744060000000  0.5294860000000  0.4344160000000 1.0
C      1  0.5014310000000  0.4454390000000  0.5421980000000 1.0
C      1  0.4320000000000  0.4969450000000  0.4615000000000 1.0
C      1  0.4561740000000  0.4590510000000  0.5556800000000 1.0
C      1  0.5525940000000  0.5304610000000  0.5024910000000 1.0
C      1  0.5151130000000  0.5826980000000  0.4992910000000 1.0
C      1  0.5069360000000  0.5565230000000  0.4966070000000 1.0
C      1  0.4249220000000  0.4837740000000  0.5266890000000 1.0
C      1  0.4732090000000  0.4408430000000  0.5401600000000 1.0
C      1  0.4338950000000  0.5353360000000  0.4908010000000 1.0
C      1  0.5023490000000  0.5046890000000  0.4827850000000 1.0
C      1  0.5347150000000  0.4453050000000  0.4800320000000 1.0
C      1  0.4836300000000  0.4485060000000  0.4663460000000 1.0
C      1  0.5105170000000  0.5104160000000  0.5098860000000 1.0
C      1  0.5772250000000  0.4826960000000  0.5828420000000 1.0
C      1  0.5198420000000  0.5092100000000  0.4605230000000 1.0
C      1  0.4807560000000  0.5514270000000  0.4838390000000 1.0
C      1  0.4519110000000  0.4901810000000  0.5197420000000 1.0
C      1  0.5158270000000  0.4671340000000  0.5342920000000 1.0
C      1  0.4773530000000  0.5454790000000  0.4560790000000 1.0
C      1  0.4589040000000  0.4892230000000  0.4574970000000 1.0
C      1  0.5625160000000  0.5031710000000  0.5057360000000 1.0
C      1  0.4565840000000  0.5879900000000  0.5704650000000 1.0
C      1  0.4547420000000  0.5649330000000  0.5232730000000 1.0
C      1  0.4287010000000  0.4643580000000  0.5475110000000 1.0
C      1  0.5683290000000  0.4955540000000  0.5322520000000 1.0
C      1  0.4884100000000  0.4993450000000  0.5543480000000 1.0
C      1  0.5698340000000  0.5507930000000  0.4962140000000 1.0
C      1  0.5295670000000  0.5372820000000  0.4216700000000 1.0
C      1  0.5070610000000  0.4943220000000  0.5331830000000 1.0
C      1  0.5451490000000  0.4729820000000  0.4445600000000 1.0
C      1  0.4671220000000  0.4786710000000  0.5000110000000 1.0
C      1  0.4759060000000  0.4963510000000  0.4800560000000 1.0
C      1  0.4553740000000  0.5767060000000  0.5469970000000 1.0
C      1  0.5101830000000  0.4388200000000  0.4702650000000 1.0
C      1  0.5837190000000  0.4692460000000  0.6332520000000 1.0
C      1  0.4703550000000  0.4821970000000  0.5656470000000 1.0
C      1  0.5113550000000  0.5246530000000  0.4055210000000 1.0
C      1  0.4692600000000  0.4512570000000  0.4919720000000 1.0
C      1  0.5965500000000  0.4827470000000  0.4787020000000 1.0
C      1  0.4956120000000  0.4840460000000  0.4289430000000 1.0
C      1  0.5805010000000  0.4759160000000  0.6082560000000 1.0
C      1  0.5243680000000  0.5352070000000  0.5067230000000 1.0
C      1  0.4760580000000  0.4689700000000  0.4449830000000 1.0
C      1  0.5524680000000  0.4656060000000  0.4712070000000 1.0
C      1  0.4890980000000  0.5110750000000  0.4178340000000 1.0
END
