TITL C-599893-4344-1352 1.58175720810236e-05 125000 -623.377880737626 0 0 102 (C1) n - 1
REM
REM in /home/nfs/bkarasulu/CARBON/AIRSS/Generating-Clusters/TERSOFF/Only-C1/FIRE-HFTN
REM
REM
REM
REM
REM
REM ./C.cell (11c1c37f851c82e70ff6c80c92926a4b)
REM AIRSS Version 0.9.1 bugfix July 2018 build 013d7b7c2542+ Fri, 06 Jul 2018 19:26:36 +0100
REM compiler GCC version 9.2.1 20190827 (Red Hat 9.2.1-1)
REM options -cpp -mtune=generic -march=x86-64 -g -O0 -fpre-include=/usr/include/finclude/math-vector-fortran.h
REM seed 1727771234 1184420235 -1073025309 987415984 1002473681 714448447 -1198240593 -1555110426 1092842366 945075608 -723621272 -486682065 1526632597 -1562881847 -395401996 -29810589 180595785 -277223761 -606341182 419990433 -1055678798 -1025909330 1936391331 -593420690 -1338453066 1514881187 -73652434 1686993105 -1519377110 1368890536 1871052112 1928096334 -1308157054
REM
CELL 1.54180   50.00000   50.00000   50.00000   90.00000   90.00000   90.00000
LATT -1
SFAC C  
C      1  0.5911770000000  0.5179590000000  0.5608050000000 1.0
C      1  0.5336430000000  0.4553700000000  0.4014790000000 1.0
C      1  0.4724600000000  0.4526180000000  0.5465850000000 1.0
C      1  0.4959130000000  0.4517560000000  0.4310300000000 1.0
C      1  0.4574360000000  0.5006720000000  0.4360310000000 1.0
C      1  0.4293360000000  0.4253900000000  0.4525340000000 1.0
C      1  0.4738460000000  0.4367480000000  0.4379240000000 1.0
C      1  0.4960030000000  0.5696680000000  0.5595840000000 1.0
C      1  0.5812190000000  0.4744620000000  0.4533820000000 1.0
C      1  0.5047230000000  0.4582230000000  0.4049690000000 1.0
C      1  0.4981890000000  0.4608120000000  0.5359880000000 1.0
C      1  0.5701760000000  0.5186040000000  0.4017710000000 1.0
C      1  0.5234530000000  0.6142540000000  0.4841380000000 1.0
C      1  0.4728480000000  0.5176750000000  0.5912370000000 1.0
C      1  0.4548800000000  0.5015040000000  0.4888330000000 1.0
C      1  0.4773820000000  0.5380280000000  0.4617150000000 1.0
C      1  0.5516940000000  0.4112050000000  0.5143600000000 1.0
C      1  0.5267760000000  0.5257650000000  0.3824510000000 1.0
C      1  0.4740040000000  0.6114510000000  0.5726210000000 1.0
C      1  0.5223760000000  0.5879110000000  0.4911380000000 1.0
C      1  0.5810320000000  0.5413870000000  0.4699370000000 1.0
C      1  0.4265080000000  0.5706520000000  0.5060510000000 1.0
C      1  0.4584530000000  0.4612520000000  0.5693820000000 1.0
C      1  0.5488290000000  0.4731630000000  0.5519550000000 1.0
C      1  0.4450180000000  0.5680500000000  0.5287370000000 1.0
C      1  0.4750250000000  0.4973740000000  0.4132230000000 1.0
C      1  0.5688280000000  0.4638500000000  0.4772830000000 1.0
C      1  0.5746650000000  0.5203150000000  0.4889270000000 1.0
C      1  0.4240460000000  0.4657570000000  0.5083010000000 1.0
C      1  0.4105100000000  0.5029470000000  0.5341820000000 1.0
C      1  0.4950340000000  0.5404930000000  0.5597330000000 1.0
C      1  0.4405170000000  0.5550280000000  0.5795930000000 1.0
C      1  0.5528520000000  0.4488140000000  0.4224780000000 1.0
C      1  0.4604300000000  0.5608180000000  0.4663300000000 1.0
C      1  0.4707920000000  0.4322960000000  0.5030390000000 1.0
C      1  0.5129880000000  0.4378880000000  0.5249810000000 1.0
C      1  0.5485220000000  0.4052930000000  0.4446390000000 1.0
C      1  0.4486460000000  0.5720290000000  0.5574090000000 1.0
C      1  0.5093880000000  0.3984040000000  0.4971210000000 1.0
C      1  0.4081550000000  0.5486710000000  0.5074220000000 1.0
C      1  0.5171700000000  0.5198570000000  0.4391290000000 1.0
C      1  0.5501710000000  0.5304390000000  0.4995150000000 1.0
C      1  0.4966610000000  0.5048560000000  0.6026340000000 1.0
C      1  0.5354700000000  0.5522980000000  0.5417700000000 1.0
C      1  0.4968090000000  0.4217730000000  0.5067140000000 1.0
C      1  0.5228490000000  0.5011870000000  0.5892030000000 1.0
C      1  0.5828260000000  0.4996150000000  0.5078940000000 1.0
C      1  0.4369070000000  0.4775270000000  0.5715120000000 1.0
C      1  0.5059380000000  0.4848950000000  0.5211100000000 1.0
C      1  0.5311290000000  0.4800340000000  0.5714750000000 1.0
C      1  0.5658620000000  0.4908790000000  0.4052780000000 1.0
C      1  0.4182250000000  0.5238750000000  0.5160580000000 1.0
C      1  0.5193320000000  0.4986260000000  0.3855240000000 1.0
C      1  0.5512600000000  0.5348140000000  0.3905520000000 1.0
C      1  0.4515630000000  0.5367170000000  0.5973770000000 1.0
C      1  0.5685360000000  0.5219240000000  0.5776150000000 1.0
C      1  0.5546850000000  0.5464210000000  0.5228570000000 1.0
C      1  0.4016090000000  0.4791440000000  0.5220330000000 1.0
C      1  0.3878900000000  0.4580140000000  0.5362500000000 1.0
C      1  0.4292270000000  0.4410440000000  0.5246330000000 1.0
C      1  0.5639260000000  0.5633050000000  0.4666560000000 1.0
C      1  0.5459720000000  0.4479420000000  0.4698760000000 1.0
C      1  0.4315830000000  0.4986370000000  0.5537460000000 1.0
C      1  0.5051340000000  0.5320890000000  0.5040720000000 1.0
C      1  0.6158570000000  0.5245600000000  0.5709570000000 1.0
C      1  0.4893860000000  0.5550610000000  0.5094910000000 1.0
C      1  0.5180010000000  0.4934090000000  0.4400970000000 1.0
C      1  0.4511140000000  0.5209370000000  0.5145270000000 1.0
C      1  0.4045360000000  0.4359760000000  0.5384440000000 1.0
C      1  0.5451280000000  0.5192700000000  0.5910390000000 1.0
C      1  0.4636310000000  0.5122650000000  0.4622810000000 1.0
C      1  0.4406250000000  0.5730760000000  0.4807080000000 1.0
C      1  0.5357070000000  0.3931750000000  0.5016890000000 1.0
C      1  0.5711090000000  0.4732480000000  0.5046680000000 1.0
C      1  0.5901810000000  0.5077090000000  0.5342680000000 1.0
C      1  0.4944670000000  0.4950440000000  0.6283710000000 1.0
C      1  0.5066210000000  0.5784630000000  0.5133520000000 1.0
C      1  0.4559250000000  0.5111980000000  0.5439490000000 1.0
C      1  0.4598740000000  0.4490020000000  0.4820240000000 1.0
C      1  0.5418540000000  0.4362110000000  0.5233110000000 1.0
C      1  0.5089570000000  0.4686530000000  0.4495800000000 1.0
C      1  0.5715340000000  0.4718770000000  0.4264990000000 1.0
C      1  0.5173540000000  0.5756050000000  0.5402120000000 1.0
C      1  0.5366730000000  0.5674460000000  0.4767410000000 1.0
C      1  0.5209600000000  0.4609530000000  0.4734970000000 1.0
C      1  0.5104390000000  0.5127070000000  0.5251350000000 1.0
C      1  0.5424730000000  0.4810580000000  0.3902250000000 1.0
C      1  0.4956570000000  0.4856120000000  0.3968350000000 1.0
C      1  0.5140210000000  0.4766140000000  0.4952720000000 1.0
C      1  0.4732260000000  0.5857490000000  0.5636780000000 1.0
C      1  0.5065540000000  0.5362090000000  0.4589260000000 1.0
C      1  0.5254030000000  0.5391690000000  0.4833230000000 1.0
C      1  0.4569030000000  0.4367510000000  0.5278510000000 1.0
C      1  0.4536990000000  0.4368080000000  0.4571670000000 1.0
C      1  0.5180060000000  0.5295610000000  0.5471990000000 1.0
C      1  0.4747950000000  0.5212160000000  0.5626740000000 1.0
C      1  0.4306620000000  0.4929670000000  0.4320700000000 1.0
C      1  0.4054480000000  0.4867060000000  0.4300420000000 1.0
C      1  0.5489440000000  0.4325000000000  0.4456120000000 1.0
C      1  0.4634470000000  0.5488740000000  0.5171030000000 1.0
C      1  0.5564030000000  0.4606300000000  0.5272300000000 1.0
C      1  0.4459180000000  0.4732580000000  0.4911710000000 1.0
END
