TITL C-599893-4344-1495 -0.149226370305272 125000 -425.487834073384 0 0 71 (C1) n - 1
REM
REM in /home/nfs/bkarasulu/CARBON/AIRSS/Generating-Clusters/TERSOFF/Only-C1/FIRE-HFTN
REM
REM
REM
REM
REM
REM ./C.cell (11c1c37f851c82e70ff6c80c92926a4b)
REM AIRSS Version 0.9.1 bugfix July 2018 build 013d7b7c2542+ Fri, 06 Jul 2018 19:26:36 +0100
REM compiler GCC version 9.2.1 20190827 (Red Hat 9.2.1-1)
REM options -cpp -mtune=generic -march=x86-64 -g -O0 -fpre-include=/usr/include/finclude/math-vector-fortran.h
REM seed 1165386155 -741658171 -1135648650 1343935825 946047553 1051360377 -1584211287 -2093726752 411937462 -423910724 1820428257 -69544418 -213022870 1601940057 985524937 2067349777 295276060 -634175811 4003121 1557605132 -573744533 -232612623 -1613787274 930386890 -77371945 2100740227 1597811351 -738323329 -829647063 -1050401512 -383265476 1945562307 -1162127469
REM
CELL 1.54180   50.00000   50.00000   50.00000   90.00000   90.00000   90.00000
LATT -1
SFAC C  
C      1  0.4493740000000  0.5564470000000  0.4627660000000 1.0
C      1  0.4684190000000  0.4714570000000  0.5497280000000 1.0
C      1  0.5685530000000  0.5247350000000  0.5555850000000 1.0
C      1  0.5272410000000  0.4566180000000  0.4116250000000 1.0
C      1  0.4167490000000  0.4584040000000  0.5041530000000 1.0
C      1  0.4946780000000  0.5773960000000  0.4451210000000 1.0
C      1  0.5374230000000  0.5058090000000  0.4846790000000 1.0
C      1  0.5397990000000  0.5619660000000  0.5294240000000 1.0
C      1  0.4158590000000  0.4322540000000  0.4441320000000 1.0
C      1  0.4655720000000  0.4941060000000  0.4184200000000 1.0
C      1  0.4627920000000  0.4369800000000  0.4588450000000 1.0
C      1  0.4487270000000  0.5829260000000  0.5342190000000 1.0
C      1  0.5144040000000  0.4942560000000  0.4978600000000 1.0
C      1  0.4398010000000  0.5301830000000  0.4704850000000 1.0
C      1  0.4672390000000  0.4837890000000  0.6172770000000 1.0
C      1  0.5572690000000  0.5460100000000  0.5443780000000 1.0
C      1  0.4899360000000  0.5436000000000  0.5173410000000 1.0
C      1  0.5239980000000  0.5033800000000  0.5796820000000 1.0
C      1  0.5884850000000  0.5100570000000  0.4989710000000 1.0
C      1  0.4947800000000  0.5067870000000  0.5742140000000 1.0
C      1  0.5653970000000  0.4850220000000  0.4345370000000 1.0
C      1  0.4437320000000  0.5762160000000  0.4828760000000 1.0
C      1  0.3993670000000  0.4461980000000  0.4603310000000 1.0
C      1  0.5393360000000  0.4964860000000  0.4362000000000 1.0
C      1  0.4780480000000  0.4461260000000  0.5576340000000 1.0
C      1  0.5072400000000  0.4935010000000  0.5256070000000 1.0
C      1  0.4426220000000  0.4293040000000  0.4425710000000 1.0
C      1  0.4588460000000  0.5768240000000  0.5583650000000 1.0
C      1  0.4866440000000  0.5067930000000  0.4607140000000 1.0
C      1  0.6044930000000  0.4649540000000  0.5397130000000 1.0
C      1  0.4920090000000  0.4900200000000  0.4154200000000 1.0
C      1  0.5718220000000  0.4577130000000  0.4302330000000 1.0
C      1  0.4406860000000  0.4752350000000  0.5452410000000 1.0
C      1  0.4190520000000  0.4711710000000  0.5293670000000 1.0
C      1  0.5463990000000  0.4868400000000  0.5756370000000 1.0
C      1  0.5351390000000  0.5154820000000  0.4572060000000 1.0
C      1  0.5920110000000  0.4453370000000  0.4447660000000 1.0
C      1  0.4499630000000  0.5694580000000  0.5097320000000 1.0
C      1  0.6117860000000  0.4515750000000  0.5179510000000 1.0
C      1  0.5906500000000  0.4813060000000  0.5554150000000 1.0
C      1  0.5512530000000  0.4445990000000  0.4157940000000 1.0
C      1  0.4889850000000  0.4918950000000  0.5478560000000 1.0
C      1  0.4100360000000  0.4921150000000  0.4675910000000 1.0
C      1  0.5204920000000  0.5670550000000  0.4461630000000 1.0
C      1  0.4868720000000  0.5355670000000  0.5730390000000 1.0
C      1  0.5542370000000  0.6114390000000  0.5133730000000 1.0
C      1  0.4288670000000  0.5090530000000  0.4547450000000 1.0
C      1  0.5426360000000  0.4592010000000  0.5788310000000 1.0
C      1  0.4999500000000  0.4343530000000  0.5674490000000 1.0
C      1  0.5695160000000  0.4977970000000  0.5633260000000 1.0
C      1  0.5186900000000  0.4823620000000  0.4207720000000 1.0
C      1  0.6056140000000  0.4407710000000  0.4671400000000 1.0
C      1  0.4732760000000  0.5584340000000  0.5713580000000 1.0
C      1  0.4914450000000  0.5327550000000  0.4524900000000 1.0
C      1  0.5248760000000  0.4395220000000  0.5755600000000 1.0
C      1  0.4626670000000  0.5434750000000  0.5110500000000 1.0
C      1  0.4530270000000  0.4951540000000  0.5016170000000 1.0
C      1  0.5146270000000  0.5521980000000  0.5220360000000 1.0
C      1  0.4610390000000  0.4490000000000  0.4843390000000 1.0
C      1  0.4793980000000  0.4941170000000  0.5966890000000 1.0
C      1  0.4748940000000  0.5568210000000  0.4503620000000 1.0
C      1  0.4699680000000  0.4751620000000  0.4904240000000 1.0
C      1  0.4386890000000  0.4405930000000  0.4996610000000 1.0
C      1  0.4044400000000  0.4668680000000  0.4792730000000 1.0
C      1  0.5201540000000  0.5387720000000  0.4513920000000 1.0
C      1  0.4495060000000  0.5225690000000  0.4968140000000 1.0
C      1  0.6122420000000  0.4431490000000  0.4927600000000 1.0
C      1  0.5628050000000  0.5064050000000  0.4962710000000 1.0
C      1  0.4430560000000  0.5007360000000  0.4316020000000 1.0
C      1  0.5475600000000  0.5876330000000  0.5216100000000 1.0
C      1  0.4928460000000  0.4877100000000  0.4801890000000 1.0
END
