TITL C-599896-8500-93 0.278294890771076 125000 -515.082187066932 0 0 86 (C1) n - 1
REM
REM in /home/nfs/bkarasulu/CARBON/AIRSS/Generating-Clusters/TERSOFF/Only-C1/FIRE-HFTN
REM
REM
REM
REM
REM
REM ./C.cell (11c1c37f851c82e70ff6c80c92926a4b)
REM AIRSS Version 0.9.1 bugfix July 2018 build 013d7b7c2542+ Fri, 06 Jul 2018 19:26:36 +0100
REM compiler GCC version 9.2.1 20190827 (Red Hat 9.2.1-1)
REM options -cpp -mtune=generic -march=x86-64 -g -O0 -fpre-include=/usr/include/finclude/math-vector-fortran.h
REM seed 1153325648 1475571198 -783721980 -989416347 24752563 -321990348 1119333674 1989336870 198824959 2084669966 1939192977 -1236185174 1327760625 83261796 71356086 1857780752 -749311439 -827653767 -1609882983 1810223542 6432205 188187228 1562801102 -665370415 -356596093 1975943511 -1412550440 533726338 -354567527 1107507914 2087288978 -667124873 -731536895
REM
CELL 1.54180   50.00000   50.00000   50.00000   90.00000   90.00000   90.00000
LATT -1
SFAC C  
C      1  0.4690920000000  0.5295790000000  0.4484580000000 1.0
C      1  0.6210850000000  0.5644340000000  0.5384130000000 1.0
C      1  0.5948400000000  0.4274090000000  0.5622110000000 1.0
C      1  0.4084210000000  0.5140700000000  0.4695500000000 1.0
C      1  0.6132110000000  0.4750670000000  0.5448000000000 1.0
C      1  0.6457940000000  0.5727380000000  0.5387760000000 1.0
C      1  0.4776520000000  0.5205160000000  0.4228860000000 1.0
C      1  0.4695990000000  0.6943520000000  0.4771940000000 1.0
C      1  0.5457210000000  0.4589630000000  0.4763380000000 1.0
C      1  0.4243580000000  0.4927690000000  0.4799970000000 1.0
C      1  0.5341170000000  0.4492240000000  0.5844540000000 1.0
C      1  0.4497370000000  0.5069580000000  0.5395320000000 1.0
C      1  0.5198320000000  0.4399140000000  0.4414090000000 1.0
C      1  0.5075010000000  0.4410170000000  0.5783020000000 1.0
C      1  0.4187360000000  0.5512680000000  0.5348090000000 1.0
C      1  0.5169110000000  0.5101780000000  0.5010030000000 1.0
C      1  0.4217700000000  0.4843160000000  0.5075430000000 1.0
C      1  0.5227950000000  0.4615910000000  0.4595920000000 1.0
C      1  0.5624450000000  0.4792440000000  0.4856820000000 1.0
C      1  0.5047930000000  0.4162510000000  0.4451490000000 1.0
C      1  0.6515050000000  0.5058210000000  0.5672070000000 1.0
C      1  0.5544830000000  0.3962510000000  0.5197740000000 1.0
C      1  0.5029420000000  0.4965490000000  0.5219250000000 1.0
C      1  0.4426110000000  0.5592060000000  0.5253720000000 1.0
C      1  0.4496030000000  0.5719740000000  0.4612660000000 1.0
C      1  0.3839600000000  0.5268360000000  0.5107580000000 1.0
C      1  0.5716240000000  0.5455430000000  0.5369430000000 1.0
C      1  0.4864710000000  0.4868030000000  0.5894850000000 1.0
C      1  0.4674210000000  0.4445600000000  0.4489680000000 1.0
C      1  0.4432160000000  0.4252650000000  0.4105710000000 1.0
C      1  0.4592040000000  0.4716360000000  0.4101940000000 1.0
C      1  0.5187290000000  0.5245010000000  0.5761520000000 1.0
C      1  0.5819150000000  0.4865670000000  0.5022740000000 1.0
C      1  0.4773400000000  0.4135090000000  0.4861390000000 1.0
C      1  0.5960800000000  0.5556580000000  0.5379610000000 1.0
C      1  0.5155170000000  0.5493430000000  0.3974380000000 1.0
C      1  0.5527020000000  0.4326270000000  0.4835010000000 1.0
C      1  0.5003090000000  0.4787330000000  0.4650690000000 1.0
C      1  0.5474510000000  0.5316460000000  0.5349110000000 1.0
C      1  0.6072120000000  0.4500690000000  0.5559340000000 1.0
C      1  0.5391490000000  0.4878820000000  0.5546160000000 1.0
C      1  0.4883650000000  0.5898460000000  0.4871200000000 1.0
C      1  0.6331020000000  0.4910260000000  0.5561790000000 1.0
C      1  0.4317370000000  0.4045530000000  0.3996890000000 1.0
C      1  0.4383200000000  0.5949310000000  0.4492050000000 1.0
C      1  0.4667800000000  0.4971910000000  0.4115460000000 1.0
C      1  0.4874940000000  0.4177720000000  0.5381530000000 1.0
C      1  0.5132990000000  0.5774870000000  0.4903780000000 1.0
C      1  0.5288660000000  0.5571660000000  0.4975160000000 1.0
C      1  0.4971380000000  0.5349830000000  0.4090630000000 1.0
C      1  0.5482270000000  0.4695660000000  0.5737450000000 1.0
C      1  0.4982400000000  0.5108980000000  0.5873830000000 1.0
C      1  0.5327860000000  0.5323200000000  0.5099610000000 1.0
C      1  0.5053120000000  0.4191810000000  0.5599410000000 1.0
C      1  0.4723260000000  0.4696920000000  0.4617990000000 1.0
C      1  0.4391530000000  0.4625150000000  0.5133700000000 1.0
C      1  0.4229150000000  0.5044270000000  0.5285320000000 1.0
C      1  0.4604920000000  0.5528780000000  0.5046960000000 1.0
C      1  0.4754840000000  0.6691880000000  0.4806260000000 1.0
C      1  0.4500870000000  0.6056430000000  0.4269170000000 1.0
C      1  0.4483200000000  0.4840460000000  0.4673270000000 1.0
C      1  0.5274640000000  0.4015780000000  0.5591490000000 1.0
C      1  0.5546760000000  0.4098820000000  0.4969620000000 1.0
C      1  0.5991050000000  0.4841540000000  0.5223760000000 1.0
C      1  0.4813220000000  0.6435550000000  0.4839950000000 1.0
C      1  0.5529360000000  0.3993820000000  0.5475940000000 1.0
C      1  0.4456520000000  0.5458150000000  0.4507280000000 1.0
C      1  0.4811950000000  0.5218770000000  0.4730700000000 1.0
C      1  0.4806900000000  0.4216760000000  0.4594300000000 1.0
C      1  0.4209080000000  0.5326220000000  0.4524890000000 1.0
C      1  0.5121690000000  0.3916870000000  0.4361790000000 1.0
C      1  0.4055790000000  0.5270400000000  0.5288860000000 1.0
C      1  0.5758300000000  0.4088410000000  0.5606950000000 1.0
C      1  0.4562750000000  0.4465590000000  0.4227820000000 1.0
C      1  0.4651880000000  0.4698380000000  0.5161660000000 1.0
C      1  0.3854990000000  0.5213730000000  0.4843460000000 1.0
C      1  0.4860340000000  0.6176060000000  0.4864490000000 1.0
C      1  0.4879560000000  0.4602650000000  0.5850800000000 1.0
C      1  0.5383310000000  0.5163630000000  0.5573360000000 1.0
C      1  0.4800810000000  0.4136760000000  0.5127560000000 1.0
C      1  0.4695840000000  0.5267180000000  0.4986240000000 1.0
C      1  0.4157860000000  0.6061450000000  0.4599910000000 1.0
C      1  0.5040950000000  0.5052200000000  0.4756120000000 1.0
C      1  0.4730970000000  0.4995680000000  0.5215520000000 1.0
C      1  0.5187750000000  0.4791930000000  0.5370520000000 1.0
C      1  0.4654780000000  0.5732240000000  0.4849940000000 1.0
END
