TITL C-599897-7526-1261 2942.26574890312 125000 -1033.77162199015 0 0 168 (C1) n - 1
REM
REM in /home/nfs/bkarasulu/CARBON/AIRSS/Generating-Clusters/TERSOFF/Only-C1/FIRE-HFTN
REM
REM
REM
REM
REM
REM ./C.cell (11c1c37f851c82e70ff6c80c92926a4b)
REM AIRSS Version 0.9.1 bugfix July 2018 build 013d7b7c2542+ Fri, 06 Jul 2018 19:26:36 +0100
REM compiler GCC version 9.2.1 20190827 (Red Hat 9.2.1-1)
REM options -cpp -mtune=generic -march=x86-64 -g -O0 -fpre-include=/usr/include/finclude/math-vector-fortran.h
REM seed -230987452 -2077796319 -1223596254 -219791125 -1548953536 1310597142 364899266 -640537816 -1935265790 973499116 1397515320 -400842327 431927587 -1370859814 -102570941 -1616860935 1906687713 -2066916291 -594930790 -338648834 1931240852 -460849819 1695458845 -872661728 1715690988 388080470 -610224335 1951438811 -489644937 2057772302 1105752750 1273179799 -525015026
REM
CELL 1.54180   50.00000   50.00000   50.00000   90.00000   90.00000   90.00000
LATT -1
SFAC C  
C      1  0.4004340000000  0.4567620000000  0.5256440000000 1.0
C      1  0.5410850000000  0.6069920000000  0.5086830000000 1.0
C      1  0.4602260000000  0.5491000000000  0.5346750000000 1.0
C      1  0.6195680000000  0.5206040000000  0.4710970000000 1.0
C      1  0.5231700000000  0.5705520000000  0.5800020000000 1.0
C      1  0.4830050000000  0.3965490000000  0.5031670000000 1.0
C      1  0.5193770000000  0.4642860000000  0.4563730000000 1.0
C      1  0.5210550000000  0.6111460000000  0.5296940000000 1.0
C      1  0.5388800000000  0.4177450000000  0.4396090000000 1.0
C      1  0.4585360000000  0.5243100000000  0.4002490000000 1.0
C      1  0.5455480000000  0.4861070000000  0.5437580000000 1.0
C      1  0.5438670000000  0.5721000000000  0.4762120000000 1.0
C      1  0.6270610000000  0.4939980000000  0.4789140000000 1.0
C      1  0.5879260000000  0.4381550000000  0.5410830000000 1.0
C      1  0.5236030000000  0.4921260000000  0.6221420000000 1.0
C      1  0.6465300000000  0.4919870000000  0.4994550000000 1.0
C      1  0.3832040000000  0.5104510000000  0.5126130000000 1.0
C      1  0.3746990000000  0.5200070000000  0.4860670000000 1.0
C      1  0.5703370000000  0.6026370000000  0.5044170000000 1.0
C      1  0.4985870000000  0.4322120000000  0.5918010000000 1.0
C      1  0.4355430000000  0.5535360000000  0.5471990000000 1.0
C      1  0.5328290000000  0.5425120000000  0.6195390000000 1.0
C      1  0.4556870000000  0.4365310000000  0.5098800000000 1.0
C      1  0.4957530000000  0.6085250000000  0.5408430000000 1.0
C      1  0.4899440000000  0.5742670000000  0.4738230000000 1.0
C      1  0.5876010000000  0.5149500000000  0.5503880000000 1.0
C      1  0.5548610000000  0.4803580000000  0.4924250000000 1.0
C      1  0.5364700000000  0.4816010000000  0.5148470000000 1.0
C      1  0.5093500000000  0.4210730000000  0.4381840000000 1.0
C      1  0.4592010000000  0.4583800000000  0.5729870000000 1.0
C      1  0.5427320000000  0.4156370000000  0.5698960000000 1.0
C      1  0.5209220000000  0.5154120000000  0.4561790000000 1.0
C      1  0.5858730000000  0.4995000000000  0.5759340000000 1.0
C      1  0.5445440000000  0.4752220000000  0.3993040000000 1.0
C      1  0.3841640000000  0.4915270000000  0.4242990000000 1.0
C      1  0.4975880000000  0.4589360000000  0.5340560000000 1.0
C      1  0.5705350000000  0.5581520000000  0.4382250000000 1.0
C      1  0.4255000000000  0.5754960000000  0.4974880000000 1.0
C      1  0.4304360000000  0.4832810000000  0.4939110000000 1.0
C      1  0.6012320000000  0.4484740000000  0.4904690000000 1.0
C      1  0.3999740000000  0.5327850000000  0.4449370000000 1.0
C      1  0.4112570000000  0.5422550000000  0.5448480000000 1.0
C      1  0.5487820000000  0.4194280000000  0.4882110000000 1.0
C      1  0.6094390000000  0.5251040000000  0.4454840000000 1.0
C      1  0.6114090000000  0.4793850000000  0.5306650000000 1.0
C      1  0.4234310000000  0.4682130000000  0.5401930000000 1.0
C      1  0.4474460000000  0.5940840000000  0.5191770000000 1.0
C      1  0.4863710000000  0.4819320000000  0.5191160000000 1.0
C      1  0.5156060000000  0.5205320000000  0.6205780000000 1.0
C      1  0.4609520000000  0.4125550000000  0.4523960000000 1.0
C      1  0.5363370000000  0.5622020000000  0.6017150000000 1.0
C      1  0.5123830000000  0.5135610000000  0.5378290000000 1.0
C      1  0.5548840000000  0.4377620000000  0.4264270000000 1.0
C      1  0.5915270000000  0.4997900000000  0.5248660000000 1.0
C      1  0.4427690000000  0.4846320000000  0.4500340000000 1.0
C      1  0.5472030000000  0.5553240000000  0.4197160000000 1.0
C      1  0.5066570000000  0.5564260000000  0.5187770000000 1.0
C      1  0.4627300000000  0.4981820000000  0.5224120000000 1.0
C      1  0.5631500000000  0.4636260000000  0.4405200000000 1.0
C      1  0.5475810000000  0.4695680000000  0.4645460000000 1.0
C      1  0.5294280000000  0.5956750000000  0.4845530000000 1.0
C      1  0.5391320000000  0.3984210000000  0.5281780000000 1.0
C      1  0.4090340000000  0.5502570000000  0.4969080000000 1.0
C      1  0.4510660000000  0.4490940000000  0.4007400000000 1.0
C      1  0.5194920000000  0.5628120000000  0.4165330000000 1.0
C      1  0.4310320000000  0.4115300000000  0.4580730000000 1.0
C      1  0.3873020000000  0.4671180000000  0.4651170000000 1.0
C      1  0.4514450000000  0.4973280000000  0.4055950000000 1.0
C      1  0.4967480000000  0.4703890000000  0.4109920000000 1.0
C      1  0.5067580000000  0.4516100000000  0.4325170000000 1.0
C      1  0.4172990000000  0.5745450000000  0.4227290000000 1.0
C      1  0.4806190000000  0.4772000000000  0.5769600000000 1.0
C      1  0.3964970000000  0.4685030000000  0.6073520000000 1.0
C      1  0.5477300000000  0.5278920000000  0.4078800000000 1.0
C      1  0.6383460000000  0.4832910000000  0.5236660000000 1.0
C      1  0.4888620000000  0.4026230000000  0.4532320000000 1.0
C      1  0.5475660000000  0.5507130000000  0.4955610000000 1.0
C      1  0.5939940000000  0.5582630000000  0.5285790000000 1.0
C      1  0.5860450000000  0.5832910000000  0.4869030000000 1.0
C      1  0.5684580000000  0.4248040000000  0.5581350000000 1.0
C      1  0.4832810000000  0.6178220000000  0.4889260000000 1.0
C      1  0.4666070000000  0.5417000000000  0.4450360000000 1.0
C      1  0.4985290000000  0.4404190000000  0.4934510000000 1.0
C      1  0.3881140000000  0.4810880000000  0.5123050000000 1.0
C      1  0.4053910000000  0.4326690000000  0.5062990000000 1.0
C      1  0.5920990000000  0.4353660000000  0.5126340000000 1.0
C      1  0.4318200000000  0.5675050000000  0.3995220000000 1.0
C      1  0.6170740000000  0.5430170000000  0.4885950000000 1.0
C      1  0.4202280000000  0.4195520000000  0.4318980000000 1.0
C      1  0.4722250000000  0.5342930000000  0.4918430000000 1.0
C      1  0.4669730000000  0.5151820000000  0.5636210000000 1.0
C      1  0.5482870000000  0.4466890000000  0.3996210000000 1.0
C      1  0.5395480000000  0.4605210000000  0.5887080000000 1.0
C      1  0.5643210000000  0.4851030000000  0.4199130000000 1.0
C      1  0.5737250000000  0.5030210000000  0.5003190000000 1.0
C      1  0.3972100000000  0.5559270000000  0.4292090000000 1.0
C      1  0.4255850000000  0.5885960000000  0.4719530000000 1.0
C      1  0.4619580000000  0.5262740000000  0.5164260000000 1.0
C      1  0.4645360000000  0.4212010000000  0.5420130000000 1.0
C      1  0.5015830000000  0.4623360000000  0.4775240000000 1.0
C      1  0.4711610000000  0.4325000000000  0.5683800000000 1.0
C      1  0.4425920000000  0.5448950000000  0.3891380000000 1.0
C      1  0.4251610000000  0.5900430000000  0.4450350000000 1.0
C      1  0.6114770000000  0.4697670000000  0.4767820000000 1.0
C      1  0.3768690000000  0.4716180000000  0.4408990000000 1.0
C      1  0.6015800000000  0.5631660000000  0.5014190000000 1.0
C      1  0.4769380000000  0.5343740000000  0.4193020000000 1.0
C      1  0.5314960000000  0.4714910000000  0.5637610000000 1.0
C      1  0.5278570000000  0.3966780000000  0.5538020000000 1.0
C      1  0.6027340000000  0.4607870000000  0.5507190000000 1.0
C      1  0.5698200000000  0.5740080000000  0.4629060000000 1.0
C      1  0.5694890000000  0.5129130000000  0.4189820000000 1.0
C      1  0.4974660000000  0.5047860000000  0.4537390000000 1.0
C      1  0.4640450000000  0.4403410000000  0.4464850000000 1.0
C      1  0.4677750000000  0.4727180000000  0.4030790000000 1.0
C      1  0.4899490000000  0.5518790000000  0.5432230000000 1.0
C      1  0.4133940000000  0.4653700000000  0.5877630000000 1.0
C      1  0.5106110000000  0.4964940000000  0.5147410000000 1.0
C      1  0.4884490000000  0.5228700000000  0.6088830000000 1.0
C      1  0.4988930000000  0.5673080000000  0.5670410000000 1.0
C      1  0.4319610000000  0.4957520000000  0.4267120000000 1.0
C      1  0.5351680000000  0.5531090000000  0.5205220000000 1.0
C      1  0.5993510000000  0.4741630000000  0.5750550000000 1.0
C      1  0.4586320000000  0.5260250000000  0.4685190000000 1.0
C      1  0.4607200000000  0.6138290000000  0.5033760000000 1.0
C      1  0.4696630000000  0.5446980000000  0.5986450000000 1.0
C      1  0.5389620000000  0.5147070000000  0.5470760000000 1.0
C      1  0.5019300000000  0.5988970000000  0.4792250000000 1.0
C      1  0.4456070000000  0.4565710000000  0.4891720000000 1.0
C      1  0.5360210000000  0.4216830000000  0.5129210000000 1.0
C      1  0.4743920000000  0.5748360000000  0.5774520000000 1.0
C      1  0.4931860000000  0.3865740000000  0.4776840000000 1.0
C      1  0.4654470000000  0.5951780000000  0.5492830000000 1.0
C      1  0.5854440000000  0.5324000000000  0.4337180000000 1.0
C      1  0.4738110000000  0.5681600000000  0.4520900000000 1.0
C      1  0.5665440000000  0.4999460000000  0.5969790000000 1.0
C      1  0.4804540000000  0.3974430000000  0.5330120000000 1.0
C      1  0.4525690000000  0.5288040000000  0.5823020000000 1.0
C      1  0.4319530000000  0.4637730000000  0.5669470000000 1.0
C      1  0.4003520000000  0.5335370000000  0.5206350000000 1.0
C      1  0.5498960000000  0.5402190000000  0.5415550000000 1.0
C      1  0.5493030000000  0.4086170000000  0.4638970000000 1.0
C      1  0.5460180000000  0.4822820000000  0.6068280000000 1.0
C      1  0.5139300000000  0.4401400000000  0.5174990000000 1.0
C      1  0.3951820000000  0.5365060000000  0.4731480000000 1.0
C      1  0.4939700000000  0.4479400000000  0.6158740000000 1.0
C      1  0.4991570000000  0.4757610000000  0.6196700000000 1.0
C      1  0.5208430000000  0.5168780000000  0.4031170000000 1.0
C      1  0.4832040000000  0.4930340000000  0.6013700000000 1.0
C      1  0.5457950000000  0.5185900000000  0.4643590000000 1.0
C      1  0.5184740000000  0.4881620000000  0.4008450000000 1.0
C      1  0.4314420000000  0.4331010000000  0.4108400000000 1.0
C      1  0.4061500000000  0.5084980000000  0.4298890000000 1.0
C      1  0.5035070000000  0.5388630000000  0.4112270000000 1.0
C      1  0.5281140000000  0.4331710000000  0.5870750000000 1.0
C      1  0.5005640000000  0.3890290000000  0.5517170000000 1.0
C      1  0.5780450000000  0.5413300000000  0.5447230000000 1.0
C      1  0.4920000000000  0.5545020000000  0.4938600000000 1.0
C      1  0.4511560000000  0.4597710000000  0.4605150000000 1.0
C      1  0.4159730000000  0.4186860000000  0.4836690000000 1.0
C      1  0.5601440000000  0.5260220000000  0.4876200000000 1.0
C      1  0.4372530000000  0.4864040000000  0.5228990000000 1.0
C      1  0.4425880000000  0.5026390000000  0.4725520000000 1.0
C      1  0.4919430000000  0.5236730000000  0.5529350000000 1.0
C      1  0.5034400000000  0.4692350000000  0.5599790000000 1.0
C      1  0.4013790000000  0.4781740000000  0.4864000000000 1.0
C      1  0.5107370000000  0.5885040000000  0.4146500000000 1.0
C      1  0.4765660000000  0.4240000000000  0.4958940000000 1.0
END
