TITL C-599892-9790-1499 8970.64060282091 125000 -727.185559383608 0 0 124 (C1) n - 1
REM
REM in /home/nfs/bkarasulu/CARBON/AIRSS/Generating-Clusters/TERSOFF/Only-C1/FIRE-HFTN
REM
REM
REM
REM
REM
REM ./C.cell (11c1c37f851c82e70ff6c80c92926a4b)
REM AIRSS Version 0.9.1 bugfix July 2018 build 013d7b7c2542+ Fri, 06 Jul 2018 19:26:36 +0100
REM compiler GCC version 9.2.1 20190827 (Red Hat 9.2.1-1)
REM options -cpp -mtune=generic -march=x86-64 -g -O0 -fpre-include=/usr/include/finclude/math-vector-fortran.h
REM seed 1901913817 881376079 -292437466 -94759788 -1308531316 1246529184 -60700309 518327342 1854899814 1031038480 959385201 1096620435 -103986226 -488188974 -847294212 157564231 246597391 1278861736 -1518576290 2109346934 -1726495133 -1566024592 1211190723 -2005317768 -484104454 -566141119 -120309886 -1826649417 771453549 2128373768 -2552200 -1276450041 -2080743657
REM
CELL 1.54180   50.00000   50.00000   50.00000   90.00000   90.00000   90.00000
LATT -1
SFAC C  
C      1  0.6526590000000  0.5425230000000  0.5047440000000 1.0
C      1  0.4487980000000  0.5399220000000  0.5816250000000 1.0
C      1  0.4946350000000  0.4556690000000  0.5646530000000 1.0
C      1  0.4611320000000  0.4520140000000  0.3700900000000 1.0
C      1  0.3931990000000  0.4645670000000  0.4865870000000 1.0
C      1  0.4764030000000  0.5498110000000  0.4346460000000 1.0
C      1  0.4822190000000  0.4980360000000  0.4471500000000 1.0
C      1  0.5038060000000  0.5917100000000  0.4668390000000 1.0
C      1  0.4202500000000  0.4213840000000  0.4233140000000 1.0
C      1  0.3995540000000  0.5283260000000  0.5407210000000 1.0
C      1  0.5627270000000  0.4436640000000  0.4484670000000 1.0
C      1  0.4574910000000  0.4236340000000  0.4812140000000 1.0
C      1  0.4730310000000  0.4623620000000  0.5121570000000 1.0
C      1  0.5465250000000  0.4798090000000  0.4204610000000 1.0
C      1  0.5641900000000  0.5579720000000  0.4703670000000 1.0
C      1  0.5690340000000  0.4370480000000  0.4735050000000 1.0
C      1  0.4565680000000  0.4906970000000  0.4019780000000 1.0
C      1  0.5178980000000  0.5408090000000  0.5382700000000 1.0
C      1  0.5013000000000  0.5035370000000  0.4679100000000 1.0
C      1  0.4969990000000  0.4192050000000  0.5294160000000 1.0
C      1  0.4323380000000  0.4118160000000  0.4849400000000 1.0
C      1  0.5284950000000  0.4207430000000  0.5455800000000 1.0
C      1  0.5279830000000  0.5912630000000  0.5328030000000 1.0
C      1  0.5278830000000  0.5010810000000  0.4244880000000 1.0
C      1  0.5177060000000  0.5350410000000  0.3905490000000 1.0
C      1  0.4781780000000  0.4546120000000  0.4171100000000 1.0
C      1  0.5823360000000  0.4768660000000  0.5353330000000 1.0
C      1  0.5463700000000  0.4430300000000  0.5573110000000 1.0
C      1  0.5180140000000  0.4920410000000  0.5101560000000 1.0
C      1  0.4033130000000  0.4470160000000  0.5066310000000 1.0
C      1  0.5095360000000  0.5107090000000  0.4029890000000 1.0
C      1  0.5275770000000  0.5445750000000  0.5669680000000 1.0
C      1  0.5087350000000  0.4140240000000  0.4342870000000 1.0
C      1  0.5808920000000  0.5507670000000  0.4964220000000 1.0
C      1  0.4599380000000  0.4514760000000  0.4871130000000 1.0
C      1  0.5756200000000  0.5629710000000  0.5246780000000 1.0
C      1  0.5006900000000  0.5901190000000  0.5364750000000 1.0
C      1  0.4672230000000  0.5679460000000  0.5673770000000 1.0
C      1  0.4259320000000  0.4713150000000  0.4483310000000 1.0
C      1  0.4757930000000  0.5212250000000  0.4310830000000 1.0
C      1  0.5242560000000  0.5533510000000  0.4895560000000 1.0
C      1  0.5866400000000  0.4948360000000  0.4433160000000 1.0
C      1  0.4999140000000  0.4238260000000  0.4991160000000 1.0
C      1  0.4246290000000  0.4435420000000  0.4362930000000 1.0
C      1  0.4261180000000  0.5660070000000  0.4910370000000 1.0
C      1  0.4159560000000  0.5032510000000  0.5043120000000 1.0
C      1  0.5384910000000  0.5421430000000  0.4657140000000 1.0
C      1  0.4829500000000  0.4117130000000  0.4794390000000 1.0
C      1  0.4329720000000  0.4844140000000  0.5719680000000 1.0
C      1  0.5825130000000  0.5486960000000  0.5514250000000 1.0
C      1  0.4660170000000  0.4266300000000  0.5449600000000 1.0
C      1  0.4580330000000  0.4863510000000  0.5157280000000 1.0
C      1  0.5239640000000  0.4333440000000  0.4235890000000 1.0
C      1  0.4649650000000  0.4642520000000  0.3938740000000 1.0
C      1  0.4989880000000  0.4617230000000  0.5369240000000 1.0
C      1  0.5667680000000  0.4874840000000  0.5817020000000 1.0
C      1  0.4951060000000  0.5109630000000  0.5132280000000 1.0
C      1  0.5518080000000  0.5850920000000  0.4666250000000 1.0
C      1  0.5401510000000  0.5914090000000  0.4399560000000 1.0
C      1  0.4794450000000  0.5094560000000  0.4047780000000 1.0
C      1  0.4010320000000  0.5532570000000  0.5309940000000 1.0
C      1  0.4166890000000  0.4799060000000  0.5469510000000 1.0
C      1  0.4499450000000  0.5575330000000  0.4789910000000 1.0
C      1  0.5253620000000  0.5820480000000  0.4834000000000 1.0
C      1  0.4359410000000  0.4892230000000  0.4238560000000 1.0
C      1  0.5244650000000  0.4683620000000  0.5265350000000 1.0
C      1  0.4394160000000  0.4915360000000  0.4949000000000 1.0
C      1  0.3957670000000  0.5970020000000  0.5117590000000 1.0
C      1  0.5591020000000  0.4336290000000  0.4994730000000 1.0
C      1  0.4942720000000  0.4045350000000  0.4547560000000 1.0
C      1  0.4857200000000  0.5212530000000  0.4875970000000 1.0
C      1  0.4567830000000  0.5603860000000  0.4519520000000 1.0
C      1  0.5097260000000  0.5592310000000  0.3995360000000 1.0
C      1  0.4742140000000  0.5522230000000  0.5226720000000 1.0
C      1  0.5155220000000  0.5685040000000  0.5801340000000 1.0
C      1  0.5961200000000  0.4772880000000  0.5099960000000 1.0
C      1  0.5776440000000  0.4966020000000  0.4698140000000 1.0
C      1  0.5106180000000  0.5875470000000  0.4389430000000 1.0
C      1  0.6279470000000  0.5358650000000  0.4998460000000 1.0
C      1  0.5735860000000  0.4886650000000  0.4205560000000 1.0
C      1  0.4433360000000  0.4720600000000  0.4737800000000 1.0
C      1  0.5459670000000  0.4013480000000  0.5336780000000 1.0
C      1  0.5540720000000  0.5148550000000  0.5459820000000 1.0
C      1  0.5664600000000  0.4655820000000  0.5588840000000 1.0
C      1  0.4752710000000  0.5031210000000  0.5857180000000 1.0
C      1  0.4632790000000  0.4991420000000  0.5390900000000 1.0
C      1  0.4693040000000  0.5447100000000  0.4948850000000 1.0
C      1  0.5142870000000  0.4480190000000  0.4886580000000 1.0
C      1  0.4923070000000  0.5316920000000  0.5319320000000 1.0
C      1  0.6010360000000  0.5286660000000  0.4962030000000 1.0
C      1  0.5797550000000  0.5050310000000  0.5394450000000 1.0
C      1  0.5949980000000  0.5003210000000  0.4918060000000 1.0
C      1  0.5558800000000  0.5407000000000  0.5609990000000 1.0
C      1  0.5210580000000  0.5207700000000  0.5869350000000 1.0
C      1  0.4809080000000  0.4969810000000  0.5590190000000 1.0
C      1  0.5623170000000  0.4092810000000  0.5135230000000 1.0
C      1  0.4973960000000  0.5672220000000  0.4237660000000 1.0
C      1  0.4804160000000  0.5453900000000  0.6025480000000 1.0
C      1  0.4820610000000  0.4708890000000  0.4384220000000 1.0
C      1  0.5303750000000  0.5140620000000  0.4567830000000 1.0
C      1  0.4883220000000  0.5682590000000  0.5878140000000 1.0
C      1  0.5963000000000  0.5218690000000  0.5570590000000 1.0
C      1  0.5911510000000  0.5063530000000  0.5821810000000 1.0
C      1  0.4478900000000  0.4599410000000  0.5791420000000 1.0
C      1  0.4179930000000  0.4533200000000  0.5315380000000 1.0
C      1  0.4075140000000  0.5722890000000  0.5112580000000 1.0
C      1  0.5322150000000  0.5373770000000  0.5122160000000 1.0
C      1  0.4391560000000  0.4333040000000  0.5362530000000 1.0
C      1  0.3789110000000  0.4908320000000  0.4473610000000 1.0
C      1  0.5089940000000  0.4775390000000  0.4834590000000 1.0
C      1  0.4078780000000  0.5031290000000  0.5316770000000 1.0
C      1  0.5503920000000  0.5002070000000  0.4762460000000 1.0
C      1  0.5437720000000  0.4524190000000  0.4291980000000 1.0
C      1  0.4096490000000  0.4210400000000  0.4963080000000 1.0
C      1  0.5107630000000  0.4587220000000  0.5863770000000 1.0
C      1  0.4462810000000  0.5106910000000  0.5831800000000 1.0
C      1  0.5536960000000  0.5827410000000  0.5278630000000 1.0
C      1  0.3977270000000  0.4762900000000  0.4606740000000 1.0
C      1  0.5371270000000  0.4500990000000  0.5073370000000 1.0
C      1  0.4936540000000  0.5209910000000  0.5977320000000 1.0
C      1  0.4762080000000  0.5742930000000  0.5405760000000 1.0
C      1  0.4691440000000  0.4439180000000  0.5684600000000 1.0
C      1  0.5416190000000  0.5002940000000  0.5902460000000 1.0
C      1  0.5406360000000  0.5098300000000  0.5028520000000 1.0
END
