TITL C-599893-4344-1336 0.136917283603087 125000 -382.613844993094 0 0 64 (C1) n - 1
REM
REM in /home/nfs/bkarasulu/CARBON/AIRSS/Generating-Clusters/TERSOFF/Only-C1/FIRE-HFTN
REM
REM
REM
REM
REM
REM ./C.cell (11c1c37f851c82e70ff6c80c92926a4b)
REM AIRSS Version 0.9.1 bugfix July 2018 build 013d7b7c2542+ Fri, 06 Jul 2018 19:26:36 +0100
REM compiler GCC version 9.2.1 20190827 (Red Hat 9.2.1-1)
REM options -cpp -mtune=generic -march=x86-64 -g -O0 -fpre-include=/usr/include/finclude/math-vector-fortran.h
REM seed -512812172 -1953081438 -54364553 -1577020581 -238654965 -800367617 -429061594 1378496434 679412309 1351088016 -712965196 1419357028 261770062 1655589652 -596813743 1827617974 1372705930 1883413732 -1432006456 1165647243 -1473754264 -467241053 -690002423 -1756090946 -1370333899 -592742743 1104691871 454635827 1153251224 -80223842 -1284882989 -1860790135 1206271600
REM
CELL 1.54180   50.00000   50.00000   50.00000   90.00000   90.00000   90.00000
LATT -1
SFAC C  
C      1  0.3965020000000  0.5130560000000  0.5235280000000 1.0
C      1  0.5083800000000  0.3991800000000  0.5884220000000 1.0
C      1  0.4961900000000  0.5505740000000  0.4497160000000 1.0
C      1  0.5240490000000  0.4433410000000  0.4625780000000 1.0
C      1  0.5306180000000  0.4629460000000  0.5283210000000 1.0
C      1  0.5069150000000  0.4469720000000  0.5373200000000 1.0
C      1  0.4153470000000  0.5904860000000  0.4046000000000 1.0
C      1  0.5206900000000  0.4483560000000  0.5825480000000 1.0
C      1  0.4916410000000  0.4842990000000  0.5660880000000 1.0
C      1  0.5091930000000  0.5711510000000  0.4642260000000 1.0
C      1  0.5000840000000  0.3847280000000  0.5674870000000 1.0
C      1  0.5056420000000  0.4864620000000  0.4937320000000 1.0
C      1  0.5713130000000  0.5723040000000  0.4807590000000 1.0
C      1  0.4899460000000  0.4807000000000  0.4482460000000 1.0
C      1  0.5835540000000  0.4905140000000  0.4965800000000 1.0
C      1  0.5739800000000  0.4431580000000  0.4782980000000 1.0
C      1  0.5556380000000  0.4748300000000  0.4434160000000 1.0
C      1  0.3978680000000  0.5120920000000  0.4954970000000 1.0
C      1  0.4957750000000  0.4021160000000  0.5200020000000 1.0
C      1  0.4870520000000  0.5044520000000  0.4321600000000 1.0
C      1  0.4820750000000  0.5799110000000  0.5124210000000 1.0
C      1  0.4786330000000  0.5293040000000  0.4436830000000 1.0
C      1  0.4951180000000  0.3857840000000  0.5412200000000 1.0
C      1  0.5502240000000  0.4660110000000  0.5484130000000 1.0
C      1  0.5005170000000  0.4572710000000  0.5635440000000 1.0
C      1  0.4909940000000  0.5355120000000  0.5487610000000 1.0
C      1  0.5090230000000  0.5966290000000  0.4539460000000 1.0
C      1  0.4235110000000  0.5520870000000  0.4395490000000 1.0
C      1  0.5634640000000  0.4994260000000  0.4549530000000 1.0
C      1  0.5322130000000  0.4726990000000  0.4269710000000 1.0
C      1  0.4667170000000  0.5359310000000  0.5296720000000 1.0
C      1  0.5085670000000  0.5695440000000  0.5143370000000 1.0
C      1  0.4659440000000  0.5084800000000  0.4835160000000 1.0
C      1  0.5682740000000  0.5089550000000  0.4813780000000 1.0
C      1  0.4300980000000  0.5322900000000  0.4580920000000 1.0
C      1  0.4936130000000  0.5111180000000  0.5633630000000 1.0
C      1  0.5496780000000  0.5563230000000  0.4877660000000 1.0
C      1  0.4099670000000  0.5198820000000  0.4731350000000 1.0
C      1  0.5532350000000  0.4506820000000  0.4603720000000 1.0
C      1  0.4151150000000  0.5304310000000  0.5358810000000 1.0
C      1  0.5893140000000  0.3917090000000  0.4827720000000 1.0
C      1  0.5824570000000  0.4167450000000  0.4804660000000 1.0
C      1  0.5854420000000  0.4637530000000  0.4939280000000 1.0
C      1  0.4420920000000  0.5225920000000  0.5402610000000 1.0
C      1  0.5522970000000  0.5287950000000  0.4943010000000 1.0
C      1  0.5234440000000  0.4665550000000  0.5011350000000 1.0
C      1  0.5111420000000  0.5541710000000  0.5389720000000 1.0
C      1  0.4569750000000  0.5249170000000  0.4621860000000 1.0
C      1  0.4124950000000  0.5585460000000  0.5332010000000 1.0
C      1  0.4834270000000  0.4858090000000  0.4755420000000 1.0
C      1  0.5101880000000  0.4614010000000  0.4424310000000 1.0
C      1  0.4784870000000  0.5205360000000  0.5065250000000 1.0
C      1  0.5320100000000  0.5201960000000  0.5119560000000 1.0
C      1  0.5030140000000  0.4284660000000  0.5140650000000 1.0
C      1  0.5463010000000  0.4582300000000  0.5744090000000 1.0
C      1  0.3785610000000  0.4983610000000  0.5378490000000 1.0
C      1  0.5914210000000  0.5872660000000  0.4736260000000 1.0
C      1  0.5165210000000  0.4237750000000  0.5952770000000 1.0
C      1  0.5228730000000  0.5666560000000  0.4893030000000 1.0
C      1  0.5152710000000  0.4405160000000  0.4898870000000 1.0
C      1  0.5060740000000  0.5109430000000  0.5080300000000 1.0
C      1  0.4600690000000  0.5648880000000  0.5217410000000 1.0
C      1  0.4335830000000  0.5737790000000  0.5256920000000 1.0
C      1  0.4191900000000  0.5714100000000  0.4219470000000 1.0
END
