TITL C-599891-72-184 0.0334136800539661 125000 -848.259412497316 0 0 136 (C1) n - 1
REM
REM in /home/nfs/bkarasulu/CARBON/AIRSS/Generating-Clusters/TERSOFF/Only-C1/FIRE-HFTN
REM
REM
REM
REM
REM
REM ./C.cell (11c1c37f851c82e70ff6c80c92926a4b)
REM AIRSS Version 0.9.1 bugfix July 2018 build 013d7b7c2542+ Fri, 06 Jul 2018 19:26:36 +0100
REM compiler GCC version 9.2.1 20190827 (Red Hat 9.2.1-1)
REM options -cpp -mtune=generic -march=x86-64 -g -O0 -fpre-include=/usr/include/finclude/math-vector-fortran.h
REM seed 828896046 1453226960 -1512194050 -142329000 -1055047583 1661900145 236060837 -1780576135 1117004179 1354682522 1656961047 727466376 -1925894175 -1506234899 1691789701 724868713 -2016506945 -902379236 799716102 1663606832 373286444 656137048 -1666663983 1569101857 -2009177143 178137294 -95895102 -2113875280 -1102605783 276920046 1930113177 -1632998634 -2015274170
REM
CELL 1.54180   50.00000   50.00000   50.00000   90.00000   90.00000   90.00000
LATT -1
SFAC C  
C      1  0.5652400000000  0.5622470000000  0.5455160000000 1.0
C      1  0.4987060000000  0.5398860000000  0.4740990000000 1.0
C      1  0.4522570000000  0.4502590000000  0.6080260000000 1.0
C      1  0.5408630000000  0.5319810000000  0.4550100000000 1.0
C      1  0.4605890000000  0.4807860000000  0.4438180000000 1.0
C      1  0.5223750000000  0.5930300000000  0.4630570000000 1.0
C      1  0.5258110000000  0.5929620000000  0.5375950000000 1.0
C      1  0.4370290000000  0.5190830000000  0.5886970000000 1.0
C      1  0.4312680000000  0.4901620000000  0.5876750000000 1.0
C      1  0.4863560000000  0.5089200000000  0.5962280000000 1.0
C      1  0.5676250000000  0.4284490000000  0.5128250000000 1.0
C      1  0.4985060000000  0.5985960000000  0.4794700000000 1.0
C      1  0.4290440000000  0.5431840000000  0.4817400000000 1.0
C      1  0.5248090000000  0.4426480000000  0.5603670000000 1.0
C      1  0.5737730000000  0.4947030000000  0.5524080000000 1.0
C      1  0.5515050000000  0.4490310000000  0.4275020000000 1.0
C      1  0.5466500000000  0.5890780000000  0.4778210000000 1.0
C      1  0.4395860000000  0.4982790000000  0.5071330000000 1.0
C      1  0.5024510000000  0.4139280000000  0.5227080000000 1.0
C      1  0.5986640000000  0.5510350000000  0.4544440000000 1.0
C      1  0.5323790000000  0.4134580000000  0.4735630000000 1.0
C      1  0.4063730000000  0.4869920000000  0.4317750000000 1.0
C      1  0.3824720000000  0.4910460000000  0.4793400000000 1.0
C      1  0.5036190000000  0.2985770000000  0.5110590000000 1.0
C      1  0.5540180000000  0.5240820000000  0.4125750000000 1.0
C      1  0.5522610000000  0.5567140000000  0.6203900000000 1.0
C      1  0.5520260000000  0.4973250000000  0.4246090000000 1.0
C      1  0.5029500000000  0.4946240000000  0.5391140000000 1.0
C      1  0.4946380000000  0.5795880000000  0.4998330000000 1.0
C      1  0.3801400000000  0.5175590000000  0.4900410000000 1.0
C      1  0.5128140000000  0.3908930000000  0.4710000000000 1.0
C      1  0.4503860000000  0.4610820000000  0.4614880000000 1.0
C      1  0.5917110000000  0.5413910000000  0.4800090000000 1.0
C      1  0.3859400000000  0.5334580000000  0.5114350000000 1.0
C      1  0.5141020000000  0.5145690000000  0.5982340000000 1.0
C      1  0.5813090000000  0.4523390000000  0.5238920000000 1.0
C      1  0.4210400000000  0.5636800000000  0.5005430000000 1.0
C      1  0.4874680000000  0.3942570000000  0.4582090000000 1.0
C      1  0.4540100000000  0.4735310000000  0.5939580000000 1.0
C      1  0.4649220000000  0.4115720000000  0.4539340000000 1.0
C      1  0.5957200000000  0.5470490000000  0.4280040000000 1.0
C      1  0.5795630000000  0.5427930000000  0.5287090000000 1.0
C      1  0.5798640000000  0.5353430000000  0.4094870000000 1.0
C      1  0.5362540000000  0.5410920000000  0.4280260000000 1.0
C      1  0.4870870000000  0.5452980000000  0.4186550000000 1.0
C      1  0.5606190000000  0.5789240000000  0.5008050000000 1.0
C      1  0.5308320000000  0.4319020000000  0.5840330000000 1.0
C      1  0.4637300000000  0.4719240000000  0.5402070000000 1.0
C      1  0.4856460000000  0.4802450000000  0.5568160000000 1.0
C      1  0.5529750000000  0.4287310000000  0.5988580000000 1.0
C      1  0.5779360000000  0.4372650000000  0.5937080000000 1.0
C      1  0.5244760000000  0.3975110000000  0.5151430000000 1.0
C      1  0.4247950000000  0.4754790000000  0.5002040000000 1.0
C      1  0.4682010000000  0.4489030000000  0.5247500000000 1.0
C      1  0.5119270000000  0.3495900000000  0.5014960000000 1.0
C      1  0.5077560000000  0.3238760000000  0.5063200000000 1.0
C      1  0.4747290000000  0.5994540000000  0.5369820000000 1.0
C      1  0.5351660000000  0.5388940000000  0.5033130000000 1.0
C      1  0.4489100000000  0.4953060000000  0.5334990000000 1.0
C      1  0.5672810000000  0.4722260000000  0.4255060000000 1.0
C      1  0.4850680000000  0.5541500000000  0.4935820000000 1.0
C      1  0.4022040000000  0.4686130000000  0.5172790000000 1.0
C      1  0.4545290000000  0.4761830000000  0.4135850000000 1.0
C      1  0.4500100000000  0.5992350000000  0.4800380000000 1.0
C      1  0.4279150000000  0.5473080000000  0.4542450000000 1.0
C      1  0.4025780000000  0.4819540000000  0.4593990000000 1.0
C      1  0.5505550000000  0.5816900000000  0.5288320000000 1.0
C      1  0.4788780000000  0.4841980000000  0.5840770000000 1.0
C      1  0.5927320000000  0.4999180000000  0.5078330000000 1.0
C      1  0.5802760000000  0.4657880000000  0.5502300000000 1.0
C      1  0.5409820000000  0.5198250000000  0.5904290000000 1.0
C      1  0.5344260000000  0.4614430000000  0.4827690000000 1.0
C      1  0.5830010000000  0.5134930000000  0.5315460000000 1.0
C      1  0.4510450000000  0.5198980000000  0.5468640000000 1.0
C      1  0.4381490000000  0.5871730000000  0.5032400000000 1.0
C      1  0.5944200000000  0.4714890000000  0.5071960000000 1.0
C      1  0.5136530000000  0.5570930000000  0.4239670000000 1.0
C      1  0.5491890000000  0.5031780000000  0.4557770000000 1.0
C      1  0.4574060000000  0.4465630000000  0.4069550000000 1.0
C      1  0.5294130000000  0.5339100000000  0.5286670000000 1.0
C      1  0.5904550000000  0.5129030000000  0.4829490000000 1.0
C      1  0.4747850000000  0.5057910000000  0.4465450000000 1.0
C      1  0.4445030000000  0.4088320000000  0.4346460000000 1.0
C      1  0.5571540000000  0.5030080000000  0.5740560000000 1.0
C      1  0.5058000000000  0.4531730000000  0.4146980000000 1.0
C      1  0.5104640000000  0.5827310000000  0.4379970000000 1.0
C      1  0.4033010000000  0.4706350000000  0.5455100000000 1.0
C      1  0.4456260000000  0.5240200000000  0.4951330000000 1.0
C      1  0.5459010000000  0.4126230000000  0.5007650000000 1.0
C      1  0.4318170000000  0.5793850000000  0.5506460000000 1.0
C      1  0.4053340000000  0.5514360000000  0.5222570000000 1.0
C      1  0.4975640000000  0.5878620000000  0.5771500000000 1.0
C      1  0.4803300000000  0.5177580000000  0.4202710000000 1.0
C      1  0.5884590000000  0.4774130000000  0.4448080000000 1.0
C      1  0.5267900000000  0.5411200000000  0.4769780000000 1.0
C      1  0.4180840000000  0.5540890000000  0.5488700000000 1.0
C      1  0.4699500000000  0.5539480000000  0.6046660000000 1.0
C      1  0.5300720000000  0.4873700000000  0.4727260000000 1.0
C      1  0.4871620000000  0.4341640000000  0.5097760000000 1.0
C      1  0.4899790000000  0.5137680000000  0.4682680000000 1.0
C      1  0.4843530000000  0.4371430000000  0.4063950000000 1.0
C      1  0.3789850000000  0.4716650000000  0.5007700000000 1.0
C      1  0.5300600000000  0.4535250000000  0.5365970000000 1.0
C      1  0.4844670000000  0.5746770000000  0.5962470000000 1.0
C      1  0.5032430000000  0.4789120000000  0.4023020000000 1.0
C      1  0.4412750000000  0.5575710000000  0.4335340000000 1.0
C      1  0.4805070000000  0.5878240000000  0.4388080000000 1.0
C      1  0.5877480000000  0.4517050000000  0.5734110000000 1.0
C      1  0.4635950000000  0.5269920000000  0.5998340000000 1.0
C      1  0.4735360000000  0.6006440000000  0.4639530000000 1.0
C      1  0.5177640000000  0.5171160000000  0.5455160000000 1.0
C      1  0.5618830000000  0.5596250000000  0.5730310000000 1.0
C      1  0.5517270000000  0.5459190000000  0.5953220000000 1.0
C      1  0.4389430000000  0.4265680000000  0.4148430000000 1.0
C      1  0.4996180000000  0.4911760000000  0.5108800000000 1.0
C      1  0.5240660000000  0.4460550000000  0.4356510000000 1.0
C      1  0.4480500000000  0.5917660000000  0.5304240000000 1.0
C      1  0.4257320000000  0.4854120000000  0.4126650000000 1.0
C      1  0.4672330000000  0.5389470000000  0.5077270000000 1.0
C      1  0.5782860000000  0.4974860000000  0.4629560000000 1.0
C      1  0.6134440000000  0.4656330000000  0.4452240000000 1.0
C      1  0.4250700000000  0.4685560000000  0.4728400000000 1.0
C      1  0.4910960000000  0.4398850000000  0.4813330000000 1.0
C      1  0.5802160000000  0.5562310000000  0.5015090000000 1.0
C      1  0.5200960000000  0.4403580000000  0.4662940000000 1.0
C      1  0.4309870000000  0.5320300000000  0.5631340000000 1.0
C      1  0.6369980000000  0.4546080000000  0.4468630000000 1.0
C      1  0.4999270000000  0.5947880000000  0.5498980000000 1.0
C      1  0.4117650000000  0.4794940000000  0.5696280000000 1.0
C      1  0.5353160000000  0.4592440000000  0.5109900000000 1.0
C      1  0.4671950000000  0.5652620000000  0.4265850000000 1.0
C      1  0.4672420000000  0.4378840000000  0.4658360000000 1.0
C      1  0.4785770000000  0.4939570000000  0.4028940000000 1.0
C      1  0.5048240000000  0.4956570000000  0.4835530000000 1.0
C      1  0.5158970000000  0.3764050000000  0.4963680000000 1.0
C      1  0.4691760000000  0.5373550000000  0.5353000000000 1.0
END
