TITL C-599890-3321-1441 1.15396140648839 125000 -263.365464351054 0 0 45 (C1) n - 1
REM
REM in /home/nfs/bkarasulu/CARBON/AIRSS/Generating-Clusters/TERSOFF/Only-C1/FIRE-HFTN
REM
REM
REM
REM
REM
REM ./C.cell (11c1c37f851c82e70ff6c80c92926a4b)
REM AIRSS Version 0.9.1 bugfix July 2018 build 013d7b7c2542+ Fri, 06 Jul 2018 19:26:36 +0100
REM compiler GCC version 9.2.1 20190827 (Red Hat 9.2.1-1)
REM options -cpp -mtune=generic -march=x86-64 -g -O0 -fpre-include=/usr/include/finclude/math-vector-fortran.h
REM seed 1394435122 622124254 2022111269 698234518 -1926875228 1127951715 1514586742 1248416268 -541828413 1451454503 704346359 908380382 1321400484 -703619608 1084730070 -904181054 -1561962220 1245695096 1965082536 1384601531 -739224108 -1751358494 1879771187 -1930249295 -3449460 -1330945982 -1452424034 -1347691180 538369625 -1845002683 -1120825484 1628431098 -332097780
REM
CELL 1.54180   50.00000   50.00000   50.00000   90.00000   90.00000   90.00000
LATT -1
SFAC C  
C      1  0.4953510000000  0.5511130000000  0.6451780000000 1.0
C      1  0.4655020000000  0.5221490000000  0.5336810000000 1.0
C      1  0.4984350000000  0.4083420000000  0.3715560000000 1.0
C      1  0.5429770000000  0.5761120000000  0.5296900000000 1.0
C      1  0.5366460000000  0.5255830000000  0.4746830000000 1.0
C      1  0.4809010000000  0.5161070000000  0.5100620000000 1.0
C      1  0.4922760000000  0.4462670000000  0.4427580000000 1.0
C      1  0.4936030000000  0.5053700000000  0.5881620000000 1.0
C      1  0.4693750000000  0.4914860000000  0.5838030000000 1.0
C      1  0.4900150000000  0.4587140000000  0.4660260000000 1.0
C      1  0.4861750000000  0.4506430000000  0.5327860000000 1.0
C      1  0.4694580000000  0.4957120000000  0.4924640000000 1.0
C      1  0.6206570000000  0.6448120000000  0.5036070000000 1.0
C      1  0.5004590000000  0.4665350000000  0.5142580000000 1.0
C      1  0.5164410000000  0.4883340000000  0.5247730000000 1.0
C      1  0.5824550000000  0.6110600000000  0.5164790000000 1.0
C      1  0.4254910000000  0.4887850000000  0.4703840000000 1.0
C      1  0.4410440000000  0.4923160000000  0.4930600000000 1.0
C      1  0.5094190000000  0.5136850000000  0.5128780000000 1.0
C      1  0.5167300000000  0.4949900000000  0.5757550000000 1.0
C      1  0.5089720000000  0.4354910000000  0.3260950000000 1.0
C      1  0.5268350000000  0.5802890000000  0.5521520000000 1.0
C      1  0.4890650000000  0.5507140000000  0.5723150000000 1.0
C      1  0.5038900000000  0.4225230000000  0.3481220000000 1.0
C      1  0.5071660000000  0.5714570000000  0.5676920000000 1.0
C      1  0.5281010000000  0.5309880000000  0.5007670000000 1.0
C      1  0.4866560000000  0.4728050000000  0.4896640000000 1.0
C      1  0.4720500000000  0.5426220000000  0.5514430000000 1.0
C      1  0.4943430000000  0.4340040000000  0.4193590000000 1.0
C      1  0.4118460000000  0.4848080000000  0.4485410000000 1.0
C      1  0.4699370000000  0.3697720000000  0.3664380000000 1.0
C      1  0.4922960000000  0.5330870000000  0.5945010000000 1.0
C      1  0.4571370000000  0.4818530000000  0.5602890000000 1.0
C      1  0.4666360000000  0.4571300000000  0.5502080000000 1.0
C      1  0.6017140000000  0.6280760000000  0.5099900000000 1.0
C      1  0.4473570000000  0.5008240000000  0.5411040000000 1.0
C      1  0.5256360000000  0.4883490000000  0.5513290000000 1.0
C      1  0.5431610000000  0.5188010000000  0.4503790000000 1.0
C      1  0.4938050000000  0.5423010000000  0.6207010000000 1.0
C      1  0.4949560000000  0.3801330000000  0.3705370000000 1.0
C      1  0.4306180000000  0.4930230000000  0.5195330000000 1.0
C      1  0.5632090000000  0.5940540000000  0.5229620000000 1.0
C      1  0.4963770000000  0.4217120000000  0.3959860000000 1.0
C      1  0.5381520000000  0.5533250000000  0.5141750000000 1.0
C      1  0.5166770000000  0.3637460000000  0.3736730000000 1.0
END
