TITL C-599897-7526-518 3481.00492230157 125000 -818.638639858077 0 0 133 (C1) n - 1
REM
REM in /home/nfs/bkarasulu/CARBON/AIRSS/Generating-Clusters/TERSOFF/Only-C1/FIRE-HFTN
REM
REM
REM
REM
REM
REM ./C.cell (11c1c37f851c82e70ff6c80c92926a4b)
REM AIRSS Version 0.9.1 bugfix July 2018 build 013d7b7c2542+ Fri, 06 Jul 2018 19:26:36 +0100
REM compiler GCC version 9.2.1 20190827 (Red Hat 9.2.1-1)
REM options -cpp -mtune=generic -march=x86-64 -g -O0 -fpre-include=/usr/include/finclude/math-vector-fortran.h
REM seed 1293129316 -742156422 1970428960 -2047101578 1139135913 -2003432880 -427793415 -2057228199 1568177285 -829697854 -129804826 1922355656 -1041059698 -1057623717 -392691020 325901182 264730243 1080381928 486131497 1394992898 -1072709411 -557704451 -354882427 583339747 2027429354 -375175886 1346423673 1266431562 170514072 -2106710776 -2037981846 1447316648 3241745
REM
CELL 1.54180   50.00000   50.00000   50.00000   90.00000   90.00000   90.00000
LATT -1
SFAC C  
C      1  0.4043570000000  0.5249320000000  0.5797040000000 1.0
C      1  0.5338770000000  0.5326050000000  0.4699470000000 1.0
C      1  0.5001510000000  0.4027230000000  0.4818010000000 1.0
C      1  0.4344250000000  0.4874630000000  0.5868640000000 1.0
C      1  0.4769200000000  0.6030060000000  0.5409750000000 1.0
C      1  0.4977620000000  0.4293170000000  0.4901350000000 1.0
C      1  0.5904020000000  0.4868540000000  0.5008460000000 1.0
C      1  0.4833280000000  0.5599080000000  0.5269620000000 1.0
C      1  0.5158730000000  0.5517000000000  0.5762150000000 1.0
C      1  0.3539640000000  0.5931070000000  0.4981620000000 1.0
C      1  0.5014010000000  0.5015880000000  0.5372580000000 1.0
C      1  0.5057340000000  0.6315530000000  0.5113880000000 1.0
C      1  0.5240470000000  0.6008640000000  0.4754190000000 1.0
C      1  0.5763440000000  0.4899290000000  0.5991870000000 1.0
C      1  0.5101210000000  0.4071890000000  0.5394550000000 1.0
C      1  0.4278440000000  0.5145930000000  0.5910280000000 1.0
C      1  0.4988010000000  0.4852630000000  0.5160390000000 1.0
C      1  0.5243220000000  0.4883280000000  0.5773560000000 1.0
C      1  0.4213900000000  0.4552460000000  0.4837630000000 1.0
C      1  0.5147690000000  0.4876240000000  0.6050420000000 1.0
C      1  0.5162560000000  0.4554660000000  0.3801080000000 1.0
C      1  0.5091430000000  0.4790070000000  0.4531630000000 1.0
C      1  0.5605210000000  0.4970350000000  0.6197850000000 1.0
C      1  0.3862210000000  0.4348910000000  0.3046400000000 1.0
C      1  0.4887870000000  0.4353050000000  0.4146070000000 1.0
C      1  0.5493720000000  0.4981120000000  0.5363510000000 1.0
C      1  0.5736730000000  0.4065240000000  0.5126840000000 1.0
C      1  0.6626420000000  0.5117090000000  0.4462280000000 1.0
C      1  0.4598460000000  0.4823320000000  0.4487090000000 1.0
C      1  0.4690030000000  0.5358060000000  0.5710890000000 1.0
C      1  0.4559840000000  0.5844830000000  0.4931360000000 1.0
C      1  0.5758790000000  0.4928030000000  0.5474340000000 1.0
C      1  0.4490340000000  0.4259050000000  0.4506090000000 1.0
C      1  0.5825420000000  0.3822780000000  0.5211520000000 1.0
C      1  0.5337390000000  0.4967370000000  0.6236410000000 1.0
C      1  0.4201010000000  0.4480580000000  0.5318920000000 1.0
C      1  0.5201790000000  0.4695930000000  0.5028840000000 1.0
C      1  0.4525330000000  0.4663660000000  0.4264500000000 1.0
C      1  0.5301570000000  0.5035990000000  0.4122400000000 1.0
C      1  0.3945360000000  0.5351230000000  0.5571020000000 1.0
C      1  0.4705040000000  0.4410730000000  0.3685890000000 1.0
C      1  0.5169140000000  0.4405260000000  0.5080460000000 1.0
C      1  0.3726540000000  0.5756770000000  0.5032630000000 1.0
C      1  0.5576260000000  0.5188570000000  0.4785720000000 1.0
C      1  0.5141580000000  0.6248590000000  0.4865600000000 1.0
C      1  0.5283330000000  0.5615230000000  0.5992870000000 1.0
C      1  0.4497010000000  0.4389830000000  0.3523300000000 1.0
C      1  0.4583570000000  0.4176180000000  0.5284020000000 1.0
C      1  0.5385100000000  0.4459420000000  0.4221430000000 1.0
C      1  0.5628730000000  0.4885830000000  0.4873510000000 1.0
C      1  0.6105470000000  0.5050750000000  0.4590690000000 1.0
C      1  0.5690390000000  0.5758780000000  0.6654330000000 1.0
C      1  0.5787440000000  0.4173890000000  0.4873870000000 1.0
C      1  0.4074200000000  0.4360540000000  0.3205090000000 1.0
C      1  0.4591360000000  0.5983310000000  0.5183170000000 1.0
C      1  0.4651580000000  0.5281450000000  0.4967610000000 1.0
C      1  0.4410070000000  0.4347210000000  0.5449330000000 1.0
C      1  0.5263800000000  0.5507720000000  0.5137730000000 1.0
C      1  0.4115390000000  0.6097820000000  0.4424070000000 1.0
C      1  0.5821990000000  0.5331480000000  0.4891640000000 1.0
C      1  0.4493420000000  0.4772880000000  0.5651920000000 1.0
C      1  0.5092510000000  0.5691000000000  0.5265990000000 1.0
C      1  0.4822110000000  0.4485020000000  0.4766340000000 1.0
C      1  0.4127360000000  0.5534660000000  0.4866300000000 1.0
C      1  0.5704490000000  0.4475500000000  0.5390890000000 1.0
C      1  0.3653620000000  0.4337940000000  0.2890400000000 1.0
C      1  0.4285910000000  0.4373700000000  0.3363940000000 1.0
C      1  0.5553770000000  0.5721480000000  0.6435450000000 1.0
C      1  0.3935730000000  0.5576020000000  0.5076610000000 1.0
C      1  0.5183990000000  0.4031970000000  0.4372610000000 1.0
C      1  0.5711970000000  0.4825210000000  0.4246200000000 1.0
C      1  0.6024080000000  0.5104620000000  0.4868770000000 1.0
C      1  0.4065360000000  0.4746010000000  0.4677270000000 1.0
C      1  0.5580130000000  0.4241160000000  0.5284270000000 1.0
C      1  0.5317370000000  0.5356900000000  0.5579740000000 1.0
C      1  0.4831750000000  0.4713110000000  0.4599550000000 1.0
C      1  0.5780790000000  0.5600440000000  0.5005600000000 1.0
C      1  0.5521580000000  0.5965210000000  0.4728880000000 1.0
C      1  0.3949760000000  0.5440230000000  0.5320610000000 1.0
C      1  0.5920650000000  0.4964020000000  0.4383370000000 1.0
C      1  0.5743690000000  0.4798270000000  0.5732630000000 1.0
C      1  0.4650810000000  0.5207420000000  0.5462470000000 1.0
C      1  0.5106700000000  0.3913870000000  0.4599690000000 1.0
C      1  0.5861020000000  0.4726900000000  0.5272760000000 1.0
C      1  0.5263980000000  0.4680010000000  0.4723860000000 1.0
C      1  0.4740920000000  0.5443330000000  0.4751160000000 1.0
C      1  0.4433610000000  0.4879530000000  0.5155200000000 1.0
C      1  0.5143210000000  0.5249580000000  0.4509420000000 1.0
C      1  0.4910890000000  0.4440860000000  0.3870190000000 1.0
C      1  0.5705830000000  0.4408700000000  0.4777950000000 1.0
C      1  0.4530910000000  0.5032340000000  0.4929750000000 1.0
C      1  0.5257380000000  0.5064280000000  0.5542390000000 1.0
C      1  0.5048250000000  0.4467030000000  0.5812120000000 1.0
C      1  0.5295410000000  0.4231210000000  0.5263160000000 1.0
C      1  0.5301400000000  0.4591560000000  0.5710730000000 1.0
C      1  0.4828980000000  0.4374500000000  0.5657450000000 1.0
C      1  0.4521640000000  0.4951310000000  0.5425350000000 1.0
C      1  0.5246580000000  0.5536890000000  0.4861380000000 1.0
C      1  0.4838850000000  0.4166820000000  0.5446460000000 1.0
C      1  0.5520610000000  0.5907640000000  0.5339730000000 1.0
C      1  0.4259820000000  0.4654610000000  0.5105600000000 1.0
C      1  0.4092540000000  0.5289250000000  0.4713460000000 1.0
C      1  0.4780800000000  0.5844140000000  0.5637230000000 1.0
C      1  0.5558570000000  0.4651020000000  0.4687830000000 1.0
C      1  0.6375160000000  0.5084990000000  0.4523570000000 1.0
C      1  0.5415750000000  0.5678720000000  0.6213260000000 1.0
C      1  0.4503710000000  0.5315880000000  0.5917540000000 1.0
C      1  0.5153410000000  0.4286510000000  0.4258490000000 1.0
C      1  0.5168990000000  0.5011170000000  0.4370210000000 1.0
C      1  0.5584140000000  0.4557340000000  0.5656650000000 1.0
C      1  0.4570000000000  0.4501530000000  0.5633550000000 1.0
C      1  0.4379170000000  0.4309830000000  0.4773430000000 1.0
C      1  0.5580340000000  0.4608990000000  0.4390710000000 1.0
C      1  0.5230280000000  0.5934380000000  0.5343370000000 1.0
C      1  0.5457700000000  0.5455710000000  0.5345120000000 1.0
C      1  0.5083320000000  0.5769540000000  0.4780220000000 1.0
C      1  0.5386220000000  0.4608120000000  0.3963620000000 1.0
C      1  0.4876100000000  0.5579530000000  0.5721650000000 1.0
C      1  0.5440170000000  0.4857620000000  0.5112410000000 1.0
C      1  0.5030430000000  0.6141150000000  0.5334770000000 1.0
C      1  0.5510400000000  0.4866070000000  0.4033820000000 1.0
C      1  0.4998840000000  0.4626990000000  0.6054740000000 1.0
C      1  0.4209150000000  0.5938590000000  0.4607790000000 1.0
C      1  0.4494590000000  0.4168500000000  0.5007570000000 1.0
C      1  0.4302240000000  0.5765590000000  0.4810570000000 1.0
C      1  0.4446750000000  0.4979980000000  0.4662850000000 1.0
C      1  0.5725350000000  0.5811970000000  0.4819350000000 1.0
C      1  0.5660780000000  0.5651590000000  0.5273030000000 1.0
C      1  0.4793390000000  0.5721670000000  0.4804750000000 1.0
C      1  0.4689020000000  0.5367120000000  0.5231620000000 1.0
C      1  0.4624430000000  0.4390260000000  0.4281020000000 1.0
C      1  0.4163070000000  0.5019700000000  0.4642250000000 1.0
C      1  0.4880580000000  0.5344220000000  0.4532000000000 1.0
END
