TITL C-599894-471-704 2.80577657512185e-05 125000 -847.314557328014 0 0 139 (C1) n - 1
REM
REM in /home/nfs/bkarasulu/CARBON/AIRSS/Generating-Clusters/TERSOFF/Only-C1/FIRE-HFTN
REM
REM
REM
REM
REM
REM ./C.cell (11c1c37f851c82e70ff6c80c92926a4b)
REM AIRSS Version 0.9.1 bugfix July 2018 build 013d7b7c2542+ Fri, 06 Jul 2018 19:26:36 +0100
REM compiler GCC version 9.2.1 20190827 (Red Hat 9.2.1-1)
REM options -cpp -mtune=generic -march=x86-64 -g -O0 -fpre-include=/usr/include/finclude/math-vector-fortran.h
REM seed -656644636 191752192 -624640019 1880206721 1210437204 -2106029577 -1681788699 -1470638567 -2017081277 943047417 -297075043 707718168 41704551 -1610794708 -265172027 -561276054 -1038794660 -1415387237 392194869 1125820708 319341083 1493528523 980645326 -748691616 -976376149 -1014521289 -2146964946 -209775434 992821128 692516331 1603271549 -1437996031 461827029
REM
CELL 1.54180   50.00000   50.00000   50.00000   90.00000   90.00000   90.00000
LATT -1
SFAC C  
C      1  0.4586510000000  0.5470890000000  0.5848230000000 1.0
C      1  0.5112990000000  0.5177000000000  0.5281990000000 1.0
C      1  0.5124840000000  0.4309040000000  0.5269170000000 1.0
C      1  0.4970270000000  0.4751280000000  0.5478610000000 1.0
C      1  0.4940930000000  0.4083890000000  0.4203670000000 1.0
C      1  0.4690390000000  0.3992700000000  0.4673190000000 1.0
C      1  0.4906300000000  0.4931700000000  0.4749620000000 1.0
C      1  0.3966700000000  0.4712020000000  0.5324060000000 1.0
C      1  0.4042580000000  0.4980760000000  0.4470110000000 1.0
C      1  0.6164840000000  0.4914290000000  0.4797440000000 1.0
C      1  0.4375680000000  0.4308640000000  0.5012070000000 1.0
C      1  0.5334710000000  0.5837600000000  0.5238520000000 1.0
C      1  0.5085930000000  0.5936230000000  0.4515040000000 1.0
C      1  0.4174090000000  0.5046650000000  0.4710400000000 1.0
C      1  0.4791420000000  0.4578470000000  0.5061680000000 1.0
C      1  0.5668990000000  0.4574020000000  0.4350360000000 1.0
C      1  0.5546300000000  0.5376420000000  0.4683410000000 1.0
C      1  0.5865520000000  0.4608050000000  0.6340490000000 1.0
C      1  0.4194230000000  0.4569570000000  0.5723410000000 1.0
C      1  0.4013560000000  0.4477820000000  0.4617080000000 1.0
C      1  0.5336190000000  0.4963440000000  0.6381390000000 1.0
C      1  0.5793270000000  0.5071730000000  0.5865540000000 1.0
C      1  0.5351490000000  0.4682080000000  0.6377110000000 1.0
C      1  0.5467060000000  0.4936780000000  0.4080170000000 1.0
C      1  0.5426500000000  0.3916690000000  0.5216750000000 1.0
C      1  0.4377900000000  0.4793040000000  0.5018720000000 1.0
C      1  0.4588930000000  0.5797290000000  0.4513180000000 1.0
C      1  0.5272250000000  0.4381090000000  0.4594420000000 1.0
C      1  0.5822650000000  0.5775430000000  0.5020130000000 1.0
C      1  0.3942740000000  0.4929590000000  0.5130030000000 1.0
C      1  0.5029560000000  0.4298510000000  0.4028270000000 1.0
C      1  0.4950070000000  0.4392130000000  0.6157400000000 1.0
C      1  0.4133190000000  0.5417480000000  0.4219830000000 1.0
C      1  0.4356680000000  0.5244240000000  0.4873470000000 1.0
C      1  0.4448020000000  0.5049850000000  0.5112600000000 1.0
C      1  0.4328420000000  0.5787260000000  0.4637180000000 1.0
C      1  0.4794850000000  0.4531500000000  0.4542470000000 1.0
C      1  0.5347340000000  0.5175600000000  0.4196530000000 1.0
C      1  0.4664160000000  0.4258110000000  0.5735690000000 1.0
C      1  0.4352710000000  0.4333420000000  0.5326330000000 1.0
C      1  0.4403870000000  0.5452140000000  0.4147600000000 1.0
C      1  0.4994040000000  0.4340020000000  0.4573220000000 1.0
C      1  0.5316910000000  0.5779330000000  0.4429080000000 1.0
C      1  0.4856010000000  0.4392950000000  0.3819730000000 1.0
C      1  0.5475320000000  0.5367990000000  0.6072490000000 1.0
C      1  0.5079100000000  0.5512710000000  0.4993430000000 1.0
C      1  0.5058370000000  0.5433120000000  0.4566120000000 1.0
C      1  0.4932650000000  0.5126820000000  0.5847890000000 1.0
C      1  0.5986240000000  0.4811530000000  0.4600920000000 1.0
C      1  0.5835900000000  0.5016000000000  0.4438450000000 1.0
C      1  0.4652700000000  0.5173700000000  0.5907920000000 1.0
C      1  0.5261000000000  0.5317260000000  0.5093960000000 1.0
C      1  0.4830360000000  0.5917310000000  0.4668300000000 1.0
C      1  0.5602290000000  0.5853040000000  0.5152030000000 1.0
C      1  0.5685660000000  0.4847680000000  0.4241070000000 1.0
C      1  0.4433830000000  0.4766460000000  0.4064250000000 1.0
C      1  0.5323450000000  0.4839090000000  0.5789990000000 1.0
C      1  0.5715030000000  0.5341330000000  0.5902060000000 1.0
C      1  0.5290220000000  0.5436580000000  0.4080680000000 1.0
C      1  0.4492660000000  0.5626890000000  0.5297550000000 1.0
C      1  0.4598410000000  0.5646690000000  0.4251480000000 1.0
C      1  0.5685900000000  0.5554980000000  0.5705110000000 1.0
C      1  0.4434750000000  0.5005090000000  0.5817370000000 1.0
C      1  0.5254390000000  0.4746770000000  0.4012500000000 1.0
C      1  0.5044220000000  0.4912100000000  0.5243510000000 1.0
C      1  0.3928710000000  0.5227440000000  0.5110310000000 1.0
C      1  0.5415330000000  0.5663790000000  0.5698060000000 1.0
C      1  0.4502300000000  0.5076400000000  0.3745470000000 1.0
C      1  0.4126000000000  0.4345430000000  0.4827290000000 1.0
C      1  0.5407040000000  0.5202420000000  0.6285880000000 1.0
C      1  0.5794300000000  0.5278420000000  0.4569370000000 1.0
C      1  0.4945550000000  0.5807950000000  0.5543090000000 1.0
C      1  0.5254730000000  0.4472200000000  0.4106930000000 1.0
C      1  0.4504700000000  0.5219970000000  0.4008160000000 1.0
C      1  0.5320500000000  0.4451280000000  0.5105660000000 1.0
C      1  0.5398080000000  0.4351920000000  0.4847130000000 1.0
C      1  0.4532240000000  0.4078260000000  0.4879390000000 1.0
C      1  0.5413810000000  0.4440950000000  0.4348050000000 1.0
C      1  0.6025930000000  0.4759830000000  0.6189230000000 1.0
C      1  0.4830700000000  0.5644990000000  0.4089240000000 1.0
C      1  0.5050950000000  0.4885260000000  0.5726700000000 1.0
C      1  0.4973310000000  0.4996710000000  0.4485260000000 1.0
C      1  0.4789270000000  0.4292870000000  0.5969140000000 1.0
C      1  0.4147600000000  0.4516590000000  0.5447450000000 1.0
C      1  0.4639210000000  0.5394320000000  0.5350890000000 1.0
C      1  0.4327920000000  0.4753830000000  0.5864980000000 1.0
C      1  0.4564950000000  0.4993490000000  0.4189660000000 1.0
C      1  0.4117430000000  0.4846500000000  0.4916350000000 1.0
C      1  0.4834280000000  0.5607360000000  0.5754990000000 1.0
C      1  0.5286230000000  0.5508220000000  0.5909480000000 1.0
C      1  0.5642040000000  0.4196730000000  0.4858000000000 1.0
C      1  0.4619640000000  0.5363200000000  0.4787600000000 1.0
C      1  0.5582680000000  0.4901350000000  0.5782680000000 1.0
C      1  0.5248050000000  0.5060360000000  0.4452270000000 1.0
C      1  0.4905530000000  0.5333270000000  0.5386420000000 1.0
C      1  0.6022850000000  0.5387260000000  0.4713860000000 1.0
C      1  0.4680650000000  0.4568350000000  0.3708710000000 1.0
C      1  0.6006590000000  0.4950840000000  0.6001860000000 1.0
C      1  0.4321210000000  0.5440650000000  0.5730670000000 1.0
C      1  0.6182520000000  0.4787620000000  0.5045930000000 1.0
C      1  0.4806040000000  0.5974510000000  0.5310980000000 1.0
C      1  0.5331400000000  0.5529470000000  0.4574920000000 1.0
C      1  0.5762880000000  0.4665420000000  0.5302640000000 1.0
C      1  0.6217920000000  0.5192530000000  0.4776430000000 1.0
C      1  0.5132720000000  0.4524320000000  0.6299710000000 1.0
C      1  0.4938030000000  0.4814050000000  0.4999720000000 1.0
C      1  0.4543950000000  0.4565970000000  0.4480060000000 1.0
C      1  0.5498700000000  0.5293300000000  0.4953390000000 1.0
C      1  0.5407140000000  0.4935150000000  0.4639370000000 1.0
C      1  0.4997560000000  0.4866590000000  0.4026910000000 1.0
C      1  0.4504920000000  0.4778920000000  0.3780750000000 1.0
C      1  0.4836790000000  0.4956250000000  0.4244700000000 1.0
C      1  0.4624210000000  0.4335030000000  0.5465590000000 1.0
C      1  0.4464710000000  0.5168370000000  0.5360890000000 1.0
C      1  0.5871510000000  0.4547340000000  0.4558240000000 1.0
C      1  0.5127750000000  0.5780670000000  0.5050690000000 1.0
C      1  0.6017610000000  0.4709610000000  0.5240450000000 1.0
C      1  0.5406360000000  0.5689290000000  0.4169720000000 1.0
C      1  0.4870000000000  0.4470890000000  0.5340080000000 1.0
C      1  0.3997880000000  0.5196590000000  0.4296770000000 1.0
C      1  0.5979780000000  0.5622390000000  0.4865060000000 1.0
C      1  0.4627180000000  0.6170390000000  0.5378690000000 1.0
C      1  0.4316480000000  0.5171170000000  0.5604790000000 1.0
C      1  0.5858350000000  0.4320120000000  0.4724890000000 1.0
C      1  0.5619510000000  0.3976580000000  0.5034830000000 1.0
C      1  0.5207000000000  0.4042000000000  0.5317780000000 1.0
C      1  0.4133930000000  0.5443550000000  0.4986860000000 1.0
C      1  0.3977250000000  0.4700710000000  0.4462490000000 1.0
C      1  0.5037100000000  0.5405540000000  0.5844160000000 1.0
C      1  0.4127410000000  0.5645900000000  0.4754540000000 1.0
C      1  0.5027710000000  0.5492070000000  0.3987700000000 1.0
C      1  0.4240320000000  0.5622650000000  0.5203790000000 1.0
C      1  0.5246440000000  0.5796730000000  0.5510380000000 1.0
C      1  0.5608820000000  0.4571580000000  0.6406000000000 1.0
C      1  0.4891910000000  0.5432240000000  0.4792210000000 1.0
C      1  0.4889370000000  0.5936920000000  0.5021270000000 1.0
C      1  0.5511150000000  0.4609060000000  0.5239080000000 1.0
C      1  0.4888100000000  0.4085050000000  0.4488340000000 1.0
C      1  0.4527240000000  0.4565150000000  0.4976560000000 1.0
END
