TITL C-599893-4344-1384 3.81988054696831 125000 -273.66572415952 0 0 47 (C1) n - 1
REM
REM in /home/nfs/bkarasulu/CARBON/AIRSS/Generating-Clusters/TERSOFF/Only-C1/FIRE-HFTN
REM
REM
REM
REM
REM
REM ./C.cell (11c1c37f851c82e70ff6c80c92926a4b)
REM AIRSS Version 0.9.1 bugfix July 2018 build 013d7b7c2542+ Fri, 06 Jul 2018 19:26:36 +0100
REM compiler GCC version 9.2.1 20190827 (Red Hat 9.2.1-1)
REM options -cpp -mtune=generic -march=x86-64 -g -O0 -fpre-include=/usr/include/finclude/math-vector-fortran.h
REM seed -381886233 82695331 -1507771176 -640164739 513715266 1356672011 -1752346851 -537856960 1728672696 -2024224148 1567350095 770807989 -646588787 1011975568 -1528715428 363006509 -1805814555 1426598037 -1879223347 -1939681876 217485751 781729752 -316399213 1220769885 1018805852 -1508427819 -48153346 -713941340 -799338362 74393818 703212708 -1772203308 -747990961
REM
CELL 1.54180   50.00000   50.00000   50.00000   90.00000   90.00000   90.00000
LATT -1
SFAC C  
C      1  0.5164120000000  0.5063630000000  0.4759030000000 1.0
C      1  0.4702540000000  0.4138320000000  0.5406340000000 1.0
C      1  0.5644090000000  0.4813710000000  0.5111790000000 1.0
C      1  0.5732040000000  0.4908690000000  0.4858870000000 1.0
C      1  0.4642290000000  0.4562070000000  0.4791340000000 1.0
C      1  0.4600350000000  0.4366080000000  0.4988760000000 1.0
C      1  0.5338200000000  0.4577920000000  0.5646870000000 1.0
C      1  0.4296710000000  0.4848070000000  0.4598920000000 1.0
C      1  0.4888600000000  0.4551210000000  0.4644740000000 1.0
C      1  0.4704250000000  0.4361180000000  0.5249950000000 1.0
C      1  0.5091570000000  0.5025210000000  0.5682400000000 1.0
C      1  0.3895790000000  0.6607190000000  0.4741820000000 1.0
C      1  0.5433050000000  0.4496190000000  0.5409670000000 1.0
C      1  0.5084780000000  0.4954760000000  0.5003410000000 1.0
C      1  0.5209360000000  0.4780010000000  0.5769290000000 1.0
C      1  0.5363660000000  0.5279490000000  0.4394100000000 1.0
C      1  0.4943000000000  0.4736450000000  0.4149370000000 1.0
C      1  0.5068600000000  0.4966560000000  0.4058220000000 1.0
C      1  0.5124690000000  0.4443330000000  0.4763830000000 1.0
C      1  0.5505800000000  0.5163750000000  0.5430820000000 1.0
C      1  0.4815230000000  0.4607790000000  0.5333020000000 1.0
C      1  0.5402180000000  0.5209050000000  0.4672530000000 1.0
C      1  0.5337260000000  0.4463140000000  0.4928460000000 1.0
C      1  0.5949830000000  0.4969120000000  0.5460150000000 1.0
C      1  0.5656170000000  0.5174490000000  0.4787540000000 1.0
C      1  0.4323190000000  0.5689610000000  0.5041800000000 1.0
C      1  0.5276740000000  0.5201690000000  0.5564860000000 1.0
C      1  0.5485610000000  0.4575830000000  0.5143210000000 1.0
C      1  0.4541580000000  0.5212460000000  0.5186570000000 1.0
C      1  0.4683120000000  0.5191360000000  0.5431470000000 1.0
C      1  0.4729580000000  0.4741850000000  0.5565550000000 1.0
C      1  0.5884830000000  0.4755070000000  0.4692460000000 1.0
C      1  0.4429990000000  0.5458840000000  0.5115920000000 1.0
C      1  0.4134570000000  0.4893050000000  0.4399930000000 1.0
C      1  0.5024730000000  0.4996480000000  0.4515570000000 1.0
C      1  0.4483770000000  0.4802160000000  0.4801690000000 1.0
C      1  0.5824530000000  0.5385600000000  0.4829490000000 1.0
C      1  0.4921340000000  0.4736430000000  0.4436690000000 1.0
C      1  0.5700170000000  0.4983940000000  0.5335840000000 1.0
C      1  0.4108640000000  0.6150240000000  0.4891220000000 1.0
C      1  0.4215920000000  0.5919930000000  0.4966520000000 1.0
C      1  0.4817220000000  0.5010570000000  0.5601550000000 1.0
C      1  0.6183860000000  0.4949840000000  0.5573140000000 1.0
C      1  0.4980300000000  0.4766230000000  0.5163210000000 1.0
C      1  0.4001330000000  0.6380610000000  0.4815900000000 1.0
C      1  0.5144530000000  0.5138070000000  0.4276200000000 1.0
C      1  0.4510320000000  0.4992740000000  0.5009960000000 1.0
END
