TITL C-599897-7526-860 3.39961421273639e-06 125000 -279.052602604879 0 0 47 (C1) n - 1
REM
REM in /home/nfs/bkarasulu/CARBON/AIRSS/Generating-Clusters/TERSOFF/Only-C1/FIRE-HFTN
REM
REM
REM
REM
REM
REM ./C.cell (11c1c37f851c82e70ff6c80c92926a4b)
REM AIRSS Version 0.9.1 bugfix July 2018 build 013d7b7c2542+ Fri, 06 Jul 2018 19:26:36 +0100
REM compiler GCC version 9.2.1 20190827 (Red Hat 9.2.1-1)
REM options -cpp -mtune=generic -march=x86-64 -g -O0 -fpre-include=/usr/include/finclude/math-vector-fortran.h
REM seed 1161098110 -1307445514 1314100533 -1368921552 1212906383 1591860041 -1074139584 -830211724 -160096066 -1214985324 -1905683330 -667843462 757128880 -1775884683 937701503 -987325457 564634729 -1505866478 1044049670 -470702433 -1246492529 1583823913 -107375808 -480370983 -2026201238 752291095 -1501493535 2072649279 -163546013 1931931731 -154132811 -398121322 1641605836
REM
CELL 1.54180   50.00000   50.00000   50.00000   90.00000   90.00000   90.00000
LATT -1
SFAC C  
C      1  0.4650080000000  0.4680650000000  0.5419360000000 1.0
C      1  0.5463650000000  0.5432430000000  0.4719500000000 1.0
C      1  0.4870270000000  0.4907930000000  0.5074550000000 1.0
C      1  0.5100630000000  0.4454190000000  0.5361490000000 1.0
C      1  0.4752380000000  0.5155940000000  0.4637770000000 1.0
C      1  0.4683030000000  0.4296710000000  0.5132930000000 1.0
C      1  0.4640580000000  0.4320490000000  0.4861090000000 1.0
C      1  0.4804100000000  0.4455190000000  0.4666550000000 1.0
C      1  0.5636600000000  0.5506620000000  0.4933100000000 1.0
C      1  0.5890490000000  0.5396420000000  0.4985300000000 1.0
C      1  0.5339100000000  0.4717990000000  0.4440310000000 1.0
C      1  0.5261380000000  0.4694360000000  0.5377150000000 1.0
C      1  0.5052700000000  0.4775270000000  0.4893990000000 1.0
C      1  0.5027990000000  0.5086780000000  0.5243490000000 1.0
C      1  0.4500700000000  0.5274410000000  0.4812180000000 1.0
C      1  0.5465610000000  0.4783020000000  0.4675880000000 1.0
C      1  0.4555660000000  0.4770990000000  0.5891720000000 1.0
C      1  0.5346680000000  0.5662270000000  0.4590870000000 1.0
C      1  0.4996070000000  0.5285840000000  0.4699950000000 1.0
C      1  0.4386620000000  0.4882410000000  0.4568060000000 1.0
C      1  0.5945060000000  0.5237970000000  0.5198130000000 1.0
C      1  0.4497580000000  0.5115470000000  0.5546640000000 1.0
C      1  0.4567380000000  0.4850500000000  0.5631540000000 1.0
C      1  0.4330270000000  0.5015950000000  0.4818270000000 1.0
C      1  0.4490750000000  0.5292830000000  0.5342330000000 1.0
C      1  0.4592900000000  0.5380230000000  0.5090810000000 1.0
C      1  0.5050340000000  0.4505010000000  0.4811340000000 1.0
C      1  0.5084550000000  0.4690740000000  0.4346410000000 1.0
C      1  0.5319620000000  0.4928510000000  0.4900710000000 1.0
C      1  0.5491550000000  0.5607730000000  0.5160240000000 1.0
C      1  0.5207610000000  0.4300470000000  0.4923630000000 1.0
C      1  0.5335700000000  0.5426630000000  0.5312350000000 1.0
C      1  0.4804870000000  0.4444940000000  0.5355590000000 1.0
C      1  0.4622150000000  0.4814560000000  0.5166640000000 1.0
C      1  0.5316910000000  0.4955440000000  0.5225460000000 1.0
C      1  0.5274080000000  0.5207290000000  0.4756180000000 1.0
C      1  0.5479270000000  0.5171920000000  0.5352750000000 1.0
C      1  0.4819960000000  0.4665630000000  0.4458870000000 1.0
C      1  0.4858100000000  0.5504670000000  0.5085900000000 1.0
C      1  0.4360690000000  0.5493750000000  0.4657740000000 1.0
C      1  0.5759020000000  0.5149630000000  0.5373590000000 1.0
C      1  0.5221620000000  0.4259010000000  0.5191430000000 1.0
C      1  0.4950300000000  0.5552390000000  0.4818500000000 1.0
C      1  0.5103610000000  0.5747510000000  0.4684280000000 1.0
C      1  0.4372630000000  0.4861770000000  0.5048760000000 1.0
C      1  0.4666750000000  0.4904020000000  0.4500330000000 1.0
C      1  0.5052440000000  0.5375530000000  0.5256340000000 1.0
END
