TITL C-599892-9790-778 -0.014620819553642 125000 -429.181008392102 0 0 72 (C1) n - 1
REM
REM in /home/nfs/bkarasulu/CARBON/AIRSS/Generating-Clusters/TERSOFF/Only-C1/FIRE-HFTN
REM
REM
REM
REM
REM
REM ./C.cell (11c1c37f851c82e70ff6c80c92926a4b)
REM AIRSS Version 0.9.1 bugfix July 2018 build 013d7b7c2542+ Fri, 06 Jul 2018 19:26:36 +0100
REM compiler GCC version 9.2.1 20190827 (Red Hat 9.2.1-1)
REM options -cpp -mtune=generic -march=x86-64 -g -O0 -fpre-include=/usr/include/finclude/math-vector-fortran.h
REM seed -2042265843 415772397 -2017843061 -537332969 -811666474 56378488 378077749 -36563731 -1693664415 553479265 -1843230057 -1268566840 -460937413 -1016811496 1135392760 1699783912 -243837508 1603190751 -946193191 197248156 1103843185 -2006269257 303112503 1338309304 238942962 -189752985 -548626250 856129100 -1457593153 1584976220 -369775853 -1577599873 1668785391
REM
CELL 1.54180   50.00000   50.00000   50.00000   90.00000   90.00000   90.00000
LATT -1
SFAC C  
C      1  0.4823650000000  0.4210650000000  0.4525390000000 1.0
C      1  0.5592260000000  0.5625410000000  0.5396580000000 1.0
C      1  0.4900770000000  0.4193790000000  0.5505310000000 1.0
C      1  0.5611670000000  0.5053950000000  0.5323430000000 1.0
C      1  0.5782740000000  0.4995900000000  0.5111040000000 1.0
C      1  0.5529650000000  0.5649060000000  0.5117800000000 1.0
C      1  0.5607090000000  0.4863200000000  0.4198090000000 1.0
C      1  0.5394990000000  0.4393830000000  0.5157610000000 1.0
C      1  0.4314350000000  0.4960750000000  0.5197100000000 1.0
C      1  0.5460490000000  0.4833230000000  0.5726470000000 1.0
C      1  0.4339180000000  0.4672840000000  0.5178300000000 1.0
C      1  0.4226320000000  0.4574670000000  0.4658420000000 1.0
C      1  0.4278310000000  0.5950710000000  0.5036840000000 1.0
C      1  0.4062860000000  0.5193150000000  0.4797090000000 1.0
C      1  0.4904530000000  0.5092900000000  0.5516860000000 1.0
C      1  0.3748610000000  0.5621730000000  0.4707500000000 1.0
C      1  0.4093700000000  0.4790740000000  0.4527160000000 1.0
C      1  0.5341450000000  0.5073310000000  0.5847390000000 1.0
C      1  0.4657190000000  0.5206390000000  0.4357090000000 1.0
C      1  0.4862680000000  0.4929520000000  0.4819130000000 1.0
C      1  0.5334510000000  0.4577400000000  0.4497760000000 1.0
C      1  0.5313730000000  0.5359530000000  0.5794510000000 1.0
C      1  0.5281040000000  0.5272140000000  0.5032910000000 1.0
C      1  0.5400970000000  0.4362180000000  0.4673410000000 1.0
C      1  0.4851260000000  0.5554640000000  0.5762640000000 1.0
C      1  0.3903320000000  0.5417630000000  0.4755690000000 1.0
C      1  0.5363310000000  0.5382250000000  0.4569640000000 1.0
C      1  0.5706440000000  0.4818370000000  0.4680310000000 1.0
C      1  0.5512960000000  0.5622890000000  0.4623030000000 1.0
C      1  0.5165080000000  0.4573320000000  0.5141770000000 1.0
C      1  0.4727650000000  0.5071300000000  0.4999260000000 1.0
C      1  0.4669270000000  0.5227430000000  0.5449810000000 1.0
C      1  0.4966280000000  0.4904320000000  0.4559210000000 1.0
C      1  0.4235960000000  0.4562030000000  0.4939300000000 1.0
C      1  0.5680970000000  0.5611980000000  0.4865750000000 1.0
C      1  0.4870620000000  0.4464050000000  0.4388100000000 1.0
C      1  0.5331110000000  0.4612620000000  0.5584700000000 1.0
C      1  0.5091500000000  0.5506690000000  0.5906480000000 1.0
C      1  0.5257620000000  0.5553640000000  0.5073900000000 1.0
C      1  0.5885830000000  0.4729970000000  0.5092430000000 1.0
C      1  0.5847610000000  0.5372900000000  0.4834840000000 1.0
C      1  0.3882660000000  0.4744900000000  0.4359260000000 1.0
C      1  0.4403000000000  0.5166520000000  0.4434240000000 1.0
C      1  0.4784200000000  0.5808650000000  0.5043860000000 1.0
C      1  0.4185490000000  0.5057100000000  0.4577120000000 1.0
C      1  0.4655780000000  0.5468310000000  0.5595490000000 1.0
C      1  0.4106820000000  0.5089440000000  0.5055670000000 1.0
C      1  0.5758850000000  0.4595370000000  0.4875960000000 1.0
C      1  0.5121750000000  0.4991170000000  0.5385910000000 1.0
C      1  0.4553340000000  0.5112760000000  0.5218200000000 1.0
C      1  0.5142150000000  0.4716940000000  0.5385020000000 1.0
C      1  0.4404530000000  0.4418410000000  0.4508110000000 1.0
C      1  0.4596820000000  0.4550040000000  0.4330040000000 1.0
C      1  0.5550910000000  0.4758850000000  0.4449210000000 1.0
C      1  0.5493240000000  0.5506310000000  0.5621720000000 1.0
C      1  0.5648330000000  0.4976930000000  0.3967290000000 1.0
C      1  0.5337000000000  0.5120310000000  0.5261650000000 1.0
C      1  0.4529870000000  0.5882470000000  0.5033430000000 1.0
C      1  0.4928840000000  0.5142340000000  0.4402950000000 1.0
C      1  0.5114730000000  0.5603820000000  0.6162230000000 1.0
C      1  0.4679700000000  0.4333340000000  0.5439750000000 1.0
C      1  0.5549130000000  0.4401500000000  0.4915300000000 1.0
C      1  0.5146960000000  0.5322380000000  0.4400510000000 1.0
C      1  0.5064430000000  0.4654350000000  0.4461500000000 1.0
C      1  0.5704500000000  0.5097560000000  0.4831050000000 1.0
C      1  0.5169870000000  0.4160650000000  0.5526070000000 1.0
C      1  0.4555570000000  0.4185440000000  0.4595650000000 1.0
C      1  0.5384670000000  0.4341070000000  0.5457990000000 1.0
C      1  0.4501210000000  0.4511200000000  0.5345470000000 1.0
C      1  0.5677000000000  0.4937930000000  0.5572020000000 1.0
C      1  0.5026580000000  0.5704570000000  0.5067610000000 1.0
C      1  0.5412500000000  0.5196340000000  0.4789670000000 1.0
END
