TITL C-599891-72-1011 5.64013282218528 125000 -1019.28686536211 0 0 162 (C1) n - 1
REM
REM in /home/nfs/bkarasulu/CARBON/AIRSS/Generating-Clusters/TERSOFF/Only-C1/FIRE-HFTN
REM
REM
REM
REM
REM
REM ./C.cell (11c1c37f851c82e70ff6c80c92926a4b)
REM AIRSS Version 0.9.1 bugfix July 2018 build 013d7b7c2542+ Fri, 06 Jul 2018 19:26:36 +0100
REM compiler GCC version 9.2.1 20190827 (Red Hat 9.2.1-1)
REM options -cpp -mtune=generic -march=x86-64 -g -O0 -fpre-include=/usr/include/finclude/math-vector-fortran.h
REM seed 1951581677 -1330316115 831162422 19931886 299501960 933176986 1016032157 -1185506539 715742305 1711002958 492442511 317798930 1542132174 509926898 187207042 -801755946 342929611 -95805588 1484833400 -496030599 -753494456 1589860220 -1853084232 583638523 1795391705 2138941057 1695092082 -1745524721 -506891368 1050581518 25930333 1126848712 610940377
REM
CELL 1.54180   50.00000   50.00000   50.00000   90.00000   90.00000   90.00000
LATT -1
SFAC C  
C      1  0.5871110000000  0.5863630000000  0.5683290000000 1.0
C      1  0.5591950000000  0.4958180000000  0.5261220000000 1.0
C      1  0.4022790000000  0.4726640000000  0.5044640000000 1.0
C      1  0.5533160000000  0.5959740000000  0.4274550000000 1.0
C      1  0.5169220000000  0.4101100000000  0.5703110000000 1.0
C      1  0.5024570000000  0.4974910000000  0.4133430000000 1.0
C      1  0.6608420000000  0.2823800000000  0.4839480000000 1.0
C      1  0.4071740000000  0.4866940000000  0.5282830000000 1.0
C      1  0.5457500000000  0.3873000000000  0.4478530000000 1.0
C      1  0.4555370000000  0.4017270000000  0.4703330000000 1.0
C      1  0.4565300000000  0.5481010000000  0.5243710000000 1.0
C      1  0.4774030000000  0.4977620000000  0.4029200000000 1.0
C      1  0.5174750000000  0.5513920000000  0.5377140000000 1.0
C      1  0.4207590000000  0.4646710000000  0.4354470000000 1.0
C      1  0.4829710000000  0.6048340000000  0.4966270000000 1.0
C      1  0.4649310000000  0.5439320000000  0.5521830000000 1.0
C      1  0.3953670000000  0.4408110000000  0.4728920000000 1.0
C      1  0.3624210000000  0.4977300000000  0.5940030000000 1.0
C      1  0.4797690000000  0.5404830000000  0.5072660000000 1.0
C      1  0.5255800000000  0.4167590000000  0.4132540000000 1.0
C      1  0.5277230000000  0.6091230000000  0.4667270000000 1.0
C      1  0.4682040000000  0.5167020000000  0.5598790000000 1.0
C      1  0.4675920000000  0.5976340000000  0.5200960000000 1.0
C      1  0.4994150000000  0.5935250000000  0.4275760000000 1.0
C      1  0.4749410000000  0.3884850000000  0.5469510000000 1.0
C      1  0.4849380000000  0.5900480000000  0.4520810000000 1.0
C      1  0.5751810000000  0.4423160000000  0.5397250000000 1.0
C      1  0.5916920000000  0.4801280000000  0.4959200000000 1.0
C      1  0.5218460000000  0.5441410000000  0.4863980000000 1.0
C      1  0.4423060000000  0.5190840000000  0.4902240000000 1.0
C      1  0.5117200000000  0.4835480000000  0.4795110000000 1.0
C      1  0.4888640000000  0.4071630000000  0.5650170000000 1.0
C      1  0.5275690000000  0.4992280000000  0.5898890000000 1.0
C      1  0.4550170000000  0.3933840000000  0.5252150000000 1.0
C      1  0.4319030000000  0.4999960000000  0.5282940000000 1.0
C      1  0.5570710000000  0.6046760000000  0.4733060000000 1.0
C      1  0.5709250000000  0.6044870000000  0.4486580000000 1.0
C      1  0.4482790000000  0.5761160000000  0.5181350000000 1.0
C      1  0.6102720000000  0.5059520000000  0.5545650000000 1.0
C      1  0.4207730000000  0.5475540000000  0.4159040000000 1.0
C      1  0.4338870000000  0.5279490000000  0.5915380000000 1.0
C      1  0.4593400000000  0.5234800000000  0.4462480000000 1.0
C      1  0.5404700000000  0.4504670000000  0.5873090000000 1.0
C      1  0.5405820000000  0.5096150000000  0.5662790000000 1.0
C      1  0.4936580000000  0.4608970000000  0.6249630000000 1.0
C      1  0.5085130000000  0.5612210000000  0.5843770000000 1.0
C      1  0.5454690000000  0.4025120000000  0.4242260000000 1.0
C      1  0.5591540000000  0.5884250000000  0.4971650000000 1.0
C      1  0.5892440000000  0.5137870000000  0.4565100000000 1.0
C      1  0.4941990000000  0.5703670000000  0.4089600000000 1.0
C      1  0.4939720000000  0.4724710000000  0.5539660000000 1.0
C      1  0.5899200000000  0.4859780000000  0.5606900000000 1.0
C      1  0.5562190000000  0.4515640000000  0.5201940000000 1.0
C      1  0.5242130000000  0.3914200000000  0.4655020000000 1.0
C      1  0.4689440000000  0.5560210000000  0.4015900000000 1.0
C      1  0.4893990000000  0.3784270000000  0.4954750000000 1.0
C      1  0.5201920000000  0.4669190000000  0.6264130000000 1.0
C      1  0.4542030000000  0.5640770000000  0.5697460000000 1.0
C      1  0.5242190000000  0.6187460000000  0.5571370000000 1.0
C      1  0.5701680000000  0.4972130000000  0.4433960000000 1.0
C      1  0.4395360000000  0.4171920000000  0.5308340000000 1.0
C      1  0.4159940000000  0.5845440000000  0.4843650000000 1.0
C      1  0.4684780000000  0.6090070000000  0.5462670000000 1.0
C      1  0.4796990000000  0.4703720000000  0.6021300000000 1.0
C      1  0.3503380000000  0.5039610000000  0.6162470000000 1.0
C      1  0.4989810000000  0.4192540000000  0.4210650000000 1.0
C      1  0.5611840000000  0.5718780000000  0.4145090000000 1.0
C      1  0.5819060000000  0.5563820000000  0.4262540000000 1.0
C      1  0.5254080000000  0.4085620000000  0.4892810000000 1.0
C      1  0.4464620000000  0.4294140000000  0.4639210000000 1.0
C      1  0.4562090000000  0.4846480000000  0.5240390000000 1.0
C      1  0.4755260000000  0.3887210000000  0.4517520000000 1.0
C      1  0.4373810000000  0.5062920000000  0.4477170000000 1.0
C      1  0.5966550000000  0.5065940000000  0.4831500000000 1.0
C      1  0.4421980000000  0.5681250000000  0.4514900000000 1.0
C      1  0.5059200000000  0.5505640000000  0.5103100000000 1.0
C      1  0.5643810000000  0.4231940000000  0.5575190000000 1.0
C      1  0.4454980000000  0.5366710000000  0.4035870000000 1.0
C      1  0.5966890000000  0.4621240000000  0.5432610000000 1.0
C      1  0.5109990000000  0.3922570000000  0.5086590000000 1.0
C      1  0.5508570000000  0.5501000000000  0.3450750000000 1.0
C      1  0.4621100000000  0.5908280000000  0.5671480000000 1.0
C      1  0.5330550000000  0.5934570000000  0.5095830000000 1.0
C      1  0.4778450000000  0.4448730000000  0.5223550000000 1.0
C      1  0.4258280000000  0.5048770000000  0.4728590000000 1.0
C      1  0.4014370000000  0.4435490000000  0.5013950000000 1.0
C      1  0.5121350000000  0.6049710000000  0.4923520000000 1.0
C      1  0.4759440000000  0.4932620000000  0.5446050000000 1.0
C      1  0.4866050000000  0.4421860000000  0.4319380000000 1.0
C      1  0.5107950000000  0.4557760000000  0.4742660000000 1.0
C      1  0.4634950000000  0.4621860000000  0.5042720000000 1.0
C      1  0.6099340000000  0.4762340000000  0.5192480000000 1.0
C      1  0.6065570000000  0.5235850000000  0.5051520000000 1.0
C      1  0.6076680000000  0.5763530000000  0.5547050000000 1.0
C      1  0.4075320000000  0.5614100000000  0.5603240000000 1.0
C      1  0.4596410000000  0.4342970000000  0.5421480000000 1.0
C      1  0.5344270000000  0.5936900000000  0.5610080000000 1.0
C      1  0.6131890000000  0.5630990000000  0.5322250000000 1.0
C      1  0.4881540000000  0.4983370000000  0.4831770000000 1.0
C      1  0.6231370000000  0.3169390000000  0.4717730000000 1.0
C      1  0.5225830000000  0.4365540000000  0.4915680000000 1.0
C      1  0.4717160000000  0.6357300000000  0.5505800000000 1.0
C      1  0.3992570000000  0.5706420000000  0.4631210000000 1.0
C      1  0.4829890000000  0.4571010000000  0.5768770000000 1.0
C      1  0.3894960000000  0.4876950000000  0.5496430000000 1.0
C      1  0.4575170000000  0.5120760000000  0.5865020000000 1.0
C      1  0.5341680000000  0.4990900000000  0.4739840000000 1.0
C      1  0.3723100000000  0.5672240000000  0.4645690000000 1.0
C      1  0.5424300000000  0.4982700000000  0.4468220000000 1.0
C      1  0.4166110000000  0.5612330000000  0.4409300000000 1.0
C      1  0.4159710000000  0.4262990000000  0.5183400000000 1.0
C      1  0.4416950000000  0.5904020000000  0.4701250000000 1.0
C      1  0.4042280000000  0.5720120000000  0.5352130000000 1.0
C      1  0.5257840000000  0.6027210000000  0.4366560000000 1.0
C      1  0.4352990000000  0.5263480000000  0.5172280000000 1.0
C      1  0.4285340000000  0.5532600000000  0.5781670000000 1.0
C      1  0.4625680000000  0.3895070000000  0.4977760000000 1.0
C      1  0.4714410000000  0.5193190000000  0.4901080000000 1.0
C      1  0.5635020000000  0.4950650000000  0.5549170000000 1.0
C      1  0.4977980000000  0.3784950000000  0.4671390000000 1.0
C      1  0.5038660000000  0.4549330000000  0.5322880000000 1.0
C      1  0.4021860000000  0.4648960000000  0.4573870000000 1.0
C      1  0.4633230000000  0.4501600000000  0.4770520000000 1.0
C      1  0.5406650000000  0.4260520000000  0.5730280000000 1.0
C      1  0.5196670000000  0.5372900000000  0.4337910000000 1.0
C      1  0.4681110000000  0.6018310000000  0.4719200000000 1.0
C      1  0.5228650000000  0.5093340000000  0.4293120000000 1.0
C      1  0.4876090000000  0.5619510000000  0.4577190000000 1.0
C      1  0.6421460000000  0.2995160000000  0.4779110000000 1.0
C      1  0.5182300000000  0.5702760000000  0.5594590000000 1.0
C      1  0.3751350000000  0.4918100000000  0.5715130000000 1.0
C      1  0.4610440000000  0.4454950000000  0.4205180000000 1.0
C      1  0.5610300000000  0.5911310000000  0.5694690000000 1.0
C      1  0.4495480000000  0.5059770000000  0.4044690000000 1.0
C      1  0.5040140000000  0.5127560000000  0.6002370000000 1.0
C      1  0.4781680000000  0.4991020000000  0.6011260000000 1.0
C      1  0.5120760000000  0.5483510000000  0.4595170000000 1.0
C      1  0.4326360000000  0.4902560000000  0.4244690000000 1.0
C      1  0.4827380000000  0.3962780000000  0.4256280000000 1.0
C      1  0.5431270000000  0.5168440000000  0.5186760000000 1.0
C      1  0.5466860000000  0.5550900000000  0.3703100000000 1.0
C      1  0.5317010000000  0.5272380000000  0.5431850000000 1.0
C      1  0.4066810000000  0.4850100000000  0.4784440000000 1.0
C      1  0.5994400000000  0.5510470000000  0.5106470000000 1.0
C      1  0.5377380000000  0.5212860000000  0.4914820000000 1.0
C      1  0.5851280000000  0.3517760000000  0.4595010000000 1.0
C      1  0.4387210000000  0.4422050000000  0.4375390000000 1.0
C      1  0.5177380000000  0.5535390000000  0.4102540000000 1.0
C      1  0.5336810000000  0.4734010000000  0.6020420000000 1.0
C      1  0.4201240000000  0.5793000000000  0.5124500000000 1.0
C      1  0.6168680000000  0.5053630000000  0.5263130000000 1.0
C      1  0.4731400000000  0.4317930000000  0.5676400000000 1.0
C      1  0.6041320000000  0.3343580000000  0.4656360000000 1.0
C      1  0.4877040000000  0.4493710000000  0.4599370000000 1.0
C      1  0.5925970000000  0.5387670000000  0.4435730000000 1.0
C      1  0.5659560000000  0.4754200000000  0.5079030000000 1.0
C      1  0.4633320000000  0.5498690000000  0.4523540000000 1.0
C      1  0.5280310000000  0.4471430000000  0.5178250000000 1.0
C      1  0.5777890000000  0.5672070000000  0.5006520000000 1.0
C      1  0.5048430000000  0.5407740000000  0.6010460000000 1.0
C      1  0.5420230000000  0.5599860000000  0.3972230000000 1.0
C      1  0.5660930000000  0.3691720000000  0.4534510000000 1.0
END
