TITL C-599892-9790-302 8723.82951336081 125000 -1174.45961572742 0 0 195 (C1) n - 1
REM
REM in /home/nfs/bkarasulu/CARBON/AIRSS/Generating-Clusters/TERSOFF/Only-C1/FIRE-HFTN
REM
REM
REM
REM
REM
REM ./C.cell (11c1c37f851c82e70ff6c80c92926a4b)
REM AIRSS Version 0.9.1 bugfix July 2018 build 013d7b7c2542+ Fri, 06 Jul 2018 19:26:36 +0100
REM compiler GCC version 9.2.1 20190827 (Red Hat 9.2.1-1)
REM options -cpp -mtune=generic -march=x86-64 -g -O0 -fpre-include=/usr/include/finclude/math-vector-fortran.h
REM seed -1293526753 405059212 1825109925 1292203029 774090799 173414093 1069531462 1851377690 -812291604 -1109708492 -1381104450 233404679 -668510941 362930385 -1119546289 1048225167 1069135694 -1388060093 -273513205 -56746222 -103209834 -290070678 1840461213 -883769834 -1658639262 -1358647120 1582534020 2017636077 -870173582 -1233388532 -1925781911 -903943278 1583358386
REM
CELL 1.54180   50.00000   50.00000   50.00000   90.00000   90.00000   90.00000
LATT -1
SFAC C  
C      1  0.3912270000000  0.4663260000000  0.5054280000000 1.0
C      1  0.4482700000000  0.4295690000000  0.4818630000000 1.0
C      1  0.4982890000000  0.5414040000000  0.4899370000000 1.0
C      1  0.5350760000000  0.5081340000000  0.5455480000000 1.0
C      1  0.4677410000000  0.4670440000000  0.4031180000000 1.0
C      1  0.4858270000000  0.5514690000000  0.5908910000000 1.0
C      1  0.4918970000000  0.6302260000000  0.4749660000000 1.0
C      1  0.4339880000000  0.4749600000000  0.4850180000000 1.0
C      1  0.5904480000000  0.4251930000000  0.5242760000000 1.0
C      1  0.4870180000000  0.6101600000000  0.4550820000000 1.0
C      1  0.4192150000000  0.4455670000000  0.4477580000000 1.0
C      1  0.5116450000000  0.4550390000000  0.3893690000000 1.0
C      1  0.5484630000000  0.4403310000000  0.5467630000000 1.0
C      1  0.3937470000000  0.5587470000000  0.4341530000000 1.0
C      1  0.4372390000000  0.3891080000000  0.5318260000000 1.0
C      1  0.5713660000000  0.5704190000000  0.4241750000000 1.0
C      1  0.5947670000000  0.4592800000000  0.4877700000000 1.0
C      1  0.4442410000000  0.5247110000000  0.4747030000000 1.0
C      1  0.5436630000000  0.4796320000000  0.4398730000000 1.0
C      1  0.3971140000000  0.4549870000000  0.5598010000000 1.0
C      1  0.4418920000000  0.5009870000000  0.2911890000000 1.0
C      1  0.5781940000000  0.4467440000000  0.5087670000000 1.0
C      1  0.4979190000000  0.4982890000000  0.6477660000000 1.0
C      1  0.5239850000000  0.5092180000000  0.4662300000000 1.0
C      1  0.4442220000000  0.5277840000000  0.4447540000000 1.0
C      1  0.5652600000000  0.5423690000000  0.4189740000000 1.0
C      1  0.5647120000000  0.5893860000000  0.4456460000000 1.0
C      1  0.4475010000000  0.4089720000000  0.4603590000000 1.0
C      1  0.5156050000000  0.6320790000000  0.4903820000000 1.0
C      1  0.5857240000000  0.5614690000000  0.5491270000000 1.0
C      1  0.4108460000000  0.4310350000000  0.5580770000000 1.0
C      1  0.4687780000000  0.4813620000000  0.3318560000000 1.0
C      1  0.5295900000000  0.4769600000000  0.3985890000000 1.0
C      1  0.4726050000000  0.4395590000000  0.5844720000000 1.0
C      1  0.4377110000000  0.4528800000000  0.4692650000000 1.0
C      1  0.5705720000000  0.4290700000000  0.4655980000000 1.0
C      1  0.4485210000000  0.5462980000000  0.4948530000000 1.0
C      1  0.4455290000000  0.5609200000000  0.4078810000000 1.0
C      1  0.3837400000000  0.5334530000000  0.4732530000000 1.0
C      1  0.4193510000000  0.4681040000000  0.5083030000000 1.0
C      1  0.5788830000000  0.5942180000000  0.4727840000000 1.0
C      1  0.5663030000000  0.5258490000000  0.4447680000000 1.0
C      1  0.5823940000000  0.4843300000000  0.4213630000000 1.0
C      1  0.5478030000000  0.4424650000000  0.4740580000000 1.0
C      1  0.4572710000000  0.6038160000000  0.4512800000000 1.0
C      1  0.5620160000000  0.5704080000000  0.5954670000000 1.0
C      1  0.4339150000000  0.4214460000000  0.4366190000000 1.0
C      1  0.5443270000000  0.5738580000000  0.5001700000000 1.0
C      1  0.5046910000000  0.5644040000000  0.3818390000000 1.0
C      1  0.4575760000000  0.3939620000000  0.5101240000000 1.0
C      1  0.4618010000000  0.4213130000000  0.5606980000000 1.0
C      1  0.4862320000000  0.4507780000000  0.6080170000000 1.0
C      1  0.5204380000000  0.5082680000000  0.6049550000000 1.0
C      1  0.5350450000000  0.5620700000000  0.5910160000000 1.0
C      1  0.4961080000000  0.5649820000000  0.4472430000000 1.0
C      1  0.5859620000000  0.4564750000000  0.4308730000000 1.0
C      1  0.5088540000000  0.5614220000000  0.6017750000000 1.0
C      1  0.5488160000000  0.5318290000000  0.5535760000000 1.0
C      1  0.6113970000000  0.4401240000000  0.5382470000000 1.0
C      1  0.4414440000000  0.6082680000000  0.5194820000000 1.0
C      1  0.5374270000000  0.6237690000000  0.5349480000000 1.0
C      1  0.4722940000000  0.4857790000000  0.6462400000000 1.0
C      1  0.5872310000000  0.5049480000000  0.5658720000000 1.0
C      1  0.5622720000000  0.4082620000000  0.4243110000000 1.0
C      1  0.5090090000000  0.4977550000000  0.5813230000000 1.0
C      1  0.3786700000000  0.4841930000000  0.5237140000000 1.0
C      1  0.4789070000000  0.4724900000000  0.3546670000000 1.0
C      1  0.4984970000000  0.4336390000000  0.4675580000000 1.0
C      1  0.4789400000000  0.4671250000000  0.4297480000000 1.0
C      1  0.6097140000000  0.5048830000000  0.4622390000000 1.0
C      1  0.5060580000000  0.4584320000000  0.4776900000000 1.0
C      1  0.5895950000000  0.5054930000000  0.4417220000000 1.0
C      1  0.4793980000000  0.4932380000000  0.4824970000000 1.0
C      1  0.4558600000000  0.4911130000000  0.3108630000000 1.0
C      1  0.3878430000000  0.4815250000000  0.5514080000000 1.0
C      1  0.5703820000000  0.4039190000000  0.5284660000000 1.0
C      1  0.5148300000000  0.4498200000000  0.6155240000000 1.0
C      1  0.5816140000000  0.5707410000000  0.5762200000000 1.0
C      1  0.4967120000000  0.5018600000000  0.4604200000000 1.0
C      1  0.5339350000000  0.5546530000000  0.5633500000000 1.0
C      1  0.4402190000000  0.5813590000000  0.5274120000000 1.0
C      1  0.5132700000000  0.5153130000000  0.5280050000000 1.0
C      1  0.4519520000000  0.5554970000000  0.5225160000000 1.0
C      1  0.4745780000000  0.3944760000000  0.5678230000000 1.0
C      1  0.6201340000000  0.4408700000000  0.5658460000000 1.0
C      1  0.4243680000000  0.5763850000000  0.5517020000000 1.0
C      1  0.5590080000000  0.4923340000000  0.4012880000000 1.0
C      1  0.4709150000000  0.5891240000000  0.5664600000000 1.0
C      1  0.4184220000000  0.6229240000000  0.5168060000000 1.0
C      1  0.4563250000000  0.4237280000000  0.5087080000000 1.0
C      1  0.4934660000000  0.5916660000000  0.5482770000000 1.0
C      1  0.4872820000000  0.5092700000000  0.5670270000000 1.0
C      1  0.4902050000000  0.4718590000000  0.4976110000000 1.0
C      1  0.5316470000000  0.4629850000000  0.5139340000000 1.0
C      1  0.4706290000000  0.3909330000000  0.4601870000000 1.0
C      1  0.5689080000000  0.4991260000000  0.5920130000000 1.0
C      1  0.3804220000000  0.5094640000000  0.4582750000000 1.0
C      1  0.5387380000000  0.4952970000000  0.4859420000000 1.0
C      1  0.5511960000000  0.5232140000000  0.4010660000000 1.0
C      1  0.5128090000000  0.5396540000000  0.5133360000000 1.0
C      1  0.4568290000000  0.5392350000000  0.5471210000000 1.0
C      1  0.3861090000000  0.4852430000000  0.4474150000000 1.0
C      1  0.4330080000000  0.4635860000000  0.5313910000000 1.0
C      1  0.5153940000000  0.3843300000000  0.4302270000000 1.0
C      1  0.4602890000000  0.5665190000000  0.4790190000000 1.0
C      1  0.5202630000000  0.4810030000000  0.6524480000000 1.0
C      1  0.5158470000000  0.4153480000000  0.5179820000000 1.0
C      1  0.5338200000000  0.4658760000000  0.4850060000000 1.0
C      1  0.6178490000000  0.5309750000000  0.5305900000000 1.0
C      1  0.4424490000000  0.5858230000000  0.4696270000000 1.0
C      1  0.5809300000000  0.5397630000000  0.4911330000000 1.0
C      1  0.5279200000000  0.4021880000000  0.6068080000000 1.0
C      1  0.5216460000000  0.5239950000000  0.4030970000000 1.0
C      1  0.3832220000000  0.4531360000000  0.4814740000000 1.0
C      1  0.4891530000000  0.3935610000000  0.4368540000000 1.0
C      1  0.4515780000000  0.4925380000000  0.6625830000000 1.0
C      1  0.5025550000000  0.4096260000000  0.4901360000000 1.0
C      1  0.4859250000000  0.4409880000000  0.4417740000000 1.0
C      1  0.5426180000000  0.4142400000000  0.5331910000000 1.0
C      1  0.3934460000000  0.4585700000000  0.4547500000000 1.0
C      1  0.4526440000000  0.4196140000000  0.4145520000000 1.0
C      1  0.5421320000000  0.5632370000000  0.4735360000000 1.0
C      1  0.4040680000000  0.5572850000000  0.5419990000000 1.0
C      1  0.5087450000000  0.5906340000000  0.4482040000000 1.0
C      1  0.5562080000000  0.4559950000000  0.5241550000000 1.0
C      1  0.5260200000000  0.5642820000000  0.5191880000000 1.0
C      1  0.4907830000000  0.6134450000000  0.5283970000000 1.0
C      1  0.5299290000000  0.4851290000000  0.5642200000000 1.0
C      1  0.3840450000000  0.5337090000000  0.5018150000000 1.0
C      1  0.4853320000000  0.4653220000000  0.3806330000000 1.0
C      1  0.5133220000000  0.3821750000000  0.5970190000000 1.0
C      1  0.4410180000000  0.5874200000000  0.4070680000000 1.0
C      1  0.5047230000000  0.5167100000000  0.6271180000000 1.0
C      1  0.5319560000000  0.4709280000000  0.6281260000000 1.0
C      1  0.4663270000000  0.6205880000000  0.5152460000000 1.0
C      1  0.4795310000000  0.3894100000000  0.4887650000000 1.0
C      1  0.5523970000000  0.4426670000000  0.5913780000000 1.0
C      1  0.5042090000000  0.4621380000000  0.5213770000000 1.0
C      1  0.3944720000000  0.5583110000000  0.4622870000000 1.0
C      1  0.4898320000000  0.5044700000000  0.5390110000000 1.0
C      1  0.4977600000000  0.4360840000000  0.5295820000000 1.0
C      1  0.4858370000000  0.5582670000000  0.4720570000000 1.0
C      1  0.5387940000000  0.3932040000000  0.4195360000000 1.0
C      1  0.3738900000000  0.5108010000000  0.5147810000000 1.0
C      1  0.5572060000000  0.5037670000000  0.5051930000000 1.0
C      1  0.6064000000000  0.4852870000000  0.5571450000000 1.0
C      1  0.4703420000000  0.4657700000000  0.6262870000000 1.0
C      1  0.4694090000000  0.6359130000000  0.4914910000000 1.0
C      1  0.3930560000000  0.5074750000000  0.5629120000000 1.0
C      1  0.5046740000000  0.4284580000000  0.4001200000000 1.0
C      1  0.5902320000000  0.4500460000000  0.4604020000000 1.0
C      1  0.4746680000000  0.5352910000000  0.5703270000000 1.0
C      1  0.5367850000000  0.5846530000000  0.4539290000000 1.0
C      1  0.3966570000000  0.5340520000000  0.5575940000000 1.0
C      1  0.6257680000000  0.5217640000000  0.5074770000000 1.0
C      1  0.5711240000000  0.5860450000000  0.5012260000000 1.0
C      1  0.5449080000000  0.4926890000000  0.6107520000000 1.0
C      1  0.4231980000000  0.3657630000000  0.5335800000000 1.0
C      1  0.6116790000000  0.4705660000000  0.5309010000000 1.0
C      1  0.5317070000000  0.4295470000000  0.6054010000000 1.0
C      1  0.4829130000000  0.4187420000000  0.4205230000000 1.0
C      1  0.5741450000000  0.4337640000000  0.4156110000000 1.0
C      1  0.5746410000000  0.5238560000000  0.5136880000000 1.0
C      1  0.5636970000000  0.5436980000000  0.4687290000000 1.0
C      1  0.5043170000000  0.5825040000000  0.3630980000000 1.0
C      1  0.4108300000000  0.5726230000000  0.4812370000000 1.0
C      1  0.4463500000000  0.6065030000000  0.4252810000000 1.0
C      1  0.4431010000000  0.5151100000000  0.5409040000000 1.0
C      1  0.5795910000000  0.5309710000000  0.5451580000000 1.0
C      1  0.4325680000000  0.4122250000000  0.5524520000000 1.0
C      1  0.5046850000000  0.5462670000000  0.4030010000000 1.0
C      1  0.6116320000000  0.4769640000000  0.5023130000000 1.0
C      1  0.5427560000000  0.4576070000000  0.5686620000000 1.0
C      1  0.5711490000000  0.4053610000000  0.4513200000000 1.0
C      1  0.4440460000000  0.5839760000000  0.5716700000000 1.0
C      1  0.4211150000000  0.5198910000000  0.4295820000000 1.0
C      1  0.3992500000000  0.5565720000000  0.5121820000000 1.0
C      1  0.5113790000000  0.4982770000000  0.4112670000000 1.0
C      1  0.5221140000000  0.5768530000000  0.5460940000000 1.0
C      1  0.4877640000000  0.5499550000000  0.4254110000000 1.0
C      1  0.4022890000000  0.5371220000000  0.4200720000000 1.0
C      1  0.5424300000000  0.5071720000000  0.4444480000000 1.0
C      1  0.4600670000000  0.5439510000000  0.4256460000000 1.0
C      1  0.5406380000000  0.6012380000000  0.5494760000000 1.0
C      1  0.5151040000000  0.6260100000000  0.5181050000000 1.0
C      1  0.4921970000000  0.3795810000000  0.5809690000000 1.0
C      1  0.4706240000000  0.4312120000000  0.5331580000000 1.0
C      1  0.4939520000000  0.4910480000000  0.4338720000000 1.0
C      1  0.4464540000000  0.5039530000000  0.5171030000000 1.0
C      1  0.4508850000000  0.4988330000000  0.4876870000000 1.0
C      1  0.5853390000000  0.5788520000000  0.5254850000000 1.0
C      1  0.6177330000000  0.4663750000000  0.5764400000000 1.0
C      1  0.5763860000000  0.3772810000000  0.5280140000000 1.0
C      1  0.6185480000000  0.5013450000000  0.4893880000000 1.0
C      1  0.5782210000000  0.4402090000000  0.5995100000000 1.0
END
