TITL C-599896-8500-381 13.5811509945337 125000 -486.823774788647 0 0 80 (C1) n - 1
REM
REM in /home/nfs/bkarasulu/CARBON/AIRSS/Generating-Clusters/TERSOFF/Only-C1/FIRE-HFTN
REM
REM
REM
REM
REM
REM ./C.cell (11c1c37f851c82e70ff6c80c92926a4b)
REM AIRSS Version 0.9.1 bugfix July 2018 build 013d7b7c2542+ Fri, 06 Jul 2018 19:26:36 +0100
REM compiler GCC version 9.2.1 20190827 (Red Hat 9.2.1-1)
REM options -cpp -mtune=generic -march=x86-64 -g -O0 -fpre-include=/usr/include/finclude/math-vector-fortran.h
REM seed 1951599190 2137410607 1721681754 1904675501 1898496438 -315287823 742397826 -2138451778 1506562432 157890591 -1214158651 -860740184 -446378177 -1478769954 1749941753 -1937128933 -552514776 -1729888400 -1281264862 1651691158 39288993 1307561103 -854070371 -1976214106 2078247876 332631797 453217381 -1701554154 -1445363793 2086933532 2141837336 1744807999 -1929118400
REM
CELL 1.54180   50.00000   50.00000   50.00000   90.00000   90.00000   90.00000
LATT -1
SFAC C  
C      1  0.6032310000000  0.5499320000000  0.4416940000000 1.0
C      1  0.4908430000000  0.5315530000000  0.4620770000000 1.0
C      1  0.5192250000000  0.4076050000000  0.5659450000000 1.0
C      1  0.5300670000000  0.5864040000000  0.4102300000000 1.0
C      1  0.4124290000000  0.4382070000000  0.4231420000000 1.0
C      1  0.4182700000000  0.4594620000000  0.4083340000000 1.0
C      1  0.5389290000000  0.5211910000000  0.4680820000000 1.0
C      1  0.5441440000000  0.5224580000000  0.4955470000000 1.0
C      1  0.4305040000000  0.4812510000000  0.3993140000000 1.0
C      1  0.5379480000000  0.3876730000000  0.5612780000000 1.0
C      1  0.4090090000000  0.4443150000000  0.5612770000000 1.0
C      1  0.5576860000000  0.5317580000000  0.4495760000000 1.0
C      1  0.5154680000000  0.5486820000000  0.5554290000000 1.0
C      1  0.5050940000000  0.4608080000000  0.5320550000000 1.0
C      1  0.6255470000000  0.5831910000000  0.4088640000000 1.0
C      1  0.5526960000000  0.4675480000000  0.5417690000000 1.0
C      1  0.5054990000000  0.4787310000000  0.5753600000000 1.0
C      1  0.4899800000000  0.4393920000000  0.5992370000000 1.0
C      1  0.4678660000000  0.5723140000000  0.5066510000000 1.0
C      1  0.4935510000000  0.5771100000000  0.4444780000000 1.0
C      1  0.5383040000000  0.5824370000000  0.5263600000000 1.0
C      1  0.4819750000000  0.5929520000000  0.4926400000000 1.0
C      1  0.4850180000000  0.5501700000000  0.4409080000000 1.0
C      1  0.4899120000000  0.5598830000000  0.5524010000000 1.0
C      1  0.3806210000000  0.5421570000000  0.5092800000000 1.0
C      1  0.5272280000000  0.5875480000000  0.4774440000000 1.0
C      1  0.5748940000000  0.4634050000000  0.5266120000000 1.0
C      1  0.4233520000000  0.3955370000000  0.5148120000000 1.0
C      1  0.4276590000000  0.4050070000000  0.5392690000000 1.0
C      1  0.6297370000000  0.2959030000000  0.5369180000000 1.0
C      1  0.4720350000000  0.5312810000000  0.4827020000000 1.0
C      1  0.4724840000000  0.5117830000000  0.4083180000000 1.0
C      1  0.4385760000000  0.4807030000000  0.5566200000000 1.0
C      1  0.5788760000000  0.5781070000000  0.4068750000000 1.0
C      1  0.4996660000000  0.5867980000000  0.4707270000000 1.0
C      1  0.4559980000000  0.4363380000000  0.5649690000000 1.0
C      1  0.6035440000000  0.5689520000000  0.4213310000000 1.0
C      1  0.5526570000000  0.5699190000000  0.4127990000000 1.0
C      1  0.5254080000000  0.4989250000000  0.5718230000000 1.0
C      1  0.4748540000000  0.4227590000000  0.5813340000000 1.0
C      1  0.4116680000000  0.4195070000000  0.4419720000000 1.0
C      1  0.5120570000000  0.4526310000000  0.5868620000000 1.0
C      1  0.5258840000000  0.4355140000000  0.5667960000000 1.0
C      1  0.4726140000000  0.5688480000000  0.5341790000000 1.0
C      1  0.4880330000000  0.6159720000000  0.5082250000000 1.0
C      1  0.3898500000000  0.4896840000000  0.5581040000000 1.0
C      1  0.4740230000000  0.5384960000000  0.4176610000000 1.0
C      1  0.5131300000000  0.5141220000000  0.4584320000000 1.0
C      1  0.5489230000000  0.5456560000000  0.4266770000000 1.0
C      1  0.5444610000000  0.5350390000000  0.5189950000000 1.0
C      1  0.5349940000000  0.5556480000000  0.5357110000000 1.0
C      1  0.5097830000000  0.4948410000000  0.4380890000000 1.0
C      1  0.5492160000000  0.4897560000000  0.5591040000000 1.0
C      1  0.4304460000000  0.4261430000000  0.5572320000000 1.0
C      1  0.5258700000000  0.6049640000000  0.5381260000000 1.0
C      1  0.5747380000000  0.3508060000000  0.5515350000000 1.0
C      1  0.5054240000000  0.6198200000000  0.5285310000000 1.0
C      1  0.4274700000000  0.5510350000000  0.4893050000000 1.0
C      1  0.5563080000000  0.3692070000000  0.5564330000000 1.0
C      1  0.5196660000000  0.5262770000000  0.5717380000000 1.0
C      1  0.4937260000000  0.4949410000000  0.4164940000000 1.0
C      1  0.4550230000000  0.5510880000000  0.4930670000000 1.0
C      1  0.4880420000000  0.4725880000000  0.5522260000000 1.0
C      1  0.4491190000000  0.5002120000000  0.3984420000000 1.0
C      1  0.5931690000000  0.3324070000000  0.5466370000000 1.0
C      1  0.6160450000000  0.5995100000000  0.3885240000000 1.0
C      1  0.3706010000000  0.5273320000000  0.5289290000000 1.0
C      1  0.4915150000000  0.4023670000000  0.5704850000000 1.0
C      1  0.5884550000000  0.5968930000000  0.3868280000000 1.0
C      1  0.5301170000000  0.4500410000000  0.5420000000000 1.0
C      1  0.6116050000000  0.3140030000000  0.5417370000000 1.0
C      1  0.4142250000000  0.4048990000000  0.4639930000000 1.0
C      1  0.4115400000000  0.4724570000000  0.5594070000000 1.0
C      1  0.4015710000000  0.5497860000000  0.4948550000000 1.0
C      1  0.3745450000000  0.5083840000000  0.5471340000000 1.0
C      1  0.5064810000000  0.5894290000000  0.4226360000000 1.0
C      1  0.4185120000000  0.3961730000000  0.4887020000000 1.0
C      1  0.5434800000000  0.5853990000000  0.4986440000000 1.0
C      1  0.4614630000000  0.4640140000000  0.5570840000000 1.0
C      1  0.5854270000000  0.5339660000000  0.4539850000000 1.0
END
