TITL C-599890-3321-1326 401765.195456463 125000 -998.839745743352 0 0 163 (C1) n - 1
REM
REM in /home/nfs/bkarasulu/CARBON/AIRSS/Generating-Clusters/TERSOFF/Only-C1/FIRE-HFTN
REM
REM
REM
REM
REM
REM ./C.cell (11c1c37f851c82e70ff6c80c92926a4b)
REM AIRSS Version 0.9.1 bugfix July 2018 build 013d7b7c2542+ Fri, 06 Jul 2018 19:26:36 +0100
REM compiler GCC version 9.2.1 20190827 (Red Hat 9.2.1-1)
REM options -cpp -mtune=generic -march=x86-64 -g -O0 -fpre-include=/usr/include/finclude/math-vector-fortran.h
REM seed 354482825 2044552870 546256613 -1199100811 579541429 1081267505 -839037791 305847336 -81448701 -1899504316 1181450161 -1465474672 -947229858 -1214453537 1273950770 -391453731 -1483473030 -1359599243 507337136 -1319186714 -1178821475 895546508 -1956702380 1679088989 1020345826 2066937621 -1315362031 -1232125897 1147991487 117320595 -9745868 332562702 889944608
REM
CELL 1.54180   50.00000   50.00000   50.00000   90.00000   90.00000   90.00000
LATT -1
SFAC C  
C      1  0.5737280000000  0.4728680000000  0.4080900000000 1.0
C      1  0.3930410000000  0.5159090000000  0.4319970000000 1.0
C      1  0.4418330000000  0.4632330000000  0.4914630000000 1.0
C      1  0.3928490000000  0.4310100000000  0.4533500000000 1.0
C      1  0.5848250000000  0.5720320000000  0.4984650000000 1.0
C      1  0.5275820000000  0.6009000000000  0.4474190000000 1.0
C      1  0.5567050000000  0.5142170000000  0.5310570000000 1.0
C      1  0.4157090000000  0.4991630000000  0.4261090000000 1.0
C      1  0.5151240000000  0.3951570000000  0.5316730000000 1.0
C      1  0.5345420000000  0.5548800000000  0.4288240000000 1.0
C      1  0.4928830000000  0.5160430000000  0.5737120000000 1.0
C      1  0.3924490000000  0.5090990000000  0.5395560000000 1.0
C      1  0.5804270000000  0.4247920000000  0.4837770000000 1.0
C      1  0.5531540000000  0.4883420000000  0.4871040000000 1.0
C      1  0.5535830000000  0.5591470000000  0.5547480000000 1.0
C      1  0.5842550000000  0.5061180000000  0.5297840000000 1.0
C      1  0.4719060000000  0.5042210000000  0.5585510000000 1.0
C      1  0.4878690000000  0.5434890000000  0.4585570000000 1.0
C      1  0.5933960000000  0.4621500000000  0.5102450000000 1.0
C      1  0.4505870000000  0.4483260000000  0.4216050000000 1.0
C      1  0.4836450000000  0.5625380000000  0.5147710000000 1.0
C      1  0.5497130000000  0.5842760000000  0.5310880000000 1.0
C      1  0.5541480000000  0.6053450000000  0.4569290000000 1.0
C      1  0.5015750000000  0.3854030000000  0.5090130000000 1.0
C      1  0.4715940000000  0.4759240000000  0.5582690000000 1.0
C      1  0.3625390000000  0.4594590000000  0.4262600000000 1.0
C      1  0.4250210000000  0.5888930000000  0.5320860000000 1.0
C      1  0.5324950000000  0.4204020000000  0.4976610000000 1.0
C      1  0.5383920000000  0.4098790000000  0.5437080000000 1.0
C      1  0.5626870000000  0.3975860000000  0.5345990000000 1.0
C      1  0.4801620000000  0.4368770000000  0.5184290000000 1.0
C      1  0.4926200000000  0.6065910000000  0.5709160000000 1.0
C      1  0.4225580000000  0.5603810000000  0.5321790000000 1.0
C      1  0.5762650000000  0.4150380000000  0.4571770000000 1.0
C      1  0.4710890000000  0.5063840000000  0.4330540000000 1.0
C      1  0.5200110000000  0.4212090000000  0.4193280000000 1.0
C      1  0.5229120000000  0.5906500000000  0.5227200000000 1.0
C      1  0.4564560000000  0.5016210000000  0.6218140000000 1.0
C      1  0.4488530000000  0.5843050000000  0.4584070000000 1.0
C      1  0.4395050000000  0.5421270000000  0.5464840000000 1.0
C      1  0.4820390000000  0.3889130000000  0.4863690000000 1.0
C      1  0.4235560000000  0.4310610000000  0.5442250000000 1.0
C      1  0.5311020000000  0.5248260000000  0.6182680000000 1.0
C      1  0.5718430000000  0.5179750000000  0.5820720000000 1.0
C      1  0.5084170000000  0.4873820000000  0.4599940000000 1.0
C      1  0.4614050000000  0.4129470000000  0.5219950000000 1.0
C      1  0.6039740000000  0.5294300000000  0.4906830000000 1.0
C      1  0.4370420000000  0.5347300000000  0.4511570000000 1.0
C      1  0.4916730000000  0.5278430000000  0.4351070000000 1.0
C      1  0.5994680000000  0.5489770000000  0.5383590000000 1.0
C      1  0.4734620000000  0.4327550000000  0.4236820000000 1.0
C      1  0.5351720000000  0.5412330000000  0.5706240000000 1.0
C      1  0.4289010000000  0.5994730000000  0.5580070000000 1.0
C      1  0.4674360000000  0.5613510000000  0.4187670000000 1.0
C      1  0.4280540000000  0.4813100000000  0.5389620000000 1.0
C      1  0.4802690000000  0.5154630000000  0.3891750000000 1.0
C      1  0.4462950000000  0.5603110000000  0.4412380000000 1.0
C      1  0.5446350000000  0.5594680000000  0.4777440000000 1.0
C      1  0.4105050000000  0.4714190000000  0.4308950000000 1.0
C      1  0.5826150000000  0.5028070000000  0.4497280000000 1.0
C      1  0.5022950000000  0.5347170000000  0.4801340000000 1.0
C      1  0.4760290000000  0.4400820000000  0.4698160000000 1.0
C      1  0.5491980000000  0.4730440000000  0.5647500000000 1.0
C      1  0.5870570000000  0.4887680000000  0.4254920000000 1.0
C      1  0.4562270000000  0.3989410000000  0.4969070000000 1.0
C      1  0.5160960000000  0.5788410000000  0.4325680000000 1.0
C      1  0.4173450000000  0.5272400000000  0.4710790000000 1.0
C      1  0.4007090000000  0.5496970000000  0.5182010000000 1.0
C      1  0.6023640000000  0.5066200000000  0.5068970000000 1.0
C      1  0.3920530000000  0.5267790000000  0.4571100000000 1.0
C      1  0.4652510000000  0.4335500000000  0.5818940000000 1.0
C      1  0.5798520000000  0.5449090000000  0.5588960000000 1.0
C      1  0.4531280000000  0.4576260000000  0.5714140000000 1.0
C      1  0.6102220000000  0.4811780000000  0.4982970000000 1.0
C      1  0.4424520000000  0.5116890000000  0.4336780000000 1.0
C      1  0.5684870000000  0.5928270000000  0.5096140000000 1.0
C      1  0.5220330000000  0.4810490000000  0.5207050000000 1.0
C      1  0.4445180000000  0.4118480000000  0.5447050000000 1.0
C      1  0.4431610000000  0.5851480000000  0.4863090000000 1.0
C      1  0.5592320000000  0.4333710000000  0.4425890000000 1.0
C      1  0.4889800000000  0.5843590000000  0.5854290000000 1.0
C      1  0.5097410000000  0.4336790000000  0.5099800000000 1.0
C      1  0.5018120000000  0.5251090000000  0.6180610000000 1.0
C      1  0.5566450000000  0.4979350000000  0.4601460000000 1.0
C      1  0.5245980000000  0.5490070000000  0.4944200000000 1.0
C      1  0.4842890000000  0.5389400000000  0.5291340000000 1.0
C      1  0.5584070000000  0.4354690000000  0.4990100000000 1.0
C      1  0.5745590000000  0.3761920000000  0.4874340000000 1.0
C      1  0.4271480000000  0.5992410000000  0.5053270000000 1.0
C      1  0.4979780000000  0.4385320000000  0.4101640000000 1.0
C      1  0.5468560000000  0.4326490000000  0.4169170000000 1.0
C      1  0.5643250000000  0.5622290000000  0.4316550000000 1.0
C      1  0.5818100000000  0.5499600000000  0.4519770000000 1.0
C      1  0.4310950000000  0.4568320000000  0.5522650000000 1.0
C      1  0.5175740000000  0.4364730000000  0.5827340000000 1.0
C      1  0.5099610000000  0.5702750000000  0.5087730000000 1.0
C      1  0.4354960000000  0.5873760000000  0.5814760000000 1.0
C      1  0.4860920000000  0.6139530000000  0.4721070000000 1.0
C      1  0.5365950000000  0.4425290000000  0.4596080000000 1.0
C      1  0.4669860000000  0.4498880000000  0.4941850000000 1.0
C      1  0.3992500000000  0.5218210000000  0.5152530000000 1.0
C      1  0.4246570000000  0.5131910000000  0.5801910000000 1.0
C      1  0.5277560000000  0.5020190000000  0.4999340000000 1.0
C      1  0.4298200000000  0.4517610000000  0.4685860000000 1.0
C      1  0.5183600000000  0.5176130000000  0.5590650000000 1.0
C      1  0.4722610000000  0.5407980000000  0.3980390000000 1.0
C      1  0.5375070000000  0.4404140000000  0.5634820000000 1.0
C      1  0.5353660000000  0.4720030000000  0.3579690000000 1.0
C      1  0.4887030000000  0.4889120000000  0.3903380000000 1.0
C      1  0.3875060000000  0.4542370000000  0.4360760000000 1.0
C      1  0.4315970000000  0.4054870000000  0.4828450000000 1.0
C      1  0.4158550000000  0.4263560000000  0.4706930000000 1.0
C      1  0.5520310000000  0.4558420000000  0.4008360000000 1.0
C      1  0.5759330000000  0.3865080000000  0.4619290000000 1.0
C      1  0.4719930000000  0.5003770000000  0.4983800000000 1.0
C      1  0.5315570000000  0.5039130000000  0.4464950000000 1.0
C      1  0.5204850000000  0.4627280000000  0.4726330000000 1.0
C      1  0.5717940000000  0.3825090000000  0.5137720000000 1.0
C      1  0.5968580000000  0.4614650000000  0.5385690000000 1.0
C      1  0.5344470000000  0.5276610000000  0.5133490000000 1.0
C      1  0.5733720000000  0.4894970000000  0.5731190000000 1.0
C      1  0.4896820000000  0.5355380000000  0.5941850000000 1.0
C      1  0.4359820000000  0.5020480000000  0.6039590000000 1.0
C      1  0.4920770000000  0.4345960000000  0.5905250000000 1.0
C      1  0.4743720000000  0.5973840000000  0.4516860000000 1.0
C      1  0.4574290000000  0.3847390000000  0.5836960000000 1.0
C      1  0.5157340000000  0.4602870000000  0.5022470000000 1.0
C      1  0.4400510000000  0.4898330000000  0.5057420000000 1.0
C      1  0.5910510000000  0.4864980000000  0.5505820000000 1.0
C      1  0.5474470000000  0.5286860000000  0.5944660000000 1.0
C      1  0.4624430000000  0.5258270000000  0.5408380000000 1.0
C      1  0.4337060000000  0.5399960000000  0.5745410000000 1.0
C      1  0.5656500000000  0.4637920000000  0.5003540000000 1.0
C      1  0.4752490000000  0.4209080000000  0.4495760000000 1.0
C      1  0.5069160000000  0.6143900000000  0.5225530000000 1.0
C      1  0.4844070000000  0.4835350000000  0.4432180000000 1.0
C      1  0.4827690000000  0.4592410000000  0.5384090000000 1.0
C      1  0.4187390000000  0.5120020000000  0.4958700000000 1.0
C      1  0.5282920000000  0.4161360000000  0.4696760000000 1.0
C      1  0.4463960000000  0.5616850000000  0.5882470000000 1.0
C      1  0.5105610000000  0.5296150000000  0.5331510000000 1.0
C      1  0.4964610000000  0.6202640000000  0.5480610000000 1.0
C      1  0.4557870000000  0.4086770000000  0.5708080000000 1.0
C      1  0.4138220000000  0.4999390000000  0.5558320000000 1.0
C      1  0.5718030000000  0.5623450000000  0.4755380000000 1.0
C      1  0.6012690000000  0.5522680000000  0.5095260000000 1.0
C      1  0.5696590000000  0.5913030000000  0.4363440000000 1.0
C      1  0.5352760000000  0.4935760000000  0.5469990000000 1.0
C      1  0.5949870000000  0.5263390000000  0.4616490000000 1.0
C      1  0.5216380000000  0.5275480000000  0.4318560000000 1.0
C      1  0.4873820000000  0.5812340000000  0.4299760000000 1.0
C      1  0.4954290000000  0.6206880000000  0.4968370000000 1.0
C      1  0.5438660000000  0.5209040000000  0.6423320000000 1.0
C      1  0.5038180000000  0.4637630000000  0.3947200000000 1.0
C      1  0.4753230000000  0.5602560000000  0.5915540000000 1.0
C      1  0.4617950000000  0.5695460000000  0.5001900000000 1.0
C      1  0.4883950000000  0.3967410000000  0.4580590000000 1.0
C      1  0.5602660000000  0.6089690000000  0.4854320000000 1.0
C      1  0.5307580000000  0.4643490000000  0.3838280000000 1.0
C      1  0.5010190000000  0.5051240000000  0.4850350000000 1.0
C      1  0.4334460000000  0.4588430000000  0.4410850000000 1.0
C      1  0.4814070000000  0.5088880000000  0.6303180000000 1.0
C      1  0.5151290000000  0.4023800000000  0.4490550000000 1.0
END
