TITL C-599896-8500-963 368631.216616406 125000 -1148.55697964258 0 0 188 (C1) n - 1
REM
REM in /home/nfs/bkarasulu/CARBON/AIRSS/Generating-Clusters/TERSOFF/Only-C1/FIRE-HFTN
REM
REM
REM
REM
REM
REM ./C.cell (11c1c37f851c82e70ff6c80c92926a4b)
REM AIRSS Version 0.9.1 bugfix July 2018 build 013d7b7c2542+ Fri, 06 Jul 2018 19:26:36 +0100
REM compiler GCC version 9.2.1 20190827 (Red Hat 9.2.1-1)
REM options -cpp -mtune=generic -march=x86-64 -g -O0 -fpre-include=/usr/include/finclude/math-vector-fortran.h
REM seed -799916533 -1602996010 -1641809318 1428627032 118521142 1530579318 -1231907918 1900924449 196493072 738351176 983319664 86295976 -1684224434 1130267769 2022458089 786764010 824794765 1993191620 2121995601 650844934 203214625 511393384 -1568664044 1430942593 1032612085 2077094644 281719052 1840202386 173712424 1884333812 -84993410 758284481 105194213
REM
CELL 1.54180   50.00000   50.00000   50.00000   90.00000   90.00000   90.00000
LATT -1
SFAC C  
C      1  0.5713140000000  0.4258820000000  0.5869890000000 1.0
C      1  0.4287280000000  0.4741020000000  0.4494180000000 1.0
C      1  0.5548130000000  0.5720430000000  0.4591770000000 1.0
C      1  0.5016460000000  0.5411230000000  0.5126550000000 1.0
C      1  0.6112100000000  0.5012840000000  0.4948540000000 1.0
C      1  0.5998590000000  0.4429840000000  0.4574610000000 1.0
C      1  0.3960310000000  0.4472870000000  0.4312850000000 1.0
C      1  0.4688470000000  0.5304290000000  0.5749110000000 1.0
C      1  0.5620500000000  0.4735560000000  0.4607180000000 1.0
C      1  0.5347550000000  0.5815220000000  0.4776030000000 1.0
C      1  0.5469430000000  0.4218880000000  0.5975590000000 1.0
C      1  0.4264300000000  0.4796990000000  0.4771160000000 1.0
C      1  0.4726220000000  0.5744530000000  0.5992530000000 1.0
C      1  0.4760790000000  0.6158970000000  0.5260470000000 1.0
C      1  0.5263740000000  0.4051540000000  0.4305600000000 1.0
C      1  0.5120700000000  0.5828600000000  0.5769680000000 1.0
C      1  0.4525920000000  0.5391550000000  0.5527350000000 1.0
C      1  0.6082170000000  0.5307030000000  0.5717960000000 1.0
C      1  0.4917930000000  0.4841480000000  0.4655630000000 1.0
C      1  0.5075840000000  0.3768540000000  0.5226480000000 1.0
C      1  0.6150700000000  0.5255700000000  0.5141410000000 1.0
C      1  0.3955610000000  0.4291760000000  0.4517840000000 1.0
C      1  0.4101000000000  0.5204320000000  0.4600770000000 1.0
C      1  0.5124680000000  0.3986360000000  0.4542470000000 1.0
C      1  0.5582150000000  0.5142610000000  0.5649350000000 1.0
C      1  0.4322800000000  0.3587320000000  0.4613470000000 1.0
C      1  0.6058830000000  0.5511540000000  0.5035940000000 1.0
C      1  0.5203850000000  0.4829220000000  0.4173980000000 1.0
C      1  0.4336020000000  0.5619820000000  0.4123460000000 1.0
C      1  0.5433430000000  0.5017950000000  0.4923200000000 1.0
C      1  0.4226650000000  0.3416030000000  0.4435120000000 1.0
C      1  0.5188230000000  0.6109320000000  0.5840530000000 1.0
C      1  0.6002100000000  0.4269920000000  0.4790240000000 1.0
C      1  0.4999920000000  0.4415770000000  0.5941370000000 1.0
C      1  0.5570910000000  0.5256720000000  0.5908030000000 1.0
C      1  0.4589610000000  0.4843680000000  0.3719440000000 1.0
C      1  0.5415330000000  0.4222250000000  0.4164510000000 1.0
C      1  0.5215470000000  0.4897850000000  0.6119070000000 1.0
C      1  0.5844920000000  0.3760230000000  0.5045940000000 1.0
C      1  0.4487580000000  0.5600850000000  0.4916140000000 1.0
C      1  0.4811830000000  0.5396520000000  0.4406910000000 1.0
C      1  0.5123820000000  0.5177200000000  0.6171280000000 1.0
C      1  0.5551580000000  0.4279540000000  0.5423680000000 1.0
C      1  0.5626660000000  0.5264320000000  0.4543690000000 1.0
C      1  0.5524470000000  0.6122150000000  0.5458070000000 1.0
C      1  0.4456630000000  0.5094160000000  0.3743170000000 1.0
C      1  0.4176630000000  0.5420490000000  0.3979690000000 1.0
C      1  0.4967170000000  0.4508550000000  0.5365750000000 1.0
C      1  0.4366050000000  0.4070810000000  0.4652460000000 1.0
C      1  0.4279500000000  0.4516560000000  0.5635610000000 1.0
C      1  0.4290070000000  0.5355040000000  0.6043160000000 1.0
C      1  0.4654190000000  0.5794330000000  0.5715650000000 1.0
C      1  0.4518180000000  0.5290900000000  0.3561650000000 1.0
C      1  0.4860400000000  0.4469480000000  0.4202520000000 1.0
C      1  0.5201220000000  0.4897530000000  0.5029160000000 1.0
C      1  0.5477200000000  0.4528010000000  0.4711360000000 1.0
C      1  0.5331270000000  0.6534870000000  0.4061040000000 1.0
C      1  0.4379510000000  0.5714410000000  0.4670060000000 1.0
C      1  0.5760200000000  0.4002800000000  0.5143430000000 1.0
C      1  0.4884580000000  0.5668220000000  0.5225640000000 1.0
C      1  0.5043430000000  0.6149230000000  0.5245930000000 1.0
C      1  0.4565130000000  0.5215250000000  0.5284840000000 1.0
C      1  0.5008610000000  0.5678200000000  0.6023760000000 1.0
C      1  0.4821900000000  0.5767740000000  0.3943510000000 1.0
C      1  0.5914130000000  0.4259320000000  0.5062760000000 1.0
C      1  0.4315650000000  0.5322190000000  0.4465830000000 1.0
C      1  0.4969200000000  0.5542280000000  0.4613520000000 1.0
C      1  0.5325620000000  0.6045460000000  0.5248320000000 1.0
C      1  0.4968410000000  0.5289830000000  0.5691770000000 1.0
C      1  0.5558440000000  0.5379040000000  0.4283910000000 1.0
C      1  0.5730620000000  0.5504070000000  0.4669770000000 1.0
C      1  0.4747960000000  0.3753220000000  0.4787950000000 1.0
C      1  0.4297980000000  0.4240540000000  0.5200980000000 1.0
C      1  0.5524760000000  0.4011890000000  0.5326500000000 1.0
C      1  0.6002340000000  0.5582270000000  0.5757980000000 1.0
C      1  0.4105020000000  0.4172670000000  0.4732900000000 1.0
C      1  0.4519790000000  0.4925760000000  0.5406210000000 1.0
C      1  0.5471750000000  0.5659070000000  0.4307800000000 1.0
C      1  0.5577350000000  0.5208510000000  0.4063750000000 1.0
C      1  0.5513510000000  0.4873860000000  0.6142600000000 1.0
C      1  0.5143690000000  0.4401790000000  0.5185880000000 1.0
C      1  0.4333340000000  0.4475530000000  0.5357330000000 1.0
C      1  0.4705810000000  0.4844400000000  0.5627300000000 1.0
C      1  0.4085190000000  0.5019140000000  0.4817400000000 1.0
C      1  0.5463480000000  0.5487240000000  0.6034620000000 1.0
C      1  0.4546450000000  0.4111100000000  0.5156350000000 1.0
C      1  0.4740720000000  0.4247250000000  0.5001050000000 1.0
C      1  0.5425420000000  0.4274870000000  0.4755840000000 1.0
C      1  0.5212980000000  0.4225240000000  0.5864100000000 1.0
C      1  0.4440900000000  0.4706990000000  0.5228470000000 1.0
C      1  0.5080910000000  0.5802160000000  0.4661860000000 1.0
C      1  0.3976980000000  0.5375250000000  0.5414630000000 1.0
C      1  0.5181390000000  0.4144820000000  0.4772390000000 1.0
C      1  0.5115600000000  0.5390300000000  0.3978680000000 1.0
C      1  0.4121600000000  0.4705110000000  0.4269860000000 1.0
C      1  0.5892160000000  0.5691240000000  0.5180240000000 1.0
C      1  0.5946900000000  0.4511640000000  0.5501270000000 1.0
C      1  0.4475320000000  0.4399440000000  0.5808890000000 1.0
C      1  0.5992630000000  0.5522010000000  0.4762720000000 1.0
C      1  0.4504210000000  0.4698170000000  0.4931840000000 1.0
C      1  0.3636270000000  0.5138580000000  0.4936690000000 1.0
C      1  0.4073860000000  0.4249920000000  0.5013510000000 1.0
C      1  0.5025960000000  0.6019500000000  0.4489190000000 1.0
C      1  0.5961040000000  0.4798850000000  0.5100790000000 1.0
C      1  0.4082330000000  0.5628140000000  0.5301590000000 1.0
C      1  0.4482350000000  0.4647160000000  0.3551880000000 1.0
C      1  0.4933860000000  0.3786470000000  0.4575960000000 1.0
C      1  0.5598440000000  0.5140950000000  0.5110180000000 1.0
C      1  0.4678820000000  0.4340790000000  0.4348700000000 1.0
C      1  0.5611310000000  0.5648570000000  0.5142520000000 1.0
C      1  0.5761210000000  0.4327920000000  0.5603250000000 1.0
C      1  0.5199470000000  0.5398560000000  0.5564830000000 1.0
C      1  0.4927990000000  0.4941210000000  0.5089760000000 1.0
C      1  0.5182610000000  0.6057190000000  0.4256040000000 1.0
C      1  0.4858890000000  0.5180200000000  0.5219670000000 1.0
C      1  0.5253560000000  0.5381370000000  0.5292940000000 1.0
C      1  0.4929810000000  0.4719070000000  0.5514390000000 1.0
C      1  0.5021890000000  0.4240550000000  0.4987170000000 1.0
C      1  0.4310950000000  0.5604680000000  0.4410620000000 1.0
C      1  0.4828940000000  0.4793440000000  0.3855630000000 1.0
C      1  0.5923960000000  0.4762800000000  0.5628160000000 1.0
C      1  0.5944240000000  0.5903550000000  0.5353350000000 1.0
C      1  0.4400160000000  0.4472580000000  0.3376720000000 1.0
C      1  0.3934740000000  0.4840680000000  0.5431220000000 1.0
C      1  0.5749730000000  0.5957710000000  0.5556730000000 1.0
C      1  0.4482790000000  0.5320070000000  0.5001040000000 1.0
C      1  0.4606140000000  0.4990270000000  0.6087960000000 1.0
C      1  0.3928210000000  0.5389750000000  0.5693780000000 1.0
C      1  0.5131560000000  0.5061710000000  0.4324230000000 1.0
C      1  0.4255340000000  0.5141390000000  0.3942740000000 1.0
C      1  0.5513710000000  0.4464730000000  0.4104160000000 1.0
C      1  0.5422930000000  0.5850930000000  0.5051140000000 1.0
C      1  0.5615490000000  0.5724840000000  0.6000340000000 1.0
C      1  0.5509650000000  0.5391340000000  0.5190850000000 1.0
C      1  0.5795160000000  0.5782580000000  0.5787240000000 1.0
C      1  0.5523600000000  0.6387800000000  0.5537430000000 1.0
C      1  0.4542880000000  0.4288070000000  0.4585710000000 1.0
C      1  0.5063770000000  0.5325880000000  0.4779890000000 1.0
C      1  0.4583610000000  0.5247640000000  0.4524260000000 1.0
C      1  0.4898290000000  0.5801900000000  0.5550160000000 1.0
C      1  0.4050840000000  0.5393590000000  0.5930880000000 1.0
C      1  0.4831040000000  0.4063670000000  0.5675470000000 1.0
C      1  0.4757670000000  0.4830120000000  0.5916630000000 1.0
C      1  0.5121760000000  0.4036310000000  0.5648400000000 1.0
C      1  0.6000790000000  0.5122580000000  0.5945140000000 1.0
C      1  0.5870700000000  0.4663040000000  0.4492290000000 1.0
C      1  0.5956860000000  0.4915080000000  0.4387670000000 1.0
C      1  0.5253420000000  0.3910580000000  0.5407340000000 1.0
C      1  0.4876680000000  0.3719100000000  0.5045400000000 1.0
C      1  0.5729020000000  0.5063460000000  0.6060900000000 1.0
C      1  0.5312790000000  0.5632730000000  0.5667170000000 1.0
C      1  0.5762510000000  0.4962010000000  0.5242510000000 1.0
C      1  0.4594900000000  0.5148450000000  0.4793170000000 1.0
C      1  0.4137710000000  0.4913840000000  0.4075170000000 1.0
C      1  0.4165870000000  0.3281170000000  0.4220340000000 1.0
C      1  0.3936000000000  0.5501700000000  0.3872710000000 1.0
C      1  0.5690810000000  0.4953730000000  0.4139150000000 1.0
C      1  0.4978780000000  0.4685030000000  0.4066730000000 1.0
C      1  0.5970770000000  0.4516740000000  0.5208470000000 1.0
C      1  0.4658520000000  0.5758050000000  0.5076850000000 1.0
C      1  0.5748320000000  0.4955790000000  0.5521280000000 1.0
C      1  0.4560650000000  0.5743630000000  0.4003800000000 1.0
C      1  0.5278140000000  0.5808000000000  0.4150600000000 1.0
C      1  0.5480820000000  0.4744430000000  0.4129120000000 1.0
C      1  0.4983950000000  0.5272590000000  0.4203630000000 1.0
C      1  0.4539950000000  0.5242340000000  0.5987900000000 1.0
C      1  0.4740570000000  0.4294810000000  0.5833180000000 1.0
C      1  0.3818690000000  0.4633730000000  0.5265160000000 1.0
C      1  0.5552920000000  0.5007700000000  0.4666120000000 1.0
C      1  0.4612570000000  0.4430810000000  0.4822840000000 1.0
C      1  0.5007220000000  0.4702570000000  0.6008030000000 1.0
C      1  0.4472380000000  0.3805730000000  0.4706800000000 1.0
C      1  0.5087750000000  0.5672770000000  0.3979370000000 1.0
C      1  0.5357720000000  0.5261680000000  0.3885470000000 1.0
C      1  0.4728790000000  0.4886930000000  0.4873300000000 1.0
C      1  0.4452220000000  0.5663920000000  0.5570420000000 1.0
C      1  0.4526130000000  0.5972770000000  0.5223150000000 1.0
C      1  0.4083340000000  0.4729710000000  0.5655400000000 1.0
C      1  0.5407100000000  0.4452880000000  0.5262310000000 1.0
C      1  0.3894760000000  0.5087230000000  0.5016870000000 1.0
C      1  0.5185140000000  0.5458400000000  0.6116910000000 1.0
C      1  0.5087740000000  0.5068300000000  0.4608620000000 1.0
C      1  0.4309150000000  0.5810010000000  0.5365210000000 1.0
C      1  0.6167730000000  0.5241950000000  0.5440070000000 1.0
C      1  0.3950530000000  0.5105550000000  0.5298780000000 1.0
C      1  0.3864500000000  0.4421820000000  0.5103600000000 1.0
C      1  0.6094270000000  0.5029650000000  0.4638130000000 1.0
C      1  0.5246210000000  0.6304530000000  0.4148390000000 1.0
END
