TITL C-599897-7526-2 0.11929239431499 125000 -1060.89529355201 0 0 173 (C1) n - 1
REM
REM in /home/nfs/bkarasulu/CARBON/AIRSS/Generating-Clusters/TERSOFF/Only-C1/FIRE-HFTN
REM
REM
REM
REM
REM
REM ./C.cell (11c1c37f851c82e70ff6c80c92926a4b)
REM AIRSS Version 0.9.1 bugfix July 2018 build 013d7b7c2542+ Fri, 06 Jul 2018 19:26:36 +0100
REM compiler GCC version 9.2.1 20190827 (Red Hat 9.2.1-1)
REM options -cpp -mtune=generic -march=x86-64 -g -O0 -fpre-include=/usr/include/finclude/math-vector-fortran.h
REM seed -773715185 -1291640845 -721371479 -1962732864 2141920282 963657849 1844149171 -1528863554 1810978470 625973647 -456306697 1734360522 -1452480231 -849100220 1785462258 -409501608 854133902 923193872 -899301663 885675713 -268558094 -1517324602 -958505568 -653830943 -826939649 116749181 -2088704942 1566772961 -72829823 1600637515 -1009457341 -1064407189 -274683536
REM
CELL 1.54180   50.00000   50.00000   50.00000   90.00000   90.00000   90.00000
LATT -1
SFAC C  
C      1  0.4729090000000  0.5200340000000  0.5029710000000 1.0
C      1  0.4487900000000  0.6068680000000  0.5383920000000 1.0
C      1  0.4995950000000  0.5099210000000  0.5522390000000 1.0
C      1  0.4393790000000  0.5799300000000  0.5408230000000 1.0
C      1  0.5632880000000  0.4344290000000  0.5379140000000 1.0
C      1  0.5492820000000  0.4537300000000  0.5535550000000 1.0
C      1  0.5506870000000  0.3891730000000  0.4557810000000 1.0
C      1  0.5709300000000  0.5392770000000  0.4545340000000 1.0
C      1  0.5399000000000  0.5374280000000  0.3857190000000 1.0
C      1  0.3750710000000  0.5430400000000  0.4515470000000 1.0
C      1  0.5366190000000  0.4241380000000  0.6099940000000 1.0
C      1  0.4509960000000  0.4741820000000  0.4298950000000 1.0
C      1  0.5931530000000  0.4918200000000  0.4366190000000 1.0
C      1  0.4737310000000  0.4966660000000  0.5559970000000 1.0
C      1  0.5762430000000  0.4726420000000  0.5062700000000 1.0
C      1  0.4476290000000  0.3973680000000  0.5258050000000 1.0
C      1  0.3799620000000  0.4155510000000  0.3957510000000 1.0
C      1  0.6519110000000  0.4581800000000  0.5876470000000 1.0
C      1  0.3784350000000  0.5175840000000  0.5600890000000 1.0
C      1  0.6161170000000  0.5753820000000  0.4725220000000 1.0
C      1  0.5024670000000  0.4022610000000  0.4651320000000 1.0
C      1  0.5756880000000  0.4543250000000  0.6940760000000 1.0
C      1  0.5195860000000  0.5565260000000  0.4515390000000 1.0
C      1  0.4243790000000  0.4639840000000  0.5512020000000 1.0
C      1  0.5164740000000  0.5572860000000  0.5368360000000 1.0
C      1  0.4480180000000  0.5080580000000  0.5676500000000 1.0
C      1  0.4005470000000  0.5067450000000  0.4688250000000 1.0
C      1  0.3891370000000  0.5643380000000  0.4596180000000 1.0
C      1  0.5266700000000  0.5323410000000  0.4383850000000 1.0
C      1  0.6217970000000  0.4710960000000  0.5086780000000 1.0
C      1  0.4586540000000  0.3873880000000  0.5740890000000 1.0
C      1  0.5814210000000  0.5985030000000  0.4565870000000 1.0
C      1  0.4813810000000  0.5002360000000  0.4868110000000 1.0
C      1  0.5475250000000  0.3998730000000  0.5674130000000 1.0
C      1  0.5468640000000  0.5193230000000  0.5979350000000 1.0
C      1  0.5077940000000  0.4951910000000  0.3936770000000 1.0
C      1  0.3432970000000  0.4771920000000  0.4321650000000 1.0
C      1  0.5598110000000  0.4836390000000  0.4850040000000 1.0
C      1  0.4534780000000  0.4988530000000  0.4477430000000 1.0
C      1  0.4098030000000  0.4635600000000  0.5247150000000 1.0
C      1  0.4325540000000  0.5362450000000  0.3876410000000 1.0
C      1  0.5282710000000  0.4432630000000  0.5682350000000 1.0
C      1  0.5596820000000  0.5358370000000  0.5790370000000 1.0
C      1  0.3850710000000  0.5436650000000  0.5680730000000 1.0
C      1  0.5168770000000  0.4800730000000  0.5147750000000 1.0
C      1  0.4575390000000  0.6185550000000  0.5152450000000 1.0
C      1  0.4180030000000  0.5593440000000  0.4988380000000 1.0
C      1  0.5362920000000  0.5956890000000  0.5616900000000 1.0
C      1  0.4458590000000  0.5370420000000  0.5693230000000 1.0
C      1  0.5212010000000  0.4969160000000  0.5377700000000 1.0
C      1  0.3986660000000  0.5017380000000  0.5480990000000 1.0
C      1  0.5544870000000  0.5241130000000  0.4364950000000 1.0
C      1  0.4775470000000  0.3973930000000  0.4812270000000 1.0
C      1  0.4115290000000  0.5330650000000  0.5068210000000 1.0
C      1  0.5909340000000  0.4646410000000  0.4451340000000 1.0
C      1  0.6086120000000  0.5638810000000  0.4458700000000 1.0
C      1  0.6263140000000  0.4602150000000  0.5832020000000 1.0
C      1  0.5608330000000  0.4393940000000  0.6162850000000 1.0
C      1  0.4620380000000  0.6144710000000  0.4887840000000 1.0
C      1  0.4805120000000  0.5833700000000  0.4535810000000 1.0
C      1  0.5341750000000  0.4195490000000  0.5822620000000 1.0
C      1  0.5567090000000  0.5868010000000  0.4665160000000 1.0
C      1  0.5453700000000  0.5098450000000  0.4835190000000 1.0
C      1  0.5712440000000  0.4492250000000  0.6688990000000 1.0
C      1  0.5262990000000  0.6251860000000  0.4553900000000 1.0
C      1  0.5693630000000  0.5028500000000  0.4229970000000 1.0
C      1  0.4234470000000  0.4914580000000  0.5618470000000 1.0
C      1  0.5808630000000  0.5380540000000  0.5336460000000 1.0
C      1  0.5360230000000  0.5884940000000  0.4230160000000 1.0
C      1  0.5059740000000  0.4883290000000  0.6095990000000 1.0
C      1  0.6131550000000  0.6240390000000  0.4860390000000 1.0
C      1  0.5152330000000  0.6482630000000  0.4622220000000 1.0
C      1  0.5636600000000  0.4568150000000  0.4415700000000 1.0
C      1  0.5992000000000  0.4791840000000  0.5246060000000 1.0
C      1  0.5623360000000  0.5263820000000  0.5519520000000 1.0
C      1  0.5072250000000  0.5128420000000  0.4468030000000 1.0
C      1  0.4312360000000  0.5233100000000  0.5244760000000 1.0
C      1  0.4321760000000  0.5615110000000  0.5618910000000 1.0
C      1  0.5577390000000  0.5558270000000  0.3949160000000 1.0
C      1  0.5722790000000  0.4451210000000  0.5136090000000 1.0
C      1  0.5277860000000  0.5035240000000  0.6077750000000 1.0
C      1  0.4566890000000  0.4355910000000  0.5775540000000 1.0
C      1  0.5236980000000  0.3850010000000  0.4571590000000 1.0
C      1  0.5544110000000  0.4435730000000  0.4196520000000 1.0
C      1  0.5090360000000  0.5803900000000  0.4142080000000 1.0
C      1  0.3532610000000  0.5076520000000  0.5638500000000 1.0
C      1  0.4868050000000  0.4111990000000  0.6088120000000 1.0
C      1  0.4663330000000  0.5650240000000  0.5049390000000 1.0
C      1  0.4624070000000  0.4855730000000  0.4738950000000 1.0
C      1  0.5989350000000  0.5483510000000  0.5163790000000 1.0
C      1  0.2895730000000  0.4805180000000  0.4364280000000 1.0
C      1  0.4049450000000  0.5614830000000  0.5695440000000 1.0
C      1  0.4724920000000  0.3972560000000  0.5099230000000 1.0
C      1  0.5989910000000  0.4624100000000  0.5775600000000 1.0
C      1  0.4489170000000  0.3816150000000  0.5495450000000 1.0
C      1  0.5064570000000  0.4905000000000  0.4905730000000 1.0
C      1  0.5152470000000  0.5510250000000  0.5065210000000 1.0
C      1  0.4842400000000  0.5706130000000  0.4271570000000 1.0
C      1  0.4325470000000  0.5873810000000  0.4622110000000 1.0
C      1  0.4122190000000  0.5715770000000  0.4737310000000 1.0
C      1  0.5188420000000  0.5982500000000  0.5144620000000 1.0
C      1  0.5795580000000  0.4504740000000  0.5963710000000 1.0
C      1  0.5666170000000  0.4441090000000  0.6433210000000 1.0
C      1  0.5484030000000  0.4635070000000  0.4644940000000 1.0
C      1  0.5512620000000  0.3942640000000  0.5184640000000 1.0
C      1  0.5622030000000  0.5763850000000  0.4145580000000 1.0
C      1  0.4386950000000  0.4387900000000  0.5549010000000 1.0
C      1  0.6208960000000  0.4577190000000  0.4847750000000 1.0
C      1  0.4781270000000  0.5187740000000  0.4395650000000 1.0
C      1  0.4165800000000  0.4390890000000  0.5107100000000 1.0
C      1  0.4278190000000  0.4581910000000  0.4363190000000 1.0
C      1  0.5040710000000  0.5381180000000  0.5538660000000 1.0
C      1  0.4850710000000  0.5443230000000  0.5037330000000 1.0
C      1  0.5649570000000  0.4067160000000  0.4731720000000 1.0
C      1  0.4565540000000  0.4124370000000  0.4689930000000 1.0
C      1  0.5161890000000  0.4515160000000  0.5153980000000 1.0
C      1  0.3594290000000  0.4970920000000  0.4432540000000 1.0
C      1  0.5617650000000  0.4787120000000  0.5541730000000 1.0
C      1  0.5653940000000  0.4943430000000  0.3972090000000 1.0
C      1  0.4629380000000  0.4395840000000  0.4660390000000 1.0
C      1  0.4334800000000  0.4227030000000  0.5292830000000 1.0
C      1  0.5106360000000  0.4177130000000  0.6206820000000 1.0
C      1  0.5480720000000  0.5019550000000  0.5466990000000 1.0
C      1  0.3991210000000  0.5085790000000  0.4975290000000 1.0
C      1  0.6035830000000  0.4470760000000  0.4646240000000 1.0
C      1  0.3155030000000  0.4788990000000  0.4343660000000 1.0
C      1  0.4588880000000  0.5970350000000  0.4661900000000 1.0
C      1  0.3670690000000  0.4352910000000  0.4068750000000 1.0
C      1  0.4143540000000  0.4467060000000  0.4570210000000 1.0
C      1  0.5070920000000  0.4306290000000  0.4561230000000 1.0
C      1  0.4725320000000  0.5436970000000  0.4238540000000 1.0
C      1  0.5905160000000  0.4764440000000  0.5530740000000 1.0
C      1  0.3775090000000  0.5151110000000  0.4541210000000 1.0
C      1  0.5223820000000  0.5855910000000  0.5398820000000 1.0
C      1  0.3549660000000  0.4555740000000  0.4188770000000 1.0
C      1  0.5645050000000  0.5627200000000  0.5852000000000 1.0
C      1  0.5211550000000  0.5013510000000  0.4695660000000 1.0
C      1  0.4112330000000  0.5303510000000  0.3738480000000 1.0
C      1  0.6100100000000  0.5123300000000  0.4458300000000 1.0
C      1  0.4687270000000  0.4600910000000  0.5146850000000 1.0
C      1  0.5218220000000  0.5171640000000  0.3862200000000 1.0
C      1  0.5989340000000  0.5377760000000  0.4493460000000 1.0
C      1  0.5046250000000  0.5755670000000  0.4670760000000 1.0
C      1  0.4401960000000  0.5692620000000  0.5141310000000 1.0
C      1  0.4893980000000  0.4144630000000  0.5247480000000 1.0
C      1  0.4603590000000  0.4598960000000  0.4858090000000 1.0
C      1  0.5275990000000  0.4448440000000  0.4703420000000 1.0
C      1  0.5583080000000  0.4066010000000  0.5424240000000 1.0
C      1  0.4844800000000  0.4736750000000  0.6038080000000 1.0
C      1  0.4671090000000  0.4105450000000  0.5878570000000 1.0
C      1  0.3971610000000  0.4895610000000  0.5200930000000 1.0
C      1  0.4638020000000  0.4843490000000  0.5310180000000 1.0
C      1  0.5373680000000  0.6003900000000  0.4492910000000 1.0
C      1  0.5137710000000  0.5798350000000  0.4933540000000 1.0
C      1  0.5873330000000  0.5814490000000  0.4326430000000 1.0
C      1  0.5890980000000  0.4218460000000  0.4687220000000 1.0
C      1  0.4532330000000  0.5411180000000  0.4034660000000 1.0
C      1  0.5417810000000  0.5387680000000  0.4921140000000 1.0
C      1  0.5035760000000  0.6703460000000  0.4697050000000 1.0
C      1  0.4533310000000  0.5083110000000  0.5189300000000 1.0
C      1  0.4840470000000  0.4441580000000  0.4461690000000 1.0
C      1  0.4116540000000  0.4383790000000  0.4827220000000 1.0
C      1  0.5482040000000  0.4115310000000  0.4964840000000 1.0
C      1  0.5577720000000  0.5573010000000  0.4741060000000 1.0
C      1  0.4946310000000  0.4753920000000  0.4066560000000 1.0
C      1  0.4257840000000  0.5088060000000  0.4552090000000 1.0
C      1  0.5542980000000  0.5866960000000  0.5792750000000 1.0
C      1  0.4904100000000  0.4421400000000  0.5220460000000 1.0
C      1  0.6043750000000  0.6019560000000  0.4731810000000 1.0
C      1  0.6132020000000  0.5598710000000  0.4964530000000 1.0
C      1  0.4772030000000  0.4623970000000  0.4250800000000 1.0
C      1  0.5307370000000  0.4347850000000  0.4968130000000 1.0
C      1  0.4667520000000  0.4582770000000  0.5911370000000 1.0
END
