TITL C-599893-4344-1393 2986.16673374419 125000 -450.387709780549 0 0 74 (C1) n - 1
REM
REM in /home/nfs/bkarasulu/CARBON/AIRSS/Generating-Clusters/TERSOFF/Only-C1/FIRE-HFTN
REM
REM
REM
REM
REM
REM ./C.cell (11c1c37f851c82e70ff6c80c92926a4b)
REM AIRSS Version 0.9.1 bugfix July 2018 build 013d7b7c2542+ Fri, 06 Jul 2018 19:26:36 +0100
REM compiler GCC version 9.2.1 20190827 (Red Hat 9.2.1-1)
REM options -cpp -mtune=generic -march=x86-64 -g -O0 -fpre-include=/usr/include/finclude/math-vector-fortran.h
REM seed 102521860 1903554375 2136506908 -1144123569 -923805052 -2141251937 -496806779 1121239538 1472951853 -1343549546 1880216879 -430902461 -660042136 1971733120 -1551614685 -1692499856 1884983402 1508496705 403108017 -1334591601 -1998443245 -472094198 -90737473 -400997363 1152743847 -1050585351 -1392786386 1183126542 1330184042 -1175902820 -1735488051 -1978227279 -160230485
REM
CELL 1.54180   50.00000   50.00000   50.00000   90.00000   90.00000   90.00000
LATT -1
SFAC C  
C      1  0.5464960000000  0.5534310000000  0.5065710000000 1.0
C      1  0.4989750000000  0.5397690000000  0.4426140000000 1.0
C      1  0.4811710000000  0.5171380000000  0.4452160000000 1.0
C      1  0.5248120000000  0.4969290000000  0.4856410000000 1.0
C      1  0.4543710000000  0.5565600000000  0.4844910000000 1.0
C      1  0.5313820000000  0.5017240000000  0.4244040000000 1.0
C      1  0.5143210000000  0.4788650000000  0.4211130000000 1.0
C      1  0.5370830000000  0.4262980000000  0.4735530000000 1.0
C      1  0.5265510000000  0.5341470000000  0.4376690000000 1.0
C      1  0.5200190000000  0.5331950000000  0.5443090000000 1.0
C      1  0.4812230000000  0.4981610000000  0.4662390000000 1.0
C      1  0.4428160000000  0.4771660000000  0.5894880000000 1.0
C      1  0.5542800000000  0.4249000000000  0.4968190000000 1.0
C      1  0.4981390000000  0.5068450000000  0.4876520000000 1.0
C      1  0.5053700000000  0.4031320000000  0.5024790000000 1.0
C      1  0.4710800000000  0.4629820000000  0.5002980000000 1.0
C      1  0.4590460000000  0.5362810000000  0.6192100000000 1.0
C      1  0.4194360000000  0.5230650000000  0.6431670000000 1.0
C      1  0.5769030000000  0.5111540000000  0.5224120000000 1.0
C      1  0.4928240000000  0.4648270000000  0.5200140000000 1.0
C      1  0.4157760000000  0.4713990000000  0.4633090000000 1.0
C      1  0.5006520000000  0.4161140000000  0.5254420000000 1.0
C      1  0.5616100000000  0.4663550000000  0.4508790000000 1.0
C      1  0.5356520000000  0.4585960000000  0.5611390000000 1.0
C      1  0.4158990000000  0.4976200000000  0.4681000000000 1.0
C      1  0.4999140000000  0.5509490000000  0.5902930000000 1.0
C      1  0.5851350000000  0.4740800000000  0.4659210000000 1.0
C      1  0.4219250000000  0.4455870000000  0.4604740000000 1.0
C      1  0.4577710000000  0.4634940000000  0.5701930000000 1.0
C      1  0.5504100000000  0.4915970000000  0.4436660000000 1.0
C      1  0.5123180000000  0.6831600000000  0.4001080000000 1.0
C      1  0.4849980000000  0.4570030000000  0.5764940000000 1.0
C      1  0.4479410000000  0.4591640000000  0.5169300000000 1.0
C      1  0.5413550000000  0.4867950000000  0.5527680000000 1.0
C      1  0.4967010000000  0.5888490000000  0.4448750000000 1.0
C      1  0.4908370000000  0.4510370000000  0.4555080000000 1.0
C      1  0.5446990000000  0.5338610000000  0.4617350000000 1.0
C      1  0.5079890000000  0.4501240000000  0.5615860000000 1.0
C      1  0.5047930000000  0.6361950000000  0.4225120000000 1.0
C      1  0.5218060000000  0.5494150000000  0.5199790000000 1.0
C      1  0.5904500000000  0.4982870000000  0.4779910000000 1.0
C      1  0.5086210000000  0.6598730000000  0.4112290000000 1.0
C      1  0.4981050000000  0.4916280000000  0.5302010000000 1.0
C      1  0.4113270000000  0.5249840000000  0.4727400000000 1.0
C      1  0.4364180000000  0.4955410000000  0.6075070000000 1.0
C      1  0.5531790000000  0.4386680000000  0.5483460000000 1.0
C      1  0.5002830000000  0.4421950000000  0.5351810000000 1.0
C      1  0.4820560000000  0.5616950000000  0.4831860000000 1.0
C      1  0.4379680000000  0.5183810000000  0.6236450000000 1.0
C      1  0.5347040000000  0.4750180000000  0.4989980000000 1.0
C      1  0.5144400000000  0.4571950000000  0.4405030000000 1.0
C      1  0.5570280000000  0.4684200000000  0.5142470000000 1.0
C      1  0.5399750000000  0.4469380000000  0.4528600000000 1.0
C      1  0.5008250000000  0.6125170000000  0.4337280000000 1.0
C      1  0.4465990000000  0.4591710000000  0.5441870000000 1.0
C      1  0.4803680000000  0.5472620000000  0.6078680000000 1.0
C      1  0.5591750000000  0.4406240000000  0.5201070000000 1.0
C      1  0.5109300000000  0.4135250000000  0.4768280000000 1.0
C      1  0.4322980000000  0.5425650000000  0.4791840000000 1.0
C      1  0.4765940000000  0.4699440000000  0.4719800000000 1.0
C      1  0.4883340000000  0.4234770000000  0.4623730000000 1.0
C      1  0.4621990000000  0.4133960000000  0.4606770000000 1.0
C      1  0.5192220000000  0.5038470000000  0.5454300000000 1.0
C      1  0.3857830000000  0.5347590000000  0.4709440000000 1.0
C      1  0.5609490000000  0.5410790000000  0.4853780000000 1.0
C      1  0.5796780000000  0.5193540000000  0.4947720000000 1.0
C      1  0.5633830000000  0.4888990000000  0.5335080000000 1.0
C      1  0.5427110000000  0.5059490000000  0.4667080000000 1.0
C      1  0.4375100000000  0.4238840000000  0.4597790000000 1.0
C      1  0.5142810000000  0.5464560000000  0.5684280000000 1.0
C      1  0.4855080000000  0.5102770000000  0.5128290000000 1.0
C      1  0.4991540000000  0.5596900000000  0.5058310000000 1.0
C      1  0.4627390000000  0.5226320000000  0.5209240000000 1.0
C      1  0.4927240000000  0.5639070000000  0.4566300000000 1.0
END
