TITL C-599896-8500-789 2259.30218728498 125000 -541.027366438212 0 0 89 (C1) n - 1
REM
REM in /home/nfs/bkarasulu/CARBON/AIRSS/Generating-Clusters/TERSOFF/Only-C1/FIRE-HFTN
REM
REM
REM
REM
REM
REM ./C.cell (11c1c37f851c82e70ff6c80c92926a4b)
REM AIRSS Version 0.9.1 bugfix July 2018 build 013d7b7c2542+ Fri, 06 Jul 2018 19:26:36 +0100
REM compiler GCC version 9.2.1 20190827 (Red Hat 9.2.1-1)
REM options -cpp -mtune=generic -march=x86-64 -g -O0 -fpre-include=/usr/include/finclude/math-vector-fortran.h
REM seed 1399507752 193264790 516436414 -759706981 1972451953 555730791 1425494653 2037465672 714936575 -1271135033 1149480197 527468090 300693903 -223302781 126814342 908072777 -419323089 505620906 -571859032 109581758 -2002206627 -1207586677 -503407671 -1279216033 -1038849819 -10241125 -961523560 1940291877 1287016387 1648853452 -1974895331 230461837 603308276
REM
CELL 1.54180   50.00000   50.00000   50.00000   90.00000   90.00000   90.00000
LATT -1
SFAC C  
C      1  0.4717940000000  0.4808990000000  0.5765790000000 1.0
C      1  0.5020590000000  0.4747660000000  0.3834020000000 1.0
C      1  0.5976740000000  0.4970890000000  0.4781880000000 1.0
C      1  0.5235510000000  0.4847160000000  0.6076430000000 1.0
C      1  0.4931480000000  0.4362030000000  0.4404420000000 1.0
C      1  0.4850730000000  0.4044100000000  0.5266880000000 1.0
C      1  0.4204080000000  0.4450280000000  0.5281420000000 1.0
C      1  0.4661690000000  0.5197890000000  0.4173340000000 1.0
C      1  0.4692640000000  0.5109720000000  0.5685700000000 1.0
C      1  0.4975470000000  0.5728900000000  0.5348200000000 1.0
C      1  0.4628810000000  0.4666210000000  0.4794540000000 1.0
C      1  0.5239960000000  0.5663780000000  0.5230580000000 1.0
C      1  0.4407170000000  0.4275670000000  0.5281150000000 1.0
C      1  0.4710700000000  0.5431660000000  0.4322920000000 1.0
C      1  0.3899790000000  0.5460670000000  0.4433550000000 1.0
C      1  0.4354680000000  0.4769540000000  0.4761740000000 1.0
C      1  0.5671030000000  0.5693310000000  0.4989280000000 1.0
C      1  0.4878390000000  0.5075050000000  0.4883320000000 1.0
C      1  0.5851930000000  0.4538580000000  0.5701990000000 1.0
C      1  0.3970940000000  0.5210940000000  0.4376620000000 1.0
C      1  0.4002750000000  0.5908590000000  0.4682720000000 1.0
C      1  0.5930100000000  0.5229140000000  0.4841210000000 1.0
C      1  0.4962150000000  0.4831040000000  0.4086500000000 1.0
C      1  0.4830750000000  0.4162280000000  0.4240970000000 1.0
C      1  0.5085240000000  0.4796570000000  0.4575220000000 1.0
C      1  0.5482870000000  0.4411640000000  0.4622570000000 1.0
C      1  0.5717410000000  0.4328990000000  0.5599950000000 1.0
C      1  0.5665770000000  0.4639010000000  0.4552840000000 1.0
C      1  0.4718640000000  0.4558360000000  0.4515680000000 1.0
C      1  0.4452050000000  0.4706810000000  0.5689920000000 1.0
C      1  0.4969630000000  0.5547250000000  0.4343530000000 1.0
C      1  0.5214070000000  0.4177780000000  0.4981440000000 1.0
C      1  0.5541260000000  0.4950610000000  0.5061020000000 1.0
C      1  0.5077750000000  0.4595600000000  0.4766430000000 1.0
C      1  0.5072970000000  0.5061300000000  0.4684110000000 1.0
C      1  0.4930870000000  0.4603120000000  0.5807180000000 1.0
C      1  0.5028160000000  0.4444780000000  0.5580050000000 1.0
C      1  0.5953420000000  0.6123320000000  0.5166950000000 1.0
C      1  0.4319220000000  0.4867050000000  0.5483660000000 1.0
C      1  0.5615540000000  0.4707000000000  0.5116410000000 1.0
C      1  0.5260800000000  0.5221760000000  0.4525750000000 1.0
C      1  0.4318630000000  0.4825100000000  0.4481660000000 1.0
C      1  0.5788780000000  0.4797490000000  0.5666680000000 1.0
C      1  0.5382520000000  0.5710680000000  0.4982620000000 1.0
C      1  0.4207600000000  0.4732980000000  0.5260370000000 1.0
C      1  0.5376510000000  0.5025860000000  0.4329340000000 1.0
C      1  0.4900090000000  0.4757410000000  0.5245410000000 1.0
C      1  0.5238530000000  0.4268050000000  0.5459330000000 1.0
C      1  0.4684890000000  0.4273900000000  0.5293320000000 1.0
C      1  0.4535640000000  0.5494020000000  0.4533720000000 1.0
C      1  0.5514410000000  0.4329410000000  0.5406360000000 1.0
C      1  0.5283900000000  0.5396480000000  0.5319440000000 1.0
C      1  0.5290100000000  0.4949530000000  0.5603370000000 1.0
C      1  0.5806540000000  0.5458040000000  0.4907160000000 1.0
C      1  0.5817890000000  0.5913830000000  0.5077870000000 1.0
C      1  0.3910410000000  0.5703760000000  0.4540600000000 1.0
C      1  0.4208810000000  0.4827830000000  0.4994220000000 1.0
C      1  0.5025540000000  0.4349940000000  0.4860980000000 1.0
C      1  0.4765900000000  0.5751920000000  0.5158050000000 1.0
C      1  0.5085560000000  0.4624510000000  0.6042660000000 1.0
C      1  0.4382280000000  0.6069730000000  0.4998260000000 1.0
C      1  0.4557920000000  0.4741220000000  0.4337770000000 1.0
C      1  0.4890850000000  0.5586810000000  0.5588370000000 1.0
C      1  0.4701660000000  0.4918230000000  0.4165100000000 1.0
C      1  0.5191880000000  0.5496890000000  0.4513030000000 1.0
C      1  0.5892550000000  0.4725530000000  0.4703140000000 1.0
C      1  0.5471200000000  0.4297560000000  0.4906500000000 1.0
C      1  0.5576330000000  0.4431590000000  0.5140140000000 1.0
C      1  0.4784300000000  0.4822580000000  0.4986190000000 1.0
C      1  0.4543750000000  0.5505060000000  0.4800110000000 1.0
C      1  0.5264600000000  0.5666860000000  0.4727580000000 1.0
C      1  0.4167740000000  0.6041710000000  0.4843300000000 1.0
C      1  0.4601430000000  0.5972220000000  0.5114020000000 1.0
C      1  0.5076600000000  0.5214790000000  0.5269880000000 1.0
C      1  0.5594440000000  0.4847940000000  0.4367860000000 1.0
C      1  0.5238110000000  0.4351010000000  0.4447440000000 1.0
C      1  0.5091410000000  0.4950460000000  0.5380780000000 1.0
C      1  0.4882300000000  0.5280330000000  0.5071230000000 1.0
C      1  0.5149130000000  0.4840230000000  0.4295360000000 1.0
C      1  0.4862110000000  0.5340840000000  0.5735220000000 1.0
C      1  0.4718020000000  0.5507610000000  0.5019550000000 1.0
C      1  0.5229060000000  0.5041470000000  0.5871850000000 1.0
C      1  0.5082820000000  0.5277550000000  0.5899810000000 1.0
C      1  0.6086530000000  0.6329300000000  0.5255380000000 1.0
C      1  0.5568220000000  0.4917040000000  0.5572960000000 1.0
C      1  0.4841980000000  0.4505250000000  0.5362760000000 1.0
C      1  0.4453130000000  0.5121350000000  0.5514780000000 1.0
C      1  0.5131000000000  0.4095460000000  0.5244550000000 1.0
C      1  0.4114720000000  0.4987540000000  0.4386010000000 1.0
END
