TITL C-599896-8500-1281 101.763666809989 125000 -860.447454755689 0 0 141 (C1) n - 1
REM
REM in /home/nfs/bkarasulu/CARBON/AIRSS/Generating-Clusters/TERSOFF/Only-C1/FIRE-HFTN
REM
REM
REM
REM
REM
REM ./C.cell (11c1c37f851c82e70ff6c80c92926a4b)
REM AIRSS Version 0.9.1 bugfix July 2018 build 013d7b7c2542+ Fri, 06 Jul 2018 19:26:36 +0100
REM compiler GCC version 9.2.1 20190827 (Red Hat 9.2.1-1)
REM options -cpp -mtune=generic -march=x86-64 -g -O0 -fpre-include=/usr/include/finclude/math-vector-fortran.h
REM seed 1523717438 1798486426 911008230 -1174805251 751066814 -390182534 -1579081866 99485555 931738943 -649783725 126813251 482867981 1368889810 1150983864 405850199 1011640104 -269071181 639202422 2068340646 393761141 1371989522 -1455619377 -797526499 -1861267081 1673746326 -1507398349 1513013122 864886135 1525010150 1190057293 -1707216475 1632340449 695784885
REM
CELL 1.54180   50.00000   50.00000   50.00000   90.00000   90.00000   90.00000
LATT -1
SFAC C  
C      1  0.5676520000000  0.4817520000000  0.4451060000000 1.0
C      1  0.4747410000000  0.5793380000000  0.4806740000000 1.0
C      1  0.4279670000000  0.4689700000000  0.5372230000000 1.0
C      1  0.4232910000000  0.4886270000000  0.5575730000000 1.0
C      1  0.5916330000000  0.5312890000000  0.4616260000000 1.0
C      1  0.5943680000000  0.4281350000000  0.5022130000000 1.0
C      1  0.4848680000000  0.4470480000000  0.3886230000000 1.0
C      1  0.4093860000000  0.4252280000000  0.4947510000000 1.0
C      1  0.5373400000000  0.4982090000000  0.5155190000000 1.0
C      1  0.5616510000000  0.4810930000000  0.5193450000000 1.0
C      1  0.4817720000000  0.5108130000000  0.4570610000000 1.0
C      1  0.4177550000000  0.4751790000000  0.4075400000000 1.0
C      1  0.4541280000000  0.4481520000000  0.4723650000000 1.0
C      1  0.5512940000000  0.5781380000000  0.4650610000000 1.0
C      1  0.4557860000000  0.4059810000000  0.5124440000000 1.0
C      1  0.5034780000000  0.4401270000000  0.5143460000000 1.0
C      1  0.4276090000000  0.4572890000000  0.5945400000000 1.0
C      1  0.4760630000000  0.5060240000000  0.5695240000000 1.0
C      1  0.5048640000000  0.4387890000000  0.4070140000000 1.0
C      1  0.4958210000000  0.4604950000000  0.4488770000000 1.0
C      1  0.4293260000000  0.5534580000000  0.5810420000000 1.0
C      1  0.5398670000000  0.5259710000000  0.5115930000000 1.0
C      1  0.5238610000000  0.5372560000000  0.4534570000000 1.0
C      1  0.4895640000000  0.5030130000000  0.5091170000000 1.0
C      1  0.4557080000000  0.5365870000000  0.5115020000000 1.0
C      1  0.4780250000000  0.5970290000000  0.5045710000000 1.0
C      1  0.5699950000000  0.5095520000000  0.5596660000000 1.0
C      1  0.5081990000000  0.5348850000000  0.5482480000000 1.0
C      1  0.5760160000000  0.4503150000000  0.6330610000000 1.0
C      1  0.3888900000000  0.4816940000000  0.4459640000000 1.0
C      1  0.5566740000000  0.4400160000000  0.5404680000000 1.0
C      1  0.5245560000000  0.5940730000000  0.5566510000000 1.0
C      1  0.5484000000000  0.5218170000000  0.5768990000000 1.0
C      1  0.3853270000000  0.4612280000000  0.4635630000000 1.0
C      1  0.5247610000000  0.4898170000000  0.6311610000000 1.0
C      1  0.4072970000000  0.4927490000000  0.4271990000000 1.0
C      1  0.5765570000000  0.4079820000000  0.5059310000000 1.0
C      1  0.4844290000000  0.5328700000000  0.5057780000000 1.0
C      1  0.4296480000000  0.4487710000000  0.4591230000000 1.0
C      1  0.5710320000000  0.4831240000000  0.5481400000000 1.0
C      1  0.5017550000000  0.5165920000000  0.5682130000000 1.0
C      1  0.4926590000000  0.5157810000000  0.4015070000000 1.0
C      1  0.4097350000000  0.5129930000000  0.5487590000000 1.0
C      1  0.4750610000000  0.5675560000000  0.4212560000000 1.0
C      1  0.5496240000000  0.6017060000000  0.5458550000000 1.0
C      1  0.5444650000000  0.4937440000000  0.4281580000000 1.0
C      1  0.4808180000000  0.5969860000000  0.4577690000000 1.0
C      1  0.4559990000000  0.4426020000000  0.3916970000000 1.0
C      1  0.5021820000000  0.4129500000000  0.5229570000000 1.0
C      1  0.4598140000000  0.5108910000000  0.5481580000000 1.0
C      1  0.5540270000000  0.5378040000000  0.4910090000000 1.0
C      1  0.5716160000000  0.5841730000000  0.5427960000000 1.0
C      1  0.4686230000000  0.4010050000000  0.4864850000000 1.0
C      1  0.4434660000000  0.5735700000000  0.4817580000000 1.0
C      1  0.5464940000000  0.4135560000000  0.4344960000000 1.0
C      1  0.5312310000000  0.4508600000000  0.4063610000000 1.0
C      1  0.5120050000000  0.3850380000000  0.4634040000000 1.0
C      1  0.4519910000000  0.5362210000000  0.5397240000000 1.0
C      1  0.4959030000000  0.4382890000000  0.4337970000000 1.0
C      1  0.5257700000000  0.5632320000000  0.4030160000000 1.0
C      1  0.4561320000000  0.5496210000000  0.4326710000000 1.0
C      1  0.5228890000000  0.5082110000000  0.5854690000000 1.0
C      1  0.5523210000000  0.5617480000000  0.4072640000000 1.0
C      1  0.5848370000000  0.5391890000000  0.4918120000000 1.0
C      1  0.5471660000000  0.5522240000000  0.5753170000000 1.0
C      1  0.4598980000000  0.4879080000000  0.3875710000000 1.0
C      1  0.4144480000000  0.5601970000000  0.5228040000000 1.0
C      1  0.4405160000000  0.4526760000000  0.5181380000000 1.0
C      1  0.4572500000000  0.5913370000000  0.5246330000000 1.0
C      1  0.5009280000000  0.6097840000000  0.5155740000000 1.0
C      1  0.4746670000000  0.5934830000000  0.4320270000000 1.0
C      1  0.5303420000000  0.4800510000000  0.4068400000000 1.0
C      1  0.5006700000000  0.6026400000000  0.5435890000000 1.0
C      1  0.4502630000000  0.5540410000000  0.5625280000000 1.0
C      1  0.5815700000000  0.4773320000000  0.4957980000000 1.0
C      1  0.4562000000000  0.4633810000000  0.4967010000000 1.0
C      1  0.5706860000000  0.5644880000000  0.5634480000000 1.0
C      1  0.5354200000000  0.5189580000000  0.4360800000000 1.0
C      1  0.4633450000000  0.5128880000000  0.4015020000000 1.0
C      1  0.4968910000000  0.5351260000000  0.4606720000000 1.0
C      1  0.4596070000000  0.5062320000000  0.4748210000000 1.0
C      1  0.5250380000000  0.5418430000000  0.5289450000000 1.0
C      1  0.4960320000000  0.5660230000000  0.5828800000000 1.0
C      1  0.4891220000000  0.5512960000000  0.4831430000000 1.0
C      1  0.5402110000000  0.5525410000000  0.4705170000000 1.0
C      1  0.5717910000000  0.4571350000000  0.5596020000000 1.0
C      1  0.4456950000000  0.5266080000000  0.4190600000000 1.0
C      1  0.4936280000000  0.4869490000000  0.4487830000000 1.0
C      1  0.4845940000000  0.4482530000000  0.5990460000000 1.0
C      1  0.5800900000000  0.5776490000000  0.4658420000000 1.0
C      1  0.5952640000000  0.5281380000000  0.5173890000000 1.0
C      1  0.5451050000000  0.4517810000000  0.4869730000000 1.0
C      1  0.5730630000000  0.4557580000000  0.4300180000000 1.0
C      1  0.4865330000000  0.4380110000000  0.5724460000000 1.0
C      1  0.4991250000000  0.5623170000000  0.4069620000000 1.0
C      1  0.5076510000000  0.4921100000000  0.3938130000000 1.0
C      1  0.4063600000000  0.5367140000000  0.5350020000000 1.0
C      1  0.4196520000000  0.5184580000000  0.4303510000000 1.0
C      1  0.5109250000000  0.4878420000000  0.5206730000000 1.0
C      1  0.5872280000000  0.5053660000000  0.4502880000000 1.0
C      1  0.4406790000000  0.4672960000000  0.3938230000000 1.0
C      1  0.5994400000000  0.4548840000000  0.4997200000000 1.0
C      1  0.4720810000000  0.5712970000000  0.5679210000000 1.0
C      1  0.5753400000000  0.5582190000000  0.4208880000000 1.0
C      1  0.4327040000000  0.4250640000000  0.5123040000000 1.0
C      1  0.4756120000000  0.4076990000000  0.5338850000000 1.0
C      1  0.5884230000000  0.5248320000000  0.5434260000000 1.0
C      1  0.5084500000000  0.4502380000000  0.5590940000000 1.0
C      1  0.5233090000000  0.5707940000000  0.5748900000000 1.0
C      1  0.4293330000000  0.4311900000000  0.5882320000000 1.0
C      1  0.4050920000000  0.4429150000000  0.4721980000000 1.0
C      1  0.4363970000000  0.5495630000000  0.4648320000000 1.0
C      1  0.4865120000000  0.4754090000000  0.3824530000000 1.0
C      1  0.4444880000000  0.5280470000000  0.4851960000000 1.0
C      1  0.5890510000000  0.5702930000000  0.4927840000000 1.0
C      1  0.5321890000000  0.4442130000000  0.5716830000000 1.0
C      1  0.5491340000000  0.4519920000000  0.5163790000000 1.0
C      1  0.4736930000000  0.5923640000000  0.5492540000000 1.0
C      1  0.5182320000000  0.6261970000000  0.5027380000000 1.0
C      1  0.4894200000000  0.3836110000000  0.4782250000000 1.0
C      1  0.4860230000000  0.4763850000000  0.6034960000000 1.0
C      1  0.4369390000000  0.4816580000000  0.5832320000000 1.0
C      1  0.4345040000000  0.5776710000000  0.5107680000000 1.0
C      1  0.4121520000000  0.5539240000000  0.6006430000000 1.0
C      1  0.4125310000000  0.5367280000000  0.4519340000000 1.0
C      1  0.4647050000000  0.4898930000000  0.5893690000000 1.0
C      1  0.5523430000000  0.4379850000000  0.4212560000000 1.0
C      1  0.5623640000000  0.4712260000000  0.4734490000000 1.0
C      1  0.5316410000000  0.3963010000000  0.4488520000000 1.0
C      1  0.5558780000000  0.4522700000000  0.5835800000000 1.0
C      1  0.5880220000000  0.5566660000000  0.4462630000000 1.0
C      1  0.5121090000000  0.4907900000000  0.6067360000000 1.0
C      1  0.4695680000000  0.4183190000000  0.5601270000000 1.0
C      1  0.5262840000000  0.3982240000000  0.5198750000000 1.0
C      1  0.5649150000000  0.4523300000000  0.6095650000000 1.0
C      1  0.5523560000000  0.3975730000000  0.5124060000000 1.0
C      1  0.5064150000000  0.4617690000000  0.5325760000000 1.0
C      1  0.4671550000000  0.4237710000000  0.4701410000000 1.0
C      1  0.4446840000000  0.4150770000000  0.5730950000000 1.0
C      1  0.4682310000000  0.4883130000000  0.4957570000000 1.0
C      1  0.5856130000000  0.5822700000000  0.5182330000000 1.0
END
