TITL C-599894-471-265 0.000154375605037294 125000 -681.795433607638 0 0 109 (C1) n - 1
REM
REM in /home/nfs/bkarasulu/CARBON/AIRSS/Generating-Clusters/TERSOFF/Only-C1/FIRE-HFTN
REM
REM
REM
REM
REM
REM ./C.cell (11c1c37f851c82e70ff6c80c92926a4b)
REM AIRSS Version 0.9.1 bugfix July 2018 build 013d7b7c2542+ Fri, 06 Jul 2018 19:26:36 +0100
REM compiler GCC version 9.2.1 20190827 (Red Hat 9.2.1-1)
REM options -cpp -mtune=generic -march=x86-64 -g -O0 -fpre-include=/usr/include/finclude/math-vector-fortran.h
REM seed -1999642801 -988494094 1142174870 1389215014 2132325225 1532201466 -1387625988 -1561946012 -1968281508 1967987260 1110717385 223546942 -1261144576 803907105 1643356165 2119331972 1550829723 873350971 1948544387 -684870331 1978479041 148881046 -390191417 1642345330 80915490 105944559 -481067114 -40827732 -236308955 485447643 2018700851 -1214664093 906582314
REM
CELL 1.54180   50.00000   50.00000   50.00000   90.00000   90.00000   90.00000
LATT -1
SFAC C  
C      1  0.4282410000000  0.5471480000000  0.5516330000000 1.0
C      1  0.4290660000000  0.5466620000000  0.5216140000000 1.0
C      1  0.5554100000000  0.6063190000000  0.4649520000000 1.0
C      1  0.5047290000000  0.5116910000000  0.4950660000000 1.0
C      1  0.4839270000000  0.5141240000000  0.5824270000000 1.0
C      1  0.5473370000000  0.4728270000000  0.4954650000000 1.0
C      1  0.5226910000000  0.4628690000000  0.4512710000000 1.0
C      1  0.4706770000000  0.4588690000000  0.5713460000000 1.0
C      1  0.4665970000000  0.5659350000000  0.4519890000000 1.0
C      1  0.4498920000000  0.5465170000000  0.4391630000000 1.0
C      1  0.5112880000000  0.5140430000000  0.5226760000000 1.0
C      1  0.4943900000000  0.5341050000000  0.4824410000000 1.0
C      1  0.5716080000000  0.5659470000000  0.4925580000000 1.0
C      1  0.5299810000000  0.6058050000000  0.4566900000000 1.0
C      1  0.4308670000000  0.5841020000000  0.5826820000000 1.0
C      1  0.5584350000000  0.4356320000000  0.4341770000000 1.0
C      1  0.4120940000000  0.5313170000000  0.5033590000000 1.0
C      1  0.5577850000000  0.4338180000000  0.5228100000000 1.0
C      1  0.4990380000000  0.4870720000000  0.4832150000000 1.0
C      1  0.4633190000000  0.4496170000000  0.4600210000000 1.0
C      1  0.5086960000000  0.5443310000000  0.4593900000000 1.0
C      1  0.4964790000000  0.4961240000000  0.5384920000000 1.0
C      1  0.4712080000000  0.4760190000000  0.4498030000000 1.0
C      1  0.5127040000000  0.4293710000000  0.4168080000000 1.0
C      1  0.4987960000000  0.4921770000000  0.5921400000000 1.0
C      1  0.5815860000000  0.5044940000000  0.5339430000000 1.0
C      1  0.4514800000000  0.4888900000000  0.5251400000000 1.0
C      1  0.4961420000000  0.5687840000000  0.4507440000000 1.0
C      1  0.5485250000000  0.5243860000000  0.5022150000000 1.0
C      1  0.4406060000000  0.5235290000000  0.4546740000000 1.0
C      1  0.4909450000000  0.4423010000000  0.4033190000000 1.0
C      1  0.6243640000000  0.4938170000000  0.5137530000000 1.0
C      1  0.4531620000000  0.4981910000000  0.4494360000000 1.0
C      1  0.4609610000000  0.4294540000000  0.4401840000000 1.0
C      1  0.5265640000000  0.4287240000000  0.4845970000000 1.0
C      1  0.5340750000000  0.4550130000000  0.4768880000000 1.0
C      1  0.4729610000000  0.5724660000000  0.5611700000000 1.0
C      1  0.5061020000000  0.5825290000000  0.5179840000000 1.0
C      1  0.4897970000000  0.3900220000000  0.4371530000000 1.0
C      1  0.4622230000000  0.5977670000000  0.5207800000000 1.0
C      1  0.5097870000000  0.4019910000000  0.4234440000000 1.0
C      1  0.4852230000000  0.4680590000000  0.4989380000000 1.0
C      1  0.4977410000000  0.5943770000000  0.4916260000000 1.0
C      1  0.4707560000000  0.4458020000000  0.4878040000000 1.0
C      1  0.4679190000000  0.5937340000000  0.4931960000000 1.0
C      1  0.4685610000000  0.4242860000000  0.5070340000000 1.0
C      1  0.4479590000000  0.4767750000000  0.5765330000000 1.0
C      1  0.5318570000000  0.4451770000000  0.4306780000000 1.0
C      1  0.5589050000000  0.4989950000000  0.5514230000000 1.0
C      1  0.4424990000000  0.4406200000000  0.3962500000000 1.0
C      1  0.4998390000000  0.4797350000000  0.4553850000000 1.0
C      1  0.4047420000000  0.4833200000000  0.5091630000000 1.0
C      1  0.4906730000000  0.4066250000000  0.5076140000000 1.0
C      1  0.5375190000000  0.4939740000000  0.3805250000000 1.0
C      1  0.4576400000000  0.5155130000000  0.5350610000000 1.0
C      1  0.5155590000000  0.4795880000000  0.3761750000000 1.0
C      1  0.5189600000000  0.5596010000000  0.5770570000000 1.0
C      1  0.4908470000000  0.5616070000000  0.5808800000000 1.0
C      1  0.4671960000000  0.4023730000000  0.4454860000000 1.0
C      1  0.5538710000000  0.4995630000000  0.4891340000000 1.0
C      1  0.5312590000000  0.5392980000000  0.5614360000000 1.0
C      1  0.5999060000000  0.5062410000000  0.5115660000000 1.0
C      1  0.4976230000000  0.4616000000000  0.3841760000000 1.0
C      1  0.5485260000000  0.5532300000000  0.5035420000000 1.0
C      1  0.4939870000000  0.4192960000000  0.5590730000000 1.0
C      1  0.5677500000000  0.5189850000000  0.6206070000000 1.0
C      1  0.4782370000000  0.5122580000000  0.5547060000000 1.0
C      1  0.4175110000000  0.5213890000000  0.5621650000000 1.0
C      1  0.4987730000000  0.4680480000000  0.5771260000000 1.0
C      1  0.5598220000000  0.5193820000000  0.5957870000000 1.0
C      1  0.5766390000000  0.4233460000000  0.5045690000000 1.0
C      1  0.5178950000000  0.4138530000000  0.5069980000000 1.0
C      1  0.4310100000000  0.4458670000000  0.5284540000000 1.0
C      1  0.5705560000000  0.5912950000000  0.4809920000000 1.0
C      1  0.3953620000000  0.5133940000000  0.5454910000000 1.0
C      1  0.5823870000000  0.4219900000000  0.4783070000000 1.0
C      1  0.5072490000000  0.5917870000000  0.4646900000000 1.0
C      1  0.4425200000000  0.5493990000000  0.4129490000000 1.0
C      1  0.5524210000000  0.4619600000000  0.5217240000000 1.0
C      1  0.4704450000000  0.5457200000000  0.4941580000000 1.0
C      1  0.5938210000000  0.5202970000000  0.4864820000000 1.0
C      1  0.5441310000000  0.4742220000000  0.5468080000000 1.0
C      1  0.3893480000000  0.4692980000000  0.4915710000000 1.0
C      1  0.5194950000000  0.4304360000000  0.5530380000000 1.0
C      1  0.4808350000000  0.5390110000000  0.5947480000000 1.0
C      1  0.5587250000000  0.5199870000000  0.4464340000000 1.0
C      1  0.4440680000000  0.5675340000000  0.5649740000000 1.0
C      1  0.4546940000000  0.4308340000000  0.5317350000000 1.0
C      1  0.4561360000000  0.5372080000000  0.5167750000000 1.0
C      1  0.5560660000000  0.5046490000000  0.3963340000000 1.0
C      1  0.4785020000000  0.4779290000000  0.5239370000000 1.0
C      1  0.5207150000000  0.5381510000000  0.5351360000000 1.0
C      1  0.5727390000000  0.5087160000000  0.4690770000000 1.0
C      1  0.4608450000000  0.5693390000000  0.4801650000000 1.0
C      1  0.4215710000000  0.5275840000000  0.4761550000000 1.0
C      1  0.5224530000000  0.4586870000000  0.5613510000000 1.0
C      1  0.4698100000000  0.4340860000000  0.5561920000000 1.0
C      1  0.5258390000000  0.5618750000000  0.5189510000000 1.0
C      1  0.5335710000000  0.4201270000000  0.5302950000000 1.0
C      1  0.5499770000000  0.5193360000000  0.5696400000000 1.0
C      1  0.4318920000000  0.4992530000000  0.5749820000000 1.0
C      1  0.4285290000000  0.4728940000000  0.5207000000000 1.0
C      1  0.5936520000000  0.5487020000000  0.4876880000000 1.0
C      1  0.5338440000000  0.5342350000000  0.4506240000000 1.0
C      1  0.5758750000000  0.4268560000000  0.4526990000000 1.0
C      1  0.4827130000000  0.5853230000000  0.5375040000000 1.0
C      1  0.5648350000000  0.5130020000000  0.4200370000000 1.0
C      1  0.3984460000000  0.5098710000000  0.5172310000000 1.0
C      1  0.4641930000000  0.4376990000000  0.4126450000000 1.0
END
