TITL C-599897-7526-1497 5.50600060302765 125000 -267.772539942631 0 0 46 (C1) n - 1
REM
REM in /home/nfs/bkarasulu/CARBON/AIRSS/Generating-Clusters/TERSOFF/Only-C1/FIRE-HFTN
REM
REM
REM
REM
REM
REM ./C.cell (11c1c37f851c82e70ff6c80c92926a4b)
REM AIRSS Version 0.9.1 bugfix July 2018 build 013d7b7c2542+ Fri, 06 Jul 2018 19:26:36 +0100
REM compiler GCC version 9.2.1 20190827 (Red Hat 9.2.1-1)
REM options -cpp -mtune=generic -march=x86-64 -g -O0 -fpre-include=/usr/include/finclude/math-vector-fortran.h
REM seed 1694617159 1086285220 15285781 -1855519283 1388179569 1455929371 560550732 416670128 -2138082367 -50959238 -474796946 -395419227 1029712567 -1278505775 1388559383 1147573969 -1288847404 1543403330 1784791638 1201250632 -880215373 -2127307091 -1482916893 696616419 371653877 -962305748 -903605323 -802047337 1134011046 530329129 747950050 1621708658 -406247882
REM
CELL 1.54180   50.00000   50.00000   50.00000   90.00000   90.00000   90.00000
LATT -1
SFAC C  
C      1  0.5174680000000  0.5017960000000  0.5264820000000 1.0
C      1  0.5052910000000  0.5252300000000  0.4442330000000 1.0
C      1  0.4943090000000  0.5784050000000  0.4809130000000 1.0
C      1  0.5011510000000  0.4812110000000  0.4589090000000 1.0
C      1  0.4888980000000  0.4416840000000  0.5125680000000 1.0
C      1  0.4768770000000  0.5481620000000  0.5159900000000 1.0
C      1  0.5593040000000  0.5042270000000  0.4342310000000 1.0
C      1  0.4598890000000  0.4864560000000  0.4822030000000 1.0
C      1  0.5353490000000  0.5809670000000  0.5047870000000 1.0
C      1  0.4468470000000  0.5745330000000  0.4884440000000 1.0
C      1  0.4604140000000  0.4773600000000  0.5351060000000 1.0
C      1  0.4914730000000  0.5011980000000  0.4406990000000 1.0
C      1  0.4723880000000  0.5671140000000  0.4949840000000 1.0
C      1  0.5304530000000  0.4479220000000  0.4780780000000 1.0
C      1  0.5024860000000  0.5472220000000  0.5300760000000 1.0
C      1  0.5562480000000  0.5558250000000  0.4421280000000 1.0
C      1  0.4523990000000  0.4302610000000  0.5420510000000 1.0
C      1  0.5227840000000  0.5782680000000  0.4791300000000 1.0
C      1  0.4379970000000  0.4114080000000  0.5538040000000 1.0
C      1  0.4676180000000  0.4502670000000  0.5296070000000 1.0
C      1  0.5752680000000  0.4887890000000  0.5004240000000 1.0
C      1  0.4631920000000  0.5008880000000  0.4374230000000 1.0
C      1  0.5639120000000  0.5310030000000  0.4332220000000 1.0
C      1  0.5467980000000  0.4817070000000  0.4427890000000 1.0
C      1  0.4478160000000  0.4941800000000  0.4589880000000 1.0
C      1  0.5342910000000  0.5606370000000  0.4599860000000 1.0
C      1  0.4226650000000  0.3916550000000  0.5663170000000 1.0
C      1  0.4881560000000  0.4837410000000  0.4845550000000 1.0
C      1  0.4629810000000  0.5049540000000  0.5411360000000 1.0
C      1  0.4018780000000  0.3992690000000  0.5834050000000 1.0
C      1  0.5792510000000  0.6111830000000  0.5122340000000 1.0
C      1  0.5578410000000  0.5966960000000  0.5089420000000 1.0
C      1  0.5379460000000  0.5195560000000  0.4826980000000 1.0
C      1  0.5087980000000  0.4388950000000  0.4944860000000 1.0
C      1  0.5263400000000  0.4681870000000  0.4576410000000 1.0
C      1  0.5597560000000  0.5097070000000  0.4945050000000 1.0
C      1  0.4279400000000  0.3651830000000  0.5618910000000 1.0
C      1  0.5047990000000  0.4890530000000  0.5065180000000 1.0
C      1  0.5227270000000  0.5661270000000  0.5253300000000 1.0
C      1  0.5233820000000  0.5341900000000  0.4637110000000 1.0
C      1  0.5072410000000  0.5220460000000  0.5433600000000 1.0
C      1  0.4848980000000  0.5122470000000  0.5583110000000 1.0
C      1  0.3825430000000  0.4065270000000  0.5993020000000 1.0
C      1  0.5567650000000  0.4448950000000  0.4877470000000 1.0
C      1  0.4583460000000  0.5270250000000  0.5230530000000 1.0
C      1  0.5748230000000  0.4621420000000  0.4976030000000 1.0
END
