TITL C-599893-4344-228 0.165794804245548 125000 -957.800031728122 0 0 156 (C1) n - 1
REM
REM in /home/nfs/bkarasulu/CARBON/AIRSS/Generating-Clusters/TERSOFF/Only-C1/FIRE-HFTN
REM
REM
REM
REM
REM
REM ./C.cell (11c1c37f851c82e70ff6c80c92926a4b)
REM AIRSS Version 0.9.1 bugfix July 2018 build 013d7b7c2542+ Fri, 06 Jul 2018 19:26:36 +0100
REM compiler GCC version 9.2.1 20190827 (Red Hat 9.2.1-1)
REM options -cpp -mtune=generic -march=x86-64 -g -O0 -fpre-include=/usr/include/finclude/math-vector-fortran.h
REM seed -812476790 97966032 -1000225104 956550634 869461067 -483074349 -419530039 -663551621 -375405345 -1811582986 1102478731 3584163 -958046437 -136954251 -1981766554 395188166 -1422741348 2066625951 1392984343 724389118 -1533371432 671985003 -1745942085 289881418 -1682994908 406614179 836347426 2003162752 -1724040689 -659230230 860070938 -1305983577 -1710690076
REM
CELL 1.54180   50.00000   50.00000   50.00000   90.00000   90.00000   90.00000
LATT -1
SFAC C  
C      1  0.5920660000000  0.4784010000000  0.5680410000000 1.0
C      1  0.5419020000000  0.5834370000000  0.5305120000000 1.0
C      1  0.4698830000000  0.4729030000000  0.5686750000000 1.0
C      1  0.4490380000000  0.5609210000000  0.5173680000000 1.0
C      1  0.4638130000000  0.5064940000000  0.3930620000000 1.0
C      1  0.5117720000000  0.4950080000000  0.5329550000000 1.0
C      1  0.5047620000000  0.3984500000000  0.4417900000000 1.0
C      1  0.4642480000000  0.5463770000000  0.4198100000000 1.0
C      1  0.4140240000000  0.4897740000000  0.5560190000000 1.0
C      1  0.5824450000000  0.4872370000000  0.4366810000000 1.0
C      1  0.4901780000000  0.5504630000000  0.4945930000000 1.0
C      1  0.5402840000000  0.4128350000000  0.5499370000000 1.0
C      1  0.4922680000000  0.4986940000000  0.5086480000000 1.0
C      1  0.5577010000000  0.4332850000000  0.5413210000000 1.0
C      1  0.5223010000000  0.6046850000000  0.5320860000000 1.0
C      1  0.4924290000000  0.4820810000000  0.4389370000000 1.0
C      1  0.4901910000000  0.5012320000000  0.6236260000000 1.0
C      1  0.4595040000000  0.4170270000000  0.5058540000000 1.0
C      1  0.5245890000000  0.4595840000000  0.4645630000000 1.0
C      1  0.4972480000000  0.5498800000000  0.5440230000000 1.0
C      1  0.5797490000000  0.5556310000000  0.4779090000000 1.0
C      1  0.5102080000000  0.5541210000000  0.5164080000000 1.0
C      1  0.5471870000000  0.4592530000000  0.5440800000000 1.0
C      1  0.5640550000000  0.4656720000000  0.4934010000000 1.0
C      1  0.4310130000000  0.6016780000000  0.4917310000000 1.0
C      1  0.4762100000000  0.5244230000000  0.5055310000000 1.0
C      1  0.4568310000000  0.5717070000000  0.5673910000000 1.0
C      1  0.5708530000000  0.4963940000000  0.5706890000000 1.0
C      1  0.5375740000000  0.5673040000000  0.4550420000000 1.0
C      1  0.6079340000000  0.4709900000000  0.5479150000000 1.0
C      1  0.4293670000000  0.5137530000000  0.5615250000000 1.0
C      1  0.5047700000000  0.4258940000000  0.4936540000000 1.0
C      1  0.4146600000000  0.5781000000000  0.4863080000000 1.0
C      1  0.5303260000000  0.5364230000000  0.4079720000000 1.0
C      1  0.5385280000000  0.5667650000000  0.5780980000000 1.0
C      1  0.4895570000000  0.5293150000000  0.6184670000000 1.0
C      1  0.5745340000000  0.5219080000000  0.5576170000000 1.0
C      1  0.5057540000000  0.4818920000000  0.6095370000000 1.0
C      1  0.4412770000000  0.4898990000000  0.4844940000000 1.0
C      1  0.4251380000000  0.5704570000000  0.5304810000000 1.0
C      1  0.4922200000000  0.5531410000000  0.4651150000000 1.0
C      1  0.4272890000000  0.4610810000000  0.5222590000000 1.0
C      1  0.4929410000000  0.4750500000000  0.3695990000000 1.0
C      1  0.4887350000000  0.6450440000000  0.4986590000000 1.0
C      1  0.5301950000000  0.5394470000000  0.5809370000000 1.0
C      1  0.4841910000000  0.4299870000000  0.5108240000000 1.0
C      1  0.4387580000000  0.4364820000000  0.4598950000000 1.0
C      1  0.4200440000000  0.5611200000000  0.4640050000000 1.0
C      1  0.6070290000000  0.4363490000000  0.3891960000000 1.0
C      1  0.4138650000000  0.4208210000000  0.5005910000000 1.0
C      1  0.4217570000000  0.5212300000000  0.4175510000000 1.0
C      1  0.5516970000000  0.5177900000000  0.4714070000000 1.0
C      1  0.5790530000000  0.4305610000000  0.5226670000000 1.0
C      1  0.5983810000000  0.4985400000000  0.4591060000000 1.0
C      1  0.4503880000000  0.5321970000000  0.5157020000000 1.0
C      1  0.5385560000000  0.5463490000000  0.4350130000000 1.0
C      1  0.4234650000000  0.5672070000000  0.4367080000000 1.0
C      1  0.4435340000000  0.5136310000000  0.4702710000000 1.0
C      1  0.5101920000000  0.4985440000000  0.4844930000000 1.0
C      1  0.4308810000000  0.5775450000000  0.5570620000000 1.0
C      1  0.5538270000000  0.5701310000000  0.5537390000000 1.0
C      1  0.4521970000000  0.6143820000000  0.5036260000000 1.0
C      1  0.4350360000000  0.5471930000000  0.4202030000000 1.0
C      1  0.4756600000000  0.5004180000000  0.5662260000000 1.0
C      1  0.4476870000000  0.4571130000000  0.5774590000000 1.0
C      1  0.6140730000000  0.4794280000000  0.4742230000000 1.0
C      1  0.4464260000000  0.4162040000000  0.5322620000000 1.0
C      1  0.5537660000000  0.5240160000000  0.4449880000000 1.0
C      1  0.4764470000000  0.5411210000000  0.4452850000000 1.0
C      1  0.4000070000000  0.5339090000000  0.5090830000000 1.0
C      1  0.5803940000000  0.4579980000000  0.4314560000000 1.0
C      1  0.4897180000000  0.4572530000000  0.5552750000000 1.0
C      1  0.4693510000000  0.5479950000000  0.5568040000000 1.0
C      1  0.5521220000000  0.4570960000000  0.4689710000000 1.0
C      1  0.5523080000000  0.4137510000000  0.4494000000000 1.0
C      1  0.4755670000000  0.5900490000000  0.5782990000000 1.0
C      1  0.6083170000000  0.6020950000000  0.4763380000000 1.0
C      1  0.5122140000000  0.4490740000000  0.5718830000000 1.0
C      1  0.4226760000000  0.4328670000000  0.5259830000000 1.0
C      1  0.5023010000000  0.5062020000000  0.5569430000000 1.0
C      1  0.4659980000000  0.5170740000000  0.4549650000000 1.0
C      1  0.4744900000000  0.4751750000000  0.5135140000000 1.0
C      1  0.4947450000000  0.6132980000000  0.5343840000000 1.0
C      1  0.5157940000000  0.4207230000000  0.5642700000000 1.0
C      1  0.5218260000000  0.5844670000000  0.5922640000000 1.0
C      1  0.4617100000000  0.4293920000000  0.4428650000000 1.0
C      1  0.4060170000000  0.4801540000000  0.5287520000000 1.0
C      1  0.5464560000000  0.3867340000000  0.5059630000000 1.0
C      1  0.4883420000000  0.5556670000000  0.6126420000000 1.0
C      1  0.3890470000000  0.5127100000000  0.4911730000000 1.0
C      1  0.5891450000000  0.4517500000000  0.5043030000000 1.0
C      1  0.4769570000000  0.5317070000000  0.3987500000000 1.0
C      1  0.4134720000000  0.4760120000000  0.4350670000000 1.0
C      1  0.5347180000000  0.3915190000000  0.5319100000000 1.0
C      1  0.5492350000000  0.5144350000000  0.4019540000000 1.0
C      1  0.5502900000000  0.4865080000000  0.5066910000000 1.0
C      1  0.4737300000000  0.4415580000000  0.4192120000000 1.0
C      1  0.4219040000000  0.4685270000000  0.5740050000000 1.0
C      1  0.4699450000000  0.5716080000000  0.5023190000000 1.0
C      1  0.4576120000000  0.4823440000000  0.6624710000000 1.0
C      1  0.4782500000000  0.6235290000000  0.5125040000000 1.0
C      1  0.3995660000000  0.4654420000000  0.4804240000000 1.0
C      1  0.4248090000000  0.5217570000000  0.5184430000000 1.0
C      1  0.3930750000000  0.4853570000000  0.5015830000000 1.0
C      1  0.5082180000000  0.4821420000000  0.4617300000000 1.0
C      1  0.4273170000000  0.4756860000000  0.4096880000000 1.0
C      1  0.5940170000000  0.4469570000000  0.4096880000000 1.0
C      1  0.4893930000000  0.4231940000000  0.4035610000000 1.0
C      1  0.5155440000000  0.6149650000000  0.4412470000000 1.0
C      1  0.6057170000000  0.4512570000000  0.4779950000000 1.0
C      1  0.6224700000000  0.4868080000000  0.5014980000000 1.0
C      1  0.5109170000000  0.4368050000000  0.4707210000000 1.0
C      1  0.5274770000000  0.5926670000000  0.4491280000000 1.0
C      1  0.5048320000000  0.3873560000000  0.5305130000000 1.0
C      1  0.4736650000000  0.4916870000000  0.6441900000000 1.0
C      1  0.6081050000000  0.4703500000000  0.5201860000000 1.0
C      1  0.4784930000000  0.4066210000000  0.4516040000000 1.0
C      1  0.4941740000000  0.5793580000000  0.5976110000000 1.0
C      1  0.6315530000000  0.5129880000000  0.5045790000000 1.0
C      1  0.5291610000000  0.3963910000000  0.4579950000000 1.0
C      1  0.4048790000000  0.5048660000000  0.4378100000000 1.0
C      1  0.4834110000000  0.6103930000000  0.5602560000000 1.0
C      1  0.5060180000000  0.4041550000000  0.4138370000000 1.0
C      1  0.4850650000000  0.4529260000000  0.5273600000000 1.0
C      1  0.6198520000000  0.4259060000000  0.3690430000000 1.0
C      1  0.5398520000000  0.5181220000000  0.5965240000000 1.0
C      1  0.5965270000000  0.5310120000000  0.4742610000000 1.0
C      1  0.5465080000000  0.4916980000000  0.5860220000000 1.0
C      1  0.4813000000000  0.4688440000000  0.4168950000000 1.0
C      1  0.5119210000000  0.5319810000000  0.5611670000000 1.0
C      1  0.5716970000000  0.5478280000000  0.5502130000000 1.0
C      1  0.4225710000000  0.5329510000000  0.4683070000000 1.0
C      1  0.5047590000000  0.5366850000000  0.3961270000000 1.0
C      1  0.5372440000000  0.5050360000000  0.4904000000000 1.0
C      1  0.5366240000000  0.4810810000000  0.5304580000000 1.0
C      1  0.6201830000000  0.5326210000000  0.4901370000000 1.0
C      1  0.5639400000000  0.5057690000000  0.4252870000000 1.0
C      1  0.4045550000000  0.5634290000000  0.5103650000000 1.0
C      1  0.4798500000000  0.4829800000000  0.3921610000000 1.0
C      1  0.5954330000000  0.5794550000000  0.4770360000000 1.0
C      1  0.5642000000000  0.4409310000000  0.4488960000000 1.0
C      1  0.5030930000000  0.6359970000000  0.4321810000000 1.0
C      1  0.3982200000000  0.5169860000000  0.4634920000000 1.0
C      1  0.4632820000000  0.4129710000000  0.5554620000000 1.0
C      1  0.5506400000000  0.5620180000000  0.4814950000000 1.0
C      1  0.4919290000000  0.4044890000000  0.5524580000000 1.0
C      1  0.4385400000000  0.4209140000000  0.4845900000000 1.0
C      1  0.4476510000000  0.4736860000000  0.5062060000000 1.0
C      1  0.4366550000000  0.5017440000000  0.4011050000000 1.0
C      1  0.5265210000000  0.3843500000000  0.4847300000000 1.0
C      1  0.4167040000000  0.4577780000000  0.4574340000000 1.0
C      1  0.4569690000000  0.5218250000000  0.5631530000000 1.0
C      1  0.5018650000000  0.3794630000000  0.5017700000000 1.0
C      1  0.5362570000000  0.5652150000000  0.5080530000000 1.0
C      1  0.5241200000000  0.4714890000000  0.5893120000000 1.0
C      1  0.4535480000000  0.4289660000000  0.5773790000000 1.0
END
