TITL C-599891-72-1337 -22.0546798707611 125000 -690.14688959489 0 0 113 (C1) n - 1
REM
REM in /home/nfs/bkarasulu/CARBON/AIRSS/Generating-Clusters/TERSOFF/Only-C1/FIRE-HFTN
REM
REM
REM
REM
REM
REM ./C.cell (11c1c37f851c82e70ff6c80c92926a4b)
REM AIRSS Version 0.9.1 bugfix July 2018 build 013d7b7c2542+ Fri, 06 Jul 2018 19:26:36 +0100
REM compiler GCC version 9.2.1 20190827 (Red Hat 9.2.1-1)
REM options -cpp -mtune=generic -march=x86-64 -g -O0 -fpre-include=/usr/include/finclude/math-vector-fortran.h
REM seed -282030464 -1169658160 -374002034 -812901053 -2051466941 -813090312 2123867672 -114217571 -1761032066 -2035726814 542420948 1162618942 -358368497 797428973 -1238897061 930495745 -831622460 -2018070504 508078893 230839686 -1371825976 207504376 764890512 -1391295766 268548666 -2107963985 1703739018 -951618644 -344233304 -2124084886 -2106335755 911319100 -1939170090
REM
CELL 1.54180   50.00000   50.00000   50.00000   90.00000   90.00000   90.00000
LATT -1
SFAC C  
C      1  0.4213010000000  0.4401140000000  0.5094120000000 1.0
C      1  0.5604190000000  0.5283790000000  0.4647700000000 1.0
C      1  0.5115870000000  0.5087660000000  0.4030940000000 1.0
C      1  0.5516460000000  0.5326570000000  0.4387610000000 1.0
C      1  0.4851300000000  0.5077130000000  0.4861760000000 1.0
C      1  0.4822080000000  0.4858870000000  0.5319610000000 1.0
C      1  0.5204980000000  0.5580310000000  0.4147050000000 1.0
C      1  0.4285680000000  0.5592040000000  0.5458360000000 1.0
C      1  0.5181260000000  0.4438050000000  0.4674840000000 1.0
C      1  0.4963060000000  0.5819780000000  0.5623630000000 1.0
C      1  0.4329630000000  0.4875120000000  0.5649800000000 1.0
C      1  0.4790600000000  0.4193520000000  0.4730150000000 1.0
C      1  0.4956280000000  0.5407100000000  0.5237470000000 1.0
C      1  0.5059230000000  0.5366490000000  0.4035690000000 1.0
C      1  0.5781160000000  0.4604520000000  0.4464570000000 1.0
C      1  0.4904030000000  0.4928330000000  0.4432440000000 1.0
C      1  0.5802590000000  0.5698820000000  0.4806120000000 1.0
C      1  0.3948410000000  0.5091940000000  0.5168740000000 1.0
C      1  0.5302750000000  0.4554360000000  0.5126760000000 1.0
C      1  0.6055630000000  0.5016600000000  0.4721060000000 1.0
C      1  0.5520250000000  0.5031730000000  0.5127280000000 1.0
C      1  0.4843070000000  0.5154670000000  0.4593790000000 1.0
C      1  0.5396080000000  0.4259150000000  0.5512440000000 1.0
C      1  0.5346860000000  0.5460430000000  0.5654790000000 1.0
C      1  0.4690170000000  0.5895350000000  0.5585690000000 1.0
C      1  0.5772400000000  0.4676910000000  0.5605050000000 1.0
C      1  0.5166300000000  0.5880170000000  0.4564830000000 1.0
C      1  0.4589610000000  0.6101420000000  0.5736880000000 1.0
C      1  0.5078550000000  0.4958150000000  0.5246280000000 1.0
C      1  0.4277890000000  0.5400660000000  0.5665580000000 1.0
C      1  0.3620120000000  0.5400090000000  0.5346620000000 1.0
C      1  0.4770530000000  0.5422430000000  0.4553940000000 1.0
C      1  0.5370690000000  0.4844870000000  0.4413370000000 1.0
C      1  0.5522270000000  0.5647570000000  0.5204460000000 1.0
C      1  0.5626110000000  0.5202650000000  0.5329570000000 1.0
C      1  0.5848220000000  0.4347220000000  0.4914900000000 1.0
C      1  0.5465150000000  0.4304590000000  0.5221200000000 1.0
C      1  0.5338910000000  0.4445010000000  0.4161800000000 1.0
C      1  0.5945110000000  0.4836500000000  0.4543230000000 1.0
C      1  0.4778140000000  0.5750270000000  0.4967000000000 1.0
C      1  0.4704450000000  0.4847070000000  0.4908510000000 1.0
C      1  0.5752910000000  0.4378830000000  0.5178970000000 1.0
C      1  0.4832140000000  0.4938590000000  0.5808170000000 1.0
C      1  0.4067470000000  0.5571920000000  0.5264670000000 1.0
C      1  0.4904700000000  0.4443440000000  0.4648300000000 1.0
C      1  0.5855670000000  0.4535090000000  0.5391770000000 1.0
C      1  0.5075380000000  0.4313030000000  0.4133030000000 1.0
C      1  0.4346570000000  0.5256190000000  0.4911450000000 1.0
C      1  0.4937330000000  0.5430500000000  0.5883900000000 1.0
C      1  0.5037940000000  0.3899590000000  0.4441060000000 1.0
C      1  0.5588240000000  0.4798500000000  0.5757850000000 1.0
C      1  0.5522550000000  0.4622780000000  0.4307950000000 1.0
C      1  0.4632560000000  0.5077860000000  0.5322950000000 1.0
C      1  0.4515350000000  0.5766870000000  0.5396910000000 1.0
C      1  0.5397150000000  0.4853520000000  0.4700740000000 1.0
C      1  0.4613380000000  0.4558230000000  0.4301730000000 1.0
C      1  0.5019760000000  0.4457230000000  0.5216470000000 1.0
C      1  0.4822740000000  0.4583320000000  0.5369760000000 1.0
C      1  0.3881520000000  0.5353180000000  0.5257840000000 1.0
C      1  0.4150420000000  0.4647970000000  0.4944100000000 1.0
C      1  0.5992390000000  0.5400940000000  0.5117390000000 1.0
C      1  0.5114960000000  0.5785120000000  0.4318080000000 1.0
C      1  0.4658970000000  0.4521070000000  0.5592300000000 1.0
C      1  0.5180290000000  0.3951290000000  0.4908040000000 1.0
C      1  0.5818960000000  0.4390640000000  0.4650460000000 1.0
C      1  0.5141740000000  0.4950250000000  0.4279480000000 1.0
C      1  0.4982320000000  0.3976690000000  0.4707410000000 1.0
C      1  0.4783750000000  0.5290050000000  0.5455100000000 1.0
C      1  0.4441870000000  0.4348390000000  0.5539430000000 1.0
C      1  0.4217920000000  0.4645940000000  0.4661810000000 1.0
C      1  0.5144540000000  0.4952860000000  0.3788790000000 1.0
C      1  0.4740140000000  0.5642240000000  0.4706820000000 1.0
C      1  0.5098500000000  0.4815900000000  0.5850580000000 1.0
C      1  0.5015360000000  0.5176600000000  0.5071750000000 1.0
C      1  0.4188630000000  0.4741360000000  0.5426730000000 1.0
C      1  0.5110340000000  0.5606620000000  0.5736130000000 1.0
C      1  0.4803530000000  0.4662470000000  0.4491740000000 1.0
C      1  0.4444630000000  0.5161210000000  0.5134810000000 1.0
C      1  0.4799910000000  0.4425840000000  0.4112300000000 1.0
C      1  0.5329970000000  0.4607840000000  0.4832190000000 1.0
C      1  0.5329080000000  0.4838970000000  0.5223950000000 1.0
C      1  0.4076490000000  0.5764930000000  0.5057110000000 1.0
C      1  0.4594230000000  0.4768700000000  0.5736370000000 1.0
C      1  0.4351930000000  0.4581930000000  0.4428100000000 1.0
C      1  0.3378590000000  0.5446370000000  0.5432830000000 1.0
C      1  0.4304920000000  0.5891890000000  0.4985200000000 1.0
C      1  0.5680080000000  0.5614290000000  0.4029780000000 1.0
C      1  0.6028110000000  0.5275350000000  0.4848040000000 1.0
C      1  0.5907950000000  0.5230640000000  0.5326750000000 1.0
C      1  0.5368710000000  0.4066400000000  0.5060950000000 1.0
C      1  0.5011280000000  0.5655410000000  0.5108960000000 1.0
C      1  0.5356120000000  0.4950320000000  0.5824460000000 1.0
C      1  0.4827270000000  0.5220560000000  0.5733570000000 1.0
C      1  0.4536790000000  0.4155010000000  0.4835480000000 1.0
C      1  0.4084040000000  0.4844190000000  0.5166190000000 1.0
C      1  0.5615170000000  0.5887700000000  0.4724600000000 1.0
C      1  0.4128150000000  0.3941150000000  0.4973980000000 1.0
C      1  0.4261380000000  0.5139340000000  0.5723960000000 1.0
C      1  0.4241240000000  0.4456800000000  0.5374430000000 1.0
C      1  0.5339100000000  0.5862710000000  0.4787000000000 1.0
C      1  0.5284730000000  0.5738820000000  0.5046260000000 1.0
C      1  0.5837850000000  0.5435310000000  0.4699380000000 1.0
C      1  0.5125450000000  0.4532920000000  0.5854500000000 1.0
C      1  0.5479190000000  0.5511470000000  0.4181640000000 1.0
C      1  0.5483570000000  0.5446360000000  0.5405190000000 1.0
C      1  0.5801220000000  0.5641580000000  0.5092660000000 1.0
C      1  0.5255610000000  0.4335730000000  0.5727140000000 1.0
C      1  0.5514140000000  0.5075760000000  0.4834320000000 1.0
C      1  0.4290140000000  0.4161100000000  0.4968020000000 1.0
C      1  0.5387970000000  0.5229010000000  0.5816950000000 1.0
C      1  0.5076410000000  0.4039030000000  0.4214030000000 1.0
C      1  0.5171380000000  0.4817150000000  0.3567950000000 1.0
C      1  0.4550130000000  0.5834080000000  0.5115660000000 1.0
END
