TITL C-599890-3321-1066 1.39479740673475 125000 -596.213238997993 0 0 97 (C1) n - 1
REM
REM in /home/nfs/bkarasulu/CARBON/AIRSS/Generating-Clusters/TERSOFF/Only-C1/FIRE-HFTN
REM
REM
REM
REM
REM
REM ./C.cell (11c1c37f851c82e70ff6c80c92926a4b)
REM AIRSS Version 0.9.1 bugfix July 2018 build 013d7b7c2542+ Fri, 06 Jul 2018 19:26:36 +0100
REM compiler GCC version 9.2.1 20190827 (Red Hat 9.2.1-1)
REM options -cpp -mtune=generic -march=x86-64 -g -O0 -fpre-include=/usr/include/finclude/math-vector-fortran.h
REM seed 143591902 949390223 1853737677 -490333464 982585569 -330141144 -1679980755 374170479 759987429 -288649980 1105724098 1017263992 1548882769 -1950249067 -1605896498 -901116489 -1442242591 2034734667 1934566521 1193794389 -715132752 1363504319 1924572373 -789311283 -1402272623 -1486765877 -1008333055 1786334612 241024761 -2014133858 -1279544737 -129454036 -392405602
REM
CELL 1.54180   50.00000   50.00000   50.00000   90.00000   90.00000   90.00000
LATT -1
SFAC C  
C      1  0.6061790000000  0.4361210000000  0.4795960000000 1.0
C      1  0.5337630000000  0.5057510000000  0.5628340000000 1.0
C      1  0.4514050000000  0.4711980000000  0.3984520000000 1.0
C      1  0.4359710000000  0.5490740000000  0.4669490000000 1.0
C      1  0.5722930000000  0.4849790000000  0.4332210000000 1.0
C      1  0.5194120000000  0.4188030000000  0.4643430000000 1.0
C      1  0.4750030000000  0.4934730000000  0.5795110000000 1.0
C      1  0.6045070000000  0.4963800000000  0.5590420000000 1.0
C      1  0.4037510000000  0.5607250000000  0.5175600000000 1.0
C      1  0.5027160000000  0.4375480000000  0.4769200000000 1.0
C      1  0.4910510000000  0.4309530000000  0.5021680000000 1.0
C      1  0.4082830000000  0.5496560000000  0.4639590000000 1.0
C      1  0.3931240000000  0.5366990000000  0.5077120000000 1.0
C      1  0.4751050000000  0.5743290000000  0.5338030000000 1.0
C      1  0.4617250000000  0.5455300000000  0.4080980000000 1.0
C      1  0.4046890000000  0.4999360000000  0.4473890000000 1.0
C      1  0.4848260000000  0.5744780000000  0.5068150000000 1.0
C      1  0.5307570000000  0.5475200000000  0.5070270000000 1.0
C      1  0.4928350000000  0.4723180000000  0.5836780000000 1.0
C      1  0.6215340000000  0.5047150000000  0.5143460000000 1.0
C      1  0.4511540000000  0.5687320000000  0.4520670000000 1.0
C      1  0.4283420000000  0.5747720000000  0.5178920000000 1.0
C      1  0.4605750000000  0.4439160000000  0.5376680000000 1.0
C      1  0.4624540000000  0.4336480000000  0.5092580000000 1.0
C      1  0.4413330000000  0.4357330000000  0.4365570000000 1.0
C      1  0.3893310000000  0.4922710000000  0.4960660000000 1.0
C      1  0.5043510000000  0.4911270000000  0.4595860000000 1.0
C      1  0.4580730000000  0.5231780000000  0.3935130000000 1.0
C      1  0.6488730000000  0.5058640000000  0.5129620000000 1.0
C      1  0.5348090000000  0.5757420000000  0.5028600000000 1.0
C      1  0.3961790000000  0.5098940000000  0.5185430000000 1.0
C      1  0.5321260000000  0.4306380000000  0.5362930000000 1.0
C      1  0.5053660000000  0.4285430000000  0.5269340000000 1.0
C      1  0.5231990000000  0.5325580000000  0.4820810000000 1.0
C      1  0.5737900000000  0.4518470000000  0.5379440000000 1.0
C      1  0.5167750000000  0.4852760000000  0.5182090000000 1.0
C      1  0.4172970000000  0.4717500000000  0.5404610000000 1.0
C      1  0.4462890000000  0.4504290000000  0.4146670000000 1.0
C      1  0.4982520000000  0.5428570000000  0.4722110000000 1.0
C      1  0.3905450000000  0.5341050000000  0.4787410000000 1.0
C      1  0.5616890000000  0.5832230000000  0.5017520000000 1.0
C      1  0.5011380000000  0.4631370000000  0.4645600000000 1.0
C      1  0.5316370000000  0.4487780000000  0.5601940000000 1.0
C      1  0.5852630000000  0.5704190000000  0.5026320000000 1.0
C      1  0.5327600000000  0.5323350000000  0.5536130000000 1.0
C      1  0.5696120000000  0.4068610000000  0.5153570000000 1.0
C      1  0.4929440000000  0.5582130000000  0.5507930000000 1.0
C      1  0.4135680000000  0.5006600000000  0.5385160000000 1.0
C      1  0.4480230000000  0.5917130000000  0.4696760000000 1.0
C      1  0.5381470000000  0.4608890000000  0.4013840000000 1.0
C      1  0.4553080000000  0.4966040000000  0.3906630000000 1.0
C      1  0.5093150000000  0.5882740000000  0.5005640000000 1.0
C      1  0.4442570000000  0.4277680000000  0.4885690000000 1.0
C      1  0.4475030000000  0.5650680000000  0.5369160000000 1.0
C      1  0.4915050000000  0.5263230000000  0.5178190000000 1.0
C      1  0.5428530000000  0.4111120000000  0.4544520000000 1.0
C      1  0.4526410000000  0.4896370000000  0.5623280000000 1.0
C      1  0.4552330000000  0.4957560000000  0.4483110000000 1.0
C      1  0.5254440000000  0.5043770000000  0.4758390000000 1.0
C      1  0.4515080000000  0.5386810000000  0.4882490000000 1.0
C      1  0.5558470000000  0.4727040000000  0.4164430000000 1.0
C      1  0.4298360000000  0.5026300000000  0.4374750000000 1.0
C      1  0.5131280000000  0.5415370000000  0.5329700000000 1.0
C      1  0.4747700000000  0.5417370000000  0.5670720000000 1.0
C      1  0.6089670000000  0.4871190000000  0.5329360000000 1.0
C      1  0.6074420000000  0.4491870000000  0.5027070000000 1.0
C      1  0.5692830000000  0.4131510000000  0.4523090000000 1.0
C      1  0.5996000000000  0.5478760000000  0.5028300000000 1.0
C      1  0.4686340000000  0.5538230000000  0.4342680000000 1.0
C      1  0.4814550000000  0.5205100000000  0.5842050000000 1.0
C      1  0.4437600000000  0.4641970000000  0.5493570000000 1.0
C      1  0.4822520000000  0.5064360000000  0.4471870000000 1.0
C      1  0.4795520000000  0.5457150000000  0.4957950000000 1.0
C      1  0.4511310000000  0.4783540000000  0.4697990000000 1.0
C      1  0.6057220000000  0.5210400000000  0.4970940000000 1.0
C      1  0.4363760000000  0.5134960000000  0.5523100000000 1.0
C      1  0.5924700000000  0.4228000000000  0.4610920000000 1.0
C      1  0.5566120000000  0.4635980000000  0.5588000000000 1.0
C      1  0.3899490000000  0.5059650000000  0.4706690000000 1.0
C      1  0.4479140000000  0.5402000000000  0.5536220000000 1.0
C      1  0.4681410000000  0.4859420000000  0.5147090000000 1.0
C      1  0.5551180000000  0.5473570000000  0.5626650000000 1.0
C      1  0.4918950000000  0.4984510000000  0.5200610000000 1.0
C      1  0.5590900000000  0.4289050000000  0.5272340000000 1.0
C      1  0.5961930000000  0.5098490000000  0.4732600000000 1.0
C      1  0.5810940000000  0.5063060000000  0.5705360000000 1.0
C      1  0.5041140000000  0.4523210000000  0.5679040000000 1.0
C      1  0.5769270000000  0.5344050000000  0.5725920000000 1.0
C      1  0.4858840000000  0.5350780000000  0.4480700000000 1.0
C      1  0.5858480000000  0.4976260000000  0.4521600000000 1.0
C      1  0.5970350000000  0.4623760000000  0.5252050000000 1.0
C      1  0.4507140000000  0.4794780000000  0.4960840000000 1.0
C      1  0.4368460000000  0.5910030000000  0.4951380000000 1.0
C      1  0.5572630000000  0.4904740000000  0.5670600000000 1.0
C      1  0.4392380000000  0.4279120000000  0.4621480000000 1.0
C      1  0.5341960000000  0.4885040000000  0.4977240000000 1.0
C      1  0.4873220000000  0.4390420000000  0.5483870000000 1.0
END
