TITL C-599892-9790-942 0.0465031498172152 125000 -990.98091156626 0 0 161 (C1) n - 1
REM
REM in /home/nfs/bkarasulu/CARBON/AIRSS/Generating-Clusters/TERSOFF/Only-C1/FIRE-HFTN
REM
REM
REM
REM
REM
REM ./C.cell (11c1c37f851c82e70ff6c80c92926a4b)
REM AIRSS Version 0.9.1 bugfix July 2018 build 013d7b7c2542+ Fri, 06 Jul 2018 19:26:36 +0100
REM compiler GCC version 9.2.1 20190827 (Red Hat 9.2.1-1)
REM options -cpp -mtune=generic -march=x86-64 -g -O0 -fpre-include=/usr/include/finclude/math-vector-fortran.h
REM seed 1840117522 -2121308536 1847347449 18441309 -1775431733 1648623736 963325082 1421747600 1207652570 1621220572 1852449476 195120569 -1403188489 1744095725 2063831784 -2081570636 1074133034 -655737984 -76342042 -1983296955 569034417 981286377 -697344395 1891233386 -1869142130 -994058597 1696800836 1446332228 -1533366114 1453620503 282932336 1542296926 1703547224
REM
CELL 1.54180   50.00000   50.00000   50.00000   90.00000   90.00000   90.00000
LATT -1
SFAC C  
C      1  0.4922300000000  0.5516480000000  0.4121490000000 1.0
C      1  0.4788420000000  0.5221220000000  0.6023560000000 1.0
C      1  0.4523980000000  0.4572380000000  0.5193170000000 1.0
C      1  0.4177850000000  0.4692260000000  0.4279260000000 1.0
C      1  0.4096190000000  0.5112180000000  0.4533190000000 1.0
C      1  0.4505160000000  0.4637040000000  0.5471050000000 1.0
C      1  0.5112290000000  0.5133300000000  0.5025900000000 1.0
C      1  0.5658340000000  0.5188110000000  0.5734000000000 1.0
C      1  0.5587370000000  0.5454360000000  0.4345270000000 1.0
C      1  0.5433630000000  0.5627070000000  0.5115460000000 1.0
C      1  0.4026410000000  0.5157850000000  0.5430650000000 1.0
C      1  0.4766110000000  0.5659410000000  0.4771110000000 1.0
C      1  0.5533100000000  0.5815970000000  0.5722860000000 1.0
C      1  0.5940560000000  0.5663030000000  0.5375810000000 1.0
C      1  0.4685160000000  0.5661890000000  0.4146150000000 1.0
C      1  0.4662270000000  0.5771030000000  0.5693880000000 1.0
C      1  0.5162960000000  0.4581950000000  0.5990780000000 1.0
C      1  0.5281200000000  0.5670770000000  0.5750090000000 1.0
C      1  0.4767740000000  0.4870950000000  0.4269770000000 1.0
C      1  0.3719490000000  0.4798750000000  0.5520700000000 1.0
C      1  0.4527740000000  0.5013310000000  0.4170950000000 1.0
C      1  0.4305180000000  0.4801910000000  0.5583110000000 1.0
C      1  0.4192710000000  0.4102620000000  0.5084760000000 1.0
C      1  0.5188940000000  0.5571670000000  0.6006710000000 1.0
C      1  0.5944910000000  0.4751090000000  0.4196380000000 1.0
C      1  0.3690850000000  0.5209490000000  0.5777810000000 1.0
C      1  0.5270250000000  0.4052380000000  0.5274540000000 1.0
C      1  0.5586450000000  0.5169560000000  0.5036250000000 1.0
C      1  0.5288730000000  0.5605110000000  0.4861340000000 1.0
C      1  0.5901440000000  0.5690690000000  0.4803640000000 1.0
C      1  0.3750130000000  0.4593450000000  0.5350410000000 1.0
C      1  0.5547970000000  0.5383520000000  0.5224640000000 1.0
C      1  0.4617650000000  0.5855600000000  0.4357610000000 1.0
C      1  0.5331950000000  0.4934860000000  0.3885780000000 1.0
C      1  0.5435550000000  0.5676080000000  0.4315890000000 1.0
C      1  0.4432850000000  0.5286250000000  0.4852790000000 1.0
C      1  0.5887570000000  0.4824480000000  0.5917220000000 1.0
C      1  0.5675560000000  0.5247410000000  0.4515170000000 1.0
C      1  0.4231210000000  0.4024050000000  0.5342840000000 1.0
C      1  0.5365950000000  0.4661110000000  0.3819280000000 1.0
C      1  0.4839210000000  0.4320300000000  0.4813520000000 1.0
C      1  0.4992580000000  0.5389500000000  0.5096710000000 1.0
C      1  0.3808330000000  0.5060160000000  0.5582040000000 1.0
C      1  0.4612520000000  0.3905040000000  0.4824950000000 1.0
C      1  0.5549390000000  0.5235410000000  0.4766400000000 1.0
C      1  0.4713700000000  0.4766540000000  0.4567710000000 1.0
C      1  0.5144380000000  0.4068830000000  0.5513850000000 1.0
C      1  0.4793820000000  0.4961700000000  0.4761840000000 1.0
C      1  0.4845570000000  0.4039120000000  0.4740000000000 1.0
C      1  0.5587460000000  0.5316810000000  0.5496880000000 1.0
C      1  0.4580910000000  0.4735390000000  0.6020030000000 1.0
C      1  0.4399830000000  0.5703710000000  0.5089780000000 1.0
C      1  0.5525770000000  0.4718720000000  0.4880580000000 1.0
C      1  0.5483160000000  0.4177300000000  0.4804790000000 1.0
C      1  0.5917230000000  0.5064040000000  0.5781770000000 1.0
C      1  0.4205420000000  0.5545650000000  0.5247490000000 1.0
C      1  0.5023850000000  0.4188730000000  0.5723240000000 1.0
C      1  0.5728750000000  0.5902190000000  0.4787230000000 1.0
C      1  0.5149490000000  0.5113270000000  0.4001730000000 1.0
C      1  0.5890800000000  0.4371700000000  0.5079760000000 1.0
C      1  0.4309840000000  0.4855640000000  0.4089480000000 1.0
C      1  0.5116710000000  0.5481750000000  0.3662980000000 1.0
C      1  0.4453800000000  0.5496000000000  0.4176270000000 1.0
C      1  0.3886240000000  0.4549170000000  0.5108730000000 1.0
C      1  0.5560910000000  0.4343590000000  0.5784100000000 1.0
C      1  0.5498830000000  0.6051740000000  0.4800260000000 1.0
C      1  0.5034620000000  0.4479260000000  0.4305830000000 1.0
C      1  0.5334470000000  0.5873840000000  0.5228540000000 1.0
C      1  0.4222340000000  0.4417600000000  0.4251790000000 1.0
C      1  0.5071610000000  0.5029540000000  0.4761450000000 1.0
C      1  0.4878300000000  0.5853110000000  0.5527960000000 1.0
C      1  0.5019870000000  0.5060500000000  0.4276470000000 1.0
C      1  0.5699580000000  0.4262400000000  0.5570220000000 1.0
C      1  0.4842310000000  0.5971090000000  0.5261150000000 1.0
C      1  0.5753030000000  0.4338960000000  0.4820950000000 1.0
C      1  0.4694660000000  0.4471630000000  0.5984790000000 1.0
C      1  0.4341190000000  0.4806420000000  0.5870410000000 1.0
C      1  0.5798950000000  0.4262280000000  0.5322190000000 1.0
C      1  0.4788600000000  0.5072690000000  0.5596470000000 1.0
C      1  0.3977930000000  0.4239350000000  0.4706570000000 1.0
C      1  0.5006530000000  0.5565830000000  0.4882230000000 1.0
C      1  0.5757380000000  0.5751810000000  0.5555140000000 1.0
C      1  0.4693200000000  0.4943660000000  0.5022980000000 1.0
C      1  0.5022460000000  0.5436680000000  0.5381010000000 1.0
C      1  0.4927820000000  0.4212100000000  0.4334820000000 1.0
C      1  0.6243730000000  0.4987000000000  0.4876170000000 1.0
C      1  0.4643350000000  0.4520650000000  0.4718420000000 1.0
C      1  0.5912890000000  0.4795840000000  0.4474570000000 1.0
C      1  0.5059220000000  0.4362890000000  0.4986790000000 1.0
C      1  0.4892620000000  0.4567340000000  0.3850910000000 1.0
C      1  0.5231250000000  0.5076970000000  0.6028620000000 1.0
C      1  0.4570020000000  0.5926400000000  0.5168160000000 1.0
C      1  0.4361960000000  0.4206060000000  0.4376090000000 1.0
C      1  0.5025720000000  0.5168740000000  0.5483550000000 1.0
C      1  0.5217420000000  0.5879400000000  0.6449680000000 1.0
C      1  0.3982130000000  0.4793260000000  0.4978440000000 1.0
C      1  0.6198780000000  0.5254560000000  0.5341820000000 1.0
C      1  0.5374250000000  0.4838760000000  0.5309660000000 1.0
C      1  0.3934630000000  0.5089320000000  0.4999490000000 1.0
C      1  0.4224710000000  0.4111010000000  0.4609210000000 1.0
C      1  0.5526810000000  0.4268160000000  0.4083430000000 1.0
C      1  0.5237590000000  0.4599190000000  0.5351900000000 1.0
C      1  0.5167100000000  0.4936200000000  0.4502770000000 1.0
C      1  0.4468150000000  0.5253250000000  0.4309830000000 1.0
C      1  0.5066430000000  0.4842050000000  0.6073660000000 1.0
C      1  0.4523160000000  0.5555330000000  0.4881450000000 1.0
C      1  0.4186030000000  0.4716800000000  0.4790760000000 1.0
C      1  0.5484480000000  0.4122850000000  0.4305060000000 1.0
C      1  0.4657930000000  0.5273280000000  0.5770230000000 1.0
C      1  0.4366170000000  0.5217470000000  0.4580730000000 1.0
C      1  0.5555360000000  0.6050060000000  0.5867940000000 1.0
C      1  0.5557440000000  0.4890210000000  0.5099780000000 1.0
C      1  0.6096440000000  0.4570090000000  0.5098180000000 1.0
C      1  0.4122140000000  0.4822890000000  0.4529150000000 1.0
C      1  0.4796990000000  0.5867830000000  0.4576730000000 1.0
C      1  0.5445380000000  0.4549100000000  0.5938180000000 1.0
C      1  0.5573940000000  0.4508290000000  0.3940900000000 1.0
C      1  0.5100860000000  0.6012800000000  0.5106970000000 1.0
C      1  0.5212890000000  0.4648960000000  0.4472970000000 1.0
C      1  0.3979980000000  0.4294500000000  0.4995680000000 1.0
C      1  0.5171970000000  0.5029910000000  0.5289140000000 1.0
C      1  0.5085640000000  0.5658610000000  0.5541150000000 1.0
C      1  0.4960300000000  0.4393130000000  0.5909120000000 1.0
C      1  0.4040410000000  0.5604740000000  0.4449830000000 1.0
C      1  0.4525380000000  0.5518640000000  0.5687470000000 1.0
C      1  0.6082810000000  0.5192630000000  0.4763380000000 1.0
C      1  0.4639410000000  0.4168190000000  0.4302840000000 1.0
C      1  0.5608830000000  0.4777670000000  0.5974100000000 1.0
C      1  0.4782550000000  0.4703710000000  0.5143250000000 1.0
C      1  0.5400580000000  0.4601150000000  0.4674950000000 1.0
C      1  0.5201720000000  0.6064380000000  0.4823490000000 1.0
C      1  0.6234900000000  0.4987170000000  0.5338370000000 1.0
C      1  0.4960320000000  0.5344800000000  0.4350270000000 1.0
C      1  0.6070550000000  0.5468770000000  0.5208060000000 1.0
C      1  0.4294330000000  0.5528860000000  0.5524220000000 1.0
C      1  0.5016390000000  0.4554530000000  0.5182830000000 1.0
C      1  0.5483000000000  0.5039030000000  0.5915830000000 1.0
C      1  0.3943430000000  0.5348900000000  0.4477650000000 1.0
C      1  0.4871460000000  0.4630950000000  0.4123240000000 1.0
C      1  0.4741390000000  0.4790260000000  0.5566600000000 1.0
C      1  0.5209300000000  0.5735330000000  0.6232670000000 1.0
C      1  0.4010960000000  0.5314210000000  0.5182720000000 1.0
C      1  0.5066450000000  0.5378910000000  0.3909800000000 1.0
C      1  0.6213100000000  0.4826580000000  0.5107290000000 1.0
C      1  0.5128720000000  0.4542310000000  0.3720380000000 1.0
C      1  0.4415910000000  0.4569290000000  0.4905630000000 1.0
C      1  0.5069920000000  0.5315370000000  0.6035390000000 1.0
C      1  0.5057700000000  0.4043220000000  0.4534670000000 1.0
C      1  0.6031340000000  0.5454180000000  0.4913920000000 1.0
C      1  0.5352310000000  0.4081110000000  0.4553980000000 1.0
C      1  0.4274370000000  0.5742730000000  0.4392460000000 1.0
C      1  0.4458360000000  0.5098080000000  0.5093890000000 1.0
C      1  0.5250810000000  0.5862160000000  0.4382680000000 1.0
C      1  0.4347790000000  0.4004240000000  0.4852400000000 1.0
C      1  0.5068410000000  0.5974300000000  0.4576470000000 1.0
C      1  0.5910600000000  0.5084070000000  0.4551490000000 1.0
C      1  0.5818960000000  0.4636700000000  0.3990850000000 1.0
C      1  0.5853690000000  0.4546200000000  0.4623900000000 1.0
C      1  0.4271580000000  0.5018460000000  0.5393850000000 1.0
C      1  0.4782440000000  0.4929750000000  0.6092530000000 1.0
C      1  0.5286520000000  0.4187850000000  0.5024950000000 1.0
END
