TITL C-599890-3321-202 952.2540242688 125000 -1215.01117883285 0 0 197 (C1) n - 1
REM
REM in /home/nfs/bkarasulu/CARBON/AIRSS/Generating-Clusters/TERSOFF/Only-C1/FIRE-HFTN
REM
REM
REM
REM
REM
REM ./C.cell (11c1c37f851c82e70ff6c80c92926a4b)
REM AIRSS Version 0.9.1 bugfix July 2018 build 013d7b7c2542+ Fri, 06 Jul 2018 19:26:36 +0100
REM compiler GCC version 9.2.1 20190827 (Red Hat 9.2.1-1)
REM options -cpp -mtune=generic -march=x86-64 -g -O0 -fpre-include=/usr/include/finclude/math-vector-fortran.h
REM seed 1026017369 -1980321606 2071149059 -1127601611 301086207 -68484877 862689670 -679132463 -1421549376 -1095579010 -291800097 -1695093019 -1025107724 -52156554 -1062476039 435664513 -1443792795 -1243144478 812253100 -1221363779 734919108 -35011843 1550770311 1517460329 -564198333 -453197943 336816163 -343423497 869440491 -221233620 -758327712 274905779 -729617104
REM
CELL 1.54180   50.00000   50.00000   50.00000   90.00000   90.00000   90.00000
LATT -1
SFAC C  
C      1  0.5020420000000  0.4103070000000  0.5026520000000 1.0
C      1  0.4970610000000  0.6110030000000  0.5457290000000 1.0
C      1  0.3779820000000  0.4650810000000  0.5148040000000 1.0
C      1  0.4987640000000  0.5498060000000  0.4267460000000 1.0
C      1  0.6006900000000  0.4178460000000  0.5991560000000 1.0
C      1  0.4935900000000  0.6154030000000  0.4756350000000 1.0
C      1  0.5963700000000  0.4498240000000  0.4915810000000 1.0
C      1  0.6011170000000  0.5008330000000  0.5637650000000 1.0
C      1  0.5154980000000  0.3728460000000  0.4665530000000 1.0
C      1  0.6062810000000  0.4065090000000  0.5301070000000 1.0
C      1  0.5550890000000  0.5558800000000  0.5655460000000 1.0
C      1  0.4573250000000  0.5769170000000  0.5964520000000 1.0
C      1  0.5796880000000  0.5589720000000  0.5540110000000 1.0
C      1  0.3972270000000  0.5450110000000  0.4964400000000 1.0
C      1  0.4812700000000  0.4559440000000  0.5892370000000 1.0
C      1  0.5717030000000  0.4616390000000  0.5006500000000 1.0
C      1  0.5353590000000  0.5361860000000  0.4547860000000 1.0
C      1  0.5102960000000  0.4350500000000  0.6237220000000 1.0
C      1  0.5524190000000  0.5194200000000  0.5983990000000 1.0
C      1  0.6155920000000  0.4324110000000  0.5341540000000 1.0
C      1  0.3677610000000  0.4572930000000  0.4227260000000 1.0
C      1  0.5243990000000  0.4453210000000  0.5252860000000 1.0
C      1  0.4629760000000  0.5250600000000  0.4807810000000 1.0
C      1  0.4953000000000  0.5441500000000  0.6058010000000 1.0
C      1  0.5861420000000  0.5038810000000  0.4917140000000 1.0
C      1  0.5604460000000  0.4963730000000  0.5332470000000 1.0
C      1  0.4216740000000  0.4823360000000  0.5010170000000 1.0
C      1  0.4014030000000  0.5024300000000  0.5794690000000 1.0
C      1  0.5168050000000  0.3871590000000  0.4913510000000 1.0
C      1  0.4891570000000  0.5249890000000  0.5648790000000 1.0
C      1  0.5781960000000  0.4774300000000  0.6002660000000 1.0
C      1  0.5086570000000  0.5315010000000  0.4910840000000 1.0
C      1  0.5745810000000  0.4619130000000  0.4190200000000 1.0
C      1  0.4925540000000  0.6080790000000  0.4234740000000 1.0
C      1  0.5403790000000  0.5796160000000  0.5194930000000 1.0
C      1  0.5806710000000  0.5018890000000  0.5859230000000 1.0
C      1  0.6109790000000  0.6162840000000  0.4526500000000 1.0
C      1  0.5066490000000  0.6066050000000  0.5719270000000 1.0
C      1  0.4865570000000  0.4328120000000  0.5742740000000 1.0
C      1  0.4652690000000  0.5492390000000  0.5978550000000 1.0
C      1  0.5561470000000  0.4624870000000  0.6091460000000 1.0
C      1  0.5524660000000  0.4343170000000  0.6032810000000 1.0
C      1  0.4168700000000  0.4313340000000  0.5164530000000 1.0
C      1  0.4866860000000  0.5044550000000  0.5857190000000 1.0
C      1  0.5476880000000  0.4630950000000  0.4849580000000 1.0
C      1  0.4164050000000  0.4968550000000  0.5252280000000 1.0
C      1  0.4824440000000  0.6129320000000  0.4495510000000 1.0
C      1  0.4839990000000  0.5603990000000  0.4477290000000 1.0
C      1  0.5479760000000  0.4788800000000  0.5512670000000 1.0
C      1  0.5235900000000  0.5162730000000  0.3799360000000 1.0
C      1  0.6168540000000  0.4320730000000  0.5834780000000 1.0
C      1  0.5696390000000  0.5027700000000  0.4695500000000 1.0
C      1  0.5166400000000  0.5806570000000  0.5758500000000 1.0
C      1  0.5779300000000  0.5518840000000  0.5104670000000 1.0
C      1  0.5954670000000  0.4588680000000  0.4411710000000 1.0
C      1  0.5244070000000  0.4263120000000  0.4643450000000 1.0
C      1  0.4022200000000  0.4344400000000  0.5401650000000 1.0
C      1  0.4207470000000  0.5573140000000  0.5458410000000 1.0
C      1  0.4210770000000  0.4344920000000  0.5839900000000 1.0
C      1  0.3872880000000  0.5929450000000  0.4847440000000 1.0
C      1  0.5143390000000  0.4607280000000  0.6323400000000 1.0
C      1  0.5254640000000  0.4248270000000  0.6014520000000 1.0
C      1  0.5496960000000  0.4831800000000  0.4643410000000 1.0
C      1  0.5251060000000  0.5797900000000  0.4014240000000 1.0
C      1  0.4410360000000  0.5453490000000  0.4443160000000 1.0
C      1  0.5348190000000  0.5355540000000  0.4826410000000 1.0
C      1  0.3948180000000  0.5586980000000  0.4409840000000 1.0
C      1  0.4345710000000  0.5131700000000  0.4055480000000 1.0
C      1  0.4228170000000  0.4624840000000  0.5821400000000 1.0
C      1  0.5763420000000  0.4868420000000  0.5126910000000 1.0
C      1  0.5288420000000  0.5826290000000  0.4925840000000 1.0
C      1  0.4701960000000  0.4810850000000  0.5309450000000 1.0
C      1  0.6167680000000  0.4518020000000  0.5122520000000 1.0
C      1  0.4699530000000  0.4815880000000  0.5897260000000 1.0
C      1  0.5114160000000  0.4183200000000  0.5770650000000 1.0
C      1  0.5132580000000  0.6360220000000  0.4757130000000 1.0
C      1  0.3805320000000  0.4587280000000  0.4875100000000 1.0
C      1  0.3793960000000  0.5649430000000  0.4841520000000 1.0
C      1  0.4682480000000  0.5546120000000  0.5141400000000 1.0
C      1  0.5342770000000  0.4497270000000  0.3903850000000 1.0
C      1  0.5417840000000  0.3888850000000  0.5454990000000 1.0
C      1  0.6244980000000  0.4963690000000  0.4658530000000 1.0
C      1  0.4539550000000  0.5000720000000  0.4661410000000 1.0
C      1  0.5296990000000  0.5655790000000  0.5511740000000 1.0
C      1  0.5206390000000  0.4585150000000  0.4986870000000 1.0
C      1  0.5340190000000  0.4775700000000  0.6205170000000 1.0
C      1  0.3933740000000  0.4482570000000  0.4627160000000 1.0
C      1  0.4478530000000  0.4407100000000  0.4842370000000 1.0
C      1  0.5071430000000  0.4474760000000  0.3901150000000 1.0
C      1  0.5493980000000  0.4141430000000  0.4751090000000 1.0
C      1  0.4580670000000  0.4455930000000  0.4032190000000 1.0
C      1  0.4779280000000  0.5886440000000  0.4073070000000 1.0
C      1  0.5726470000000  0.5397940000000  0.4292390000000 1.0
C      1  0.5613460000000  0.4895320000000  0.4181130000000 1.0
C      1  0.4726610000000  0.4053300000000  0.4405710000000 1.0
C      1  0.5029970000000  0.5153820000000  0.6073930000000 1.0
C      1  0.5451960000000  0.5459840000000  0.5909550000000 1.0
C      1  0.5446250000000  0.4528070000000  0.5426890000000 1.0
C      1  0.5186410000000  0.5599140000000  0.5970440000000 1.0
C      1  0.3793580000000  0.6248960000000  0.5273100000000 1.0
C      1  0.4952580000000  0.5913380000000  0.4941650000000 1.0
C      1  0.4525380000000  0.4003990000000  0.4577970000000 1.0
C      1  0.5445170000000  0.3884760000000  0.4256950000000 1.0
C      1  0.5450180000000  0.3948120000000  0.4964220000000 1.0
C      1  0.5300790000000  0.3730510000000  0.4433310000000 1.0
C      1  0.5301120000000  0.5048150000000  0.6118430000000 1.0
C      1  0.3927770000000  0.4592970000000  0.4356280000000 1.0
C      1  0.5063330000000  0.6257200000000  0.5912860000000 1.0
C      1  0.4708760000000  0.4305960000000  0.5506850000000 1.0
C      1  0.6076170000000  0.5192730000000  0.5401260000000 1.0
C      1  0.5406940000000  0.4849160000000  0.4380020000000 1.0
C      1  0.4734440000000  0.4493530000000  0.4783840000000 1.0
C      1  0.5928690000000  0.4404350000000  0.4641370000000 1.0
C      1  0.5219420000000  0.6050080000000  0.4182910000000 1.0
C      1  0.3714180000000  0.5577630000000  0.4574630000000 1.0
C      1  0.5556040000000  0.5546010000000  0.4475630000000 1.0
C      1  0.4965290000000  0.5058140000000  0.4446970000000 1.0
C      1  0.4929350000000  0.5918460000000  0.5259490000000 1.0
C      1  0.5295170000000  0.6392390000000  0.4540290000000 1.0
C      1  0.6148700000000  0.4797250000000  0.4464090000000 1.0
C      1  0.4274090000000  0.4059380000000  0.5056320000000 1.0
C      1  0.5853660000000  0.3911350000000  0.5242490000000 1.0
C      1  0.5856900000000  0.6101010000000  0.4515150000000 1.0
C      1  0.5634150000000  0.5186830000000  0.4105760000000 1.0
C      1  0.4503190000000  0.5261450000000  0.4249990000000 1.0
C      1  0.5679250000000  0.5768520000000  0.5201760000000 1.0
C      1  0.4352700000000  0.5117820000000  0.5400810000000 1.0
C      1  0.5426610000000  0.4170130000000  0.4217920000000 1.0
C      1  0.5117310000000  0.4201040000000  0.5284550000000 1.0
C      1  0.3445680000000  0.4559340000000  0.4109200000000 1.0
C      1  0.4248400000000  0.4997510000000  0.4777650000000 1.0
C      1  0.5068430000000  0.5096460000000  0.5091810000000 1.0
C      1  0.5060970000000  0.5436440000000  0.5461730000000 1.0
C      1  0.4602890000000  0.5071830000000  0.5275140000000 1.0
C      1  0.4682510000000  0.4550110000000  0.5366100000000 1.0
C      1  0.4990420000000  0.5058420000000  0.3769020000000 1.0
C      1  0.4088100000000  0.4209180000000  0.5640170000000 1.0
C      1  0.4250190000000  0.5818760000000  0.5588390000000 1.0
C      1  0.4673460000000  0.5080800000000  0.4385290000000 1.0
C      1  0.4498750000000  0.5890810000000  0.4069740000000 1.0
C      1  0.5390920000000  0.6179090000000  0.4376100000000 1.0
C      1  0.5087000000000  0.4857000000000  0.4946680000000 1.0
C      1  0.5555050000000  0.5351840000000  0.5034250000000 1.0
C      1  0.4279530000000  0.5084010000000  0.5928310000000 1.0
C      1  0.5204090000000  0.4061790000000  0.5522050000000 1.0
C      1  0.3992550000000  0.6018020000000  0.4600360000000 1.0
C      1  0.5744640000000  0.4190730000000  0.4632950000000 1.0
C      1  0.4063570000000  0.5520800000000  0.5222120000000 1.0
C      1  0.4391530000000  0.4663110000000  0.4040010000000 1.0
C      1  0.5450490000000  0.5310170000000  0.3911800000000 1.0
C      1  0.4491200000000  0.4916500000000  0.3920450000000 1.0
C      1  0.5200580000000  0.5211050000000  0.5316020000000 1.0
C      1  0.5187680000000  0.4239770000000  0.4370770000000 1.0
C      1  0.4622580000000  0.5528570000000  0.4656290000000 1.0
C      1  0.5295010000000  0.4874200000000  0.5690000000000 1.0
C      1  0.5133820000000  0.5279920000000  0.4380850000000 1.0
C      1  0.4608680000000  0.4059720000000  0.5415200000000 1.0
C      1  0.4921010000000  0.4212390000000  0.4275290000000 1.0
C      1  0.3831980000000  0.6095970000000  0.5065650000000 1.0
C      1  0.5549700000000  0.4406040000000  0.4089380000000 1.0
C      1  0.3896250000000  0.4608630000000  0.5424580000000 1.0
C      1  0.5029910000000  0.4360530000000  0.4841640000000 1.0
C      1  0.4102150000000  0.5265230000000  0.4766220000000 1.0
C      1  0.4415040000000  0.4825580000000  0.5919520000000 1.0
C      1  0.4648190000000  0.5273110000000  0.5085960000000 1.0
C      1  0.5433400000000  0.5602000000000  0.3915020000000 1.0
C      1  0.4254460000000  0.5907430000000  0.4181220000000 1.0
C      1  0.4982350000000  0.4883230000000  0.4677200000000 1.0
C      1  0.4103710000000  0.5004730000000  0.4149570000000 1.0
C      1  0.6237100000000  0.4770440000000  0.5267440000000 1.0
C      1  0.4137500000000  0.4716460000000  0.4197510000000 1.0
C      1  0.4722040000000  0.4762520000000  0.4710580000000 1.0
C      1  0.6143690000000  0.5066020000000  0.4904600000000 1.0
C      1  0.6161780000000  0.4463310000000  0.5597210000000 1.0
C      1  0.5495880000000  0.5790500000000  0.4636730000000 1.0
C      1  0.5929350000000  0.5429110000000  0.5349090000000 1.0
C      1  0.4403350000000  0.5895050000000  0.5796580000000 1.0
C      1  0.5474150000000  0.5201220000000  0.5268290000000 1.0
C      1  0.4346700000000  0.4142010000000  0.4766760000000 1.0
C      1  0.4739250000000  0.4967900000000  0.3797540000000 1.0
C      1  0.4145000000000  0.5412160000000  0.4517790000000 1.0
C      1  0.6149950000000  0.4749810000000  0.5555260000000 1.0
C      1  0.4289440000000  0.4543640000000  0.5020050000000 1.0
C      1  0.4343240000000  0.5349010000000  0.5569290000000 1.0
C      1  0.4000930000000  0.4757310000000  0.5668940000000 1.0
C      1  0.5589300000000  0.6025660000000  0.4509330000000 1.0
C      1  0.4861560000000  0.5638840000000  0.5334400000000 1.0
C      1  0.4433870000000  0.5317460000000  0.5849480000000 1.0
C      1  0.4084600000000  0.4239190000000  0.4646230000000 1.0
C      1  0.4850570000000  0.4377380000000  0.4052880000000 1.0
C      1  0.5745730000000  0.4173930000000  0.6043770000000 1.0
C      1  0.6220810000000  0.5044360000000  0.5182490000000 1.0
C      1  0.4454840000000  0.3934940000000  0.5232580000000 1.0
C      1  0.4983800000000  0.5676210000000  0.4047200000000 1.0
C      1  0.5575860000000  0.3893640000000  0.5214700000000 1.0
C      1  0.4702820000000  0.5706500000000  0.4895180000000 1.0
C      1  0.4050910000000  0.5856620000000  0.4369950000000 1.0
END
