TITL C-599891-72-86 0.0076987470748998 125000 -1097.23988505731 0 0 178 (C1) n - 1
REM
REM in /home/nfs/bkarasulu/CARBON/AIRSS/Generating-Clusters/TERSOFF/Only-C1/FIRE-HFTN
REM
REM
REM
REM
REM
REM ./C.cell (11c1c37f851c82e70ff6c80c92926a4b)
REM AIRSS Version 0.9.1 bugfix July 2018 build 013d7b7c2542+ Fri, 06 Jul 2018 19:26:36 +0100
REM compiler GCC version 9.2.1 20190827 (Red Hat 9.2.1-1)
REM options -cpp -mtune=generic -march=x86-64 -g -O0 -fpre-include=/usr/include/finclude/math-vector-fortran.h
REM seed -1771417026 -1221128544 2096841949 -333223504 -1641651617 374076075 -451773013 1457935775 -1234580915 1284166931 928342086 -1320506208 775144216 168781004 1648042320 -1841562177 -1337416943 377483394 -1704746978 -1241188727 -268251476 -1629025568 396229327 1296261004 -492313310 2067937119 82722485 -683922152 657346310 2066603691 1027855622 36322882 532283628
REM
CELL 1.54180   50.00000   50.00000   50.00000   90.00000   90.00000   90.00000
LATT -1
SFAC C  
C      1  0.5931430000000  0.5460470000000  0.5000800000000 1.0
C      1  0.5695350000000  0.4315910000000  0.5703010000000 1.0
C      1  0.4959100000000  0.4209780000000  0.5967840000000 1.0
C      1  0.4295430000000  0.5204010000000  0.5806410000000 1.0
C      1  0.5539440000000  0.5118980000000  0.5483190000000 1.0
C      1  0.5101800000000  0.6053340000000  0.4178840000000 1.0
C      1  0.5125670000000  0.6124690000000  0.5535380000000 1.0
C      1  0.4778690000000  0.4641810000000  0.4933210000000 1.0
C      1  0.4514590000000  0.4526890000000  0.5689010000000 1.0
C      1  0.5389590000000  0.5740110000000  0.5227640000000 1.0
C      1  0.5641900000000  0.5809100000000  0.5180930000000 1.0
C      1  0.4522870000000  0.5318610000000  0.5320730000000 1.0
C      1  0.5132560000000  0.5445970000000  0.4086380000000 1.0
C      1  0.5325250000000  0.4740670000000  0.6003900000000 1.0
C      1  0.5426430000000  0.3902730000000  0.5695410000000 1.0
C      1  0.5244960000000  0.4684130000000  0.5212100000000 1.0
C      1  0.4792180000000  0.5147730000000  0.4907980000000 1.0
C      1  0.5540970000000  0.5413510000000  0.6010140000000 1.0
C      1  0.3932460000000  0.5045340000000  0.4848660000000 1.0
C      1  0.5676280000000  0.4341770000000  0.3932240000000 1.0
C      1  0.5253830000000  0.4507950000000  0.6152050000000 1.0
C      1  0.5564460000000  0.4161620000000  0.4118360000000 1.0
C      1  0.5210810000000  0.3732440000000  0.5271080000000 1.0
C      1  0.4976540000000  0.3345370000000  0.5075870000000 1.0
C      1  0.4534210000000  0.5942290000000  0.5713290000000 1.0
C      1  0.5215350000000  0.4688230000000  0.4401490000000 1.0
C      1  0.5111470000000  0.6222530000000  0.5287680000000 1.0
C      1  0.6061640000000  0.4639460000000  0.4971370000000 1.0
C      1  0.4220810000000  0.4301960000000  0.4723190000000 1.0
C      1  0.4484820000000  0.5240940000000  0.4041340000000 1.0
C      1  0.4403550000000  0.6281450000000  0.5050810000000 1.0
C      1  0.5235860000000  0.4986660000000  0.6119310000000 1.0
C      1  0.5254230000000  0.4261390000000  0.5983700000000 1.0
C      1  0.4401850000000  0.4922850000000  0.4538240000000 1.0
C      1  0.4564640000000  0.5112510000000  0.5852730000000 1.0
C      1  0.6289730000000  0.4856190000000  0.5376520000000 1.0
C      1  0.4241100000000  0.5419190000000  0.4428750000000 1.0
C      1  0.4466950000000  0.5426490000000  0.4253610000000 1.0
C      1  0.4974410000000  0.3601230000000  0.5169590000000 1.0
C      1  0.6138230000000  0.4479180000000  0.5925030000000 1.0
C      1  0.4640380000000  0.4162330000000  0.4424200000000 1.0
C      1  0.5746330000000  0.4433110000000  0.5439910000000 1.0
C      1  0.6284650000000  0.4682100000000  0.5833110000000 1.0
C      1  0.5035760000000  0.5265960000000  0.3364820000000 1.0
C      1  0.5636510000000  0.5011170000000  0.5004830000000 1.0
C      1  0.6132130000000  0.4799130000000  0.4749650000000 1.0
C      1  0.4765180000000  0.5365400000000  0.5451990000000 1.0
C      1  0.5164350000000  0.4939800000000  0.5127480000000 1.0
C      1  0.4944810000000  0.4192570000000  0.4773220000000 1.0
C      1  0.4924810000000  0.5019190000000  0.4068600000000 1.0
C      1  0.5900850000000  0.4264430000000  0.3794630000000 1.0
C      1  0.5087580000000  0.4298140000000  0.5428580000000 1.0
C      1  0.5138470000000  0.6193520000000  0.5024100000000 1.0
C      1  0.5067230000000  0.4445040000000  0.4402470000000 1.0
C      1  0.4153670000000  0.4895210000000  0.4967060000000 1.0
C      1  0.4596110000000  0.4583710000000  0.5961290000000 1.0
C      1  0.5111970000000  0.5184330000000  0.4195390000000 1.0
C      1  0.5678030000000  0.4409640000000  0.4756940000000 1.0
C      1  0.5503450000000  0.4846700000000  0.3767710000000 1.0
C      1  0.5399690000000  0.5534910000000  0.4041400000000 1.0
C      1  0.4791050000000  0.4418550000000  0.6092910000000 1.0
C      1  0.4193010000000  0.4205330000000  0.5457710000000 1.0
C      1  0.6038770000000  0.5235770000000  0.4463820000000 1.0
C      1  0.5209400000000  0.5861110000000  0.4604640000000 1.0
C      1  0.5170000000000  0.4596630000000  0.5495670000000 1.0
C      1  0.4945630000000  0.4780670000000  0.5554780000000 1.0
C      1  0.6518220000000  0.4922260000000  0.5241020000000 1.0
C      1  0.5355930000000  0.4675170000000  0.5724780000000 1.0
C      1  0.4305040000000  0.4220530000000  0.4990810000000 1.0
C      1  0.4587730000000  0.4869210000000  0.6007430000000 1.0
C      1  0.5396680000000  0.4423890000000  0.4794220000000 1.0
C      1  0.4869630000000  0.4112530000000  0.5477750000000 1.0
C      1  0.4740110000000  0.3763230000000  0.5175860000000 1.0
C      1  0.4252040000000  0.5572510000000  0.4669310000000 1.0
C      1  0.4964060000000  0.5521300000000  0.3387920000000 1.0
C      1  0.4008510000000  0.4847780000000  0.5668000000000 1.0
C      1  0.3787100000000  0.5228340000000  0.5020330000000 1.0
C      1  0.6274230000000  0.4901180000000  0.5658530000000 1.0
C      1  0.4660120000000  0.4894290000000  0.4909190000000 1.0
C      1  0.5216560000000  0.5668110000000  0.5768290000000 1.0
C      1  0.4122020000000  0.5899420000000  0.5174990000000 1.0
C      1  0.5334370000000  0.5417060000000  0.5813650000000 1.0
C      1  0.3735530000000  0.5125180000000  0.5292690000000 1.0
C      1  0.4716410000000  0.5556070000000  0.4322800000000 1.0
C      1  0.5190290000000  0.6059700000000  0.4799930000000 1.0
C      1  0.4676820000000  0.5064840000000  0.3975710000000 1.0
C      1  0.5808730000000  0.5377310000000  0.6008300000000 1.0
C      1  0.5611780000000  0.5091970000000  0.3856130000000 1.0
C      1  0.4123870000000  0.4688540000000  0.4218240000000 1.0
C      1  0.5168460000000  0.5921990000000  0.5703230000000 1.0
C      1  0.4582000000000  0.4218260000000  0.5075150000000 1.0
C      1  0.5193320000000  0.4275940000000  0.4626770000000 1.0
C      1  0.5482040000000  0.4017530000000  0.4328610000000 1.0
C      1  0.5885120000000  0.4410310000000  0.4950340000000 1.0
C      1  0.5097250000000  0.5601950000000  0.4636110000000 1.0
C      1  0.4030700000000  0.5226080000000  0.4411310000000 1.0
C      1  0.5499780000000  0.4912650000000  0.4772430000000 1.0
C      1  0.6113820000000  0.5004340000000  0.4577450000000 1.0
C      1  0.5620900000000  0.4924590000000  0.5286180000000 1.0
C      1  0.4911590000000  0.5407480000000  0.6173170000000 1.0
C      1  0.4924340000000  0.5754960000000  0.3509680000000 1.0
C      1  0.4529280000000  0.6381650000000  0.4838480000000 1.0
C      1  0.4364790000000  0.4624280000000  0.4114490000000 1.0
C      1  0.5569070000000  0.5350780000000  0.3911120000000 1.0
C      1  0.4267010000000  0.4452070000000  0.5569720000000 1.0
C      1  0.5316590000000  0.4455830000000  0.5059840000000 1.0
C      1  0.4781200000000  0.4362850000000  0.4933350000000 1.0
C      1  0.5922280000000  0.5470700000000  0.4406590000000 1.0
C      1  0.5313980000000  0.3943290000000  0.5104170000000 1.0
C      1  0.5941710000000  0.5289830000000  0.5776220000000 1.0
C      1  0.3891990000000  0.5268570000000  0.5495470000000 1.0
C      1  0.5765670000000  0.5276360000000  0.5556830000000 1.0
C      1  0.5350720000000  0.4020810000000  0.4577170000000 1.0
C      1  0.5498580000000  0.5733430000000  0.4225540000000 1.0
C      1  0.5071620000000  0.5189750000000  0.6191980000000 1.0
C      1  0.6066640000000  0.4744180000000  0.5241480000000 1.0
C      1  0.4794850000000  0.4015940000000  0.4608560000000 1.0
C      1  0.4641950000000  0.6532630000000  0.4629730000000 1.0
C      1  0.3989330000000  0.4725730000000  0.4468730000000 1.0
C      1  0.4423710000000  0.5066930000000  0.5331270000000 1.0
C      1  0.5259800000000  0.4211310000000  0.5200980000000 1.0
C      1  0.4956690000000  0.3888820000000  0.5635350000000 1.0
C      1  0.5389880000000  0.3891150000000  0.4831150000000 1.0
C      1  0.3828440000000  0.5521920000000  0.5079350000000 1.0
C      1  0.5464210000000  0.4164790000000  0.5803410000000 1.0
C      1  0.4437430000000  0.5501360000000  0.4880110000000 1.0
C      1  0.4791360000000  0.4383350000000  0.4302630000000 1.0
C      1  0.4762740000000  0.5608240000000  0.6069140000000 1.0
C      1  0.4685560000000  0.5389080000000  0.4790900000000 1.0
C      1  0.5823790000000  0.4283190000000  0.5203880000000 1.0
C      1  0.4579210000000  0.6798520000000  0.4607900000000 1.0
C      1  0.4635910000000  0.5781940000000  0.5905340000000 1.0
C      1  0.4197770000000  0.5653550000000  0.5306860000000 1.0
C      1  0.4302500000000  0.6107340000000  0.5245470000000 1.0
C      1  0.3933900000000  0.5783360000000  0.4974480000000 1.0
C      1  0.4951060000000  0.5881140000000  0.4007970000000 1.0
C      1  0.5308220000000  0.4870850000000  0.3566260000000 1.0
C      1  0.4108260000000  0.4670200000000  0.5475420000000 1.0
C      1  0.5746340000000  0.5664210000000  0.4344430000000 1.0
C      1  0.4989550000000  0.5387330000000  0.5272980000000 1.0
C      1  0.4909770000000  0.5622000000000  0.4119360000000 1.0
C      1  0.5246220000000  0.5154040000000  0.4444640000000 1.0
C      1  0.4621880000000  0.4547050000000  0.4144360000000 1.0
C      1  0.5266220000000  0.5378890000000  0.4612130000000 1.0
C      1  0.5569020000000  0.4597700000000  0.3880660000000 1.0
C      1  0.4693940000000  0.4664910000000  0.5517650000000 1.0
C      1  0.5165220000000  0.5600410000000  0.5248960000000 1.0
C      1  0.4029890000000  0.4504290000000  0.4651370000000 1.0
C      1  0.3931490000000  0.5002530000000  0.4561190000000 1.0
C      1  0.4397290000000  0.5511070000000  0.5165580000000 1.0
C      1  0.4047620000000  0.5127220000000  0.5685880000000 1.0
C      1  0.5148680000000  0.5033020000000  0.3427160000000 1.0
C      1  0.5804190000000  0.4715280000000  0.5369010000000 1.0
C      1  0.4917490000000  0.5903920000000  0.3731370000000 1.0
C      1  0.6180380000000  0.5147170000000  0.5756960000000 1.0
C      1  0.4432530000000  0.6073430000000  0.5499960000000 1.0
C      1  0.5817790000000  0.5223090000000  0.4963240000000 1.0
C      1  0.4371820000000  0.4197030000000  0.4505220000000 1.0
C      1  0.5302840000000  0.5916830000000  0.4337540000000 1.0
C      1  0.3956900000000  0.5508650000000  0.5357860000000 1.0
C      1  0.5333790000000  0.4904860000000  0.4539000000000 1.0
C      1  0.4693740000000  0.4032220000000  0.5261230000000 1.0
C      1  0.3907090000000  0.3974220000000  0.5137430000000 1.0
C      1  0.5294930000000  0.5179850000000  0.5640000000000 1.0
C      1  0.4817620000000  0.6417380000000  0.4443100000000 1.0
C      1  0.5008410000000  0.5168690000000  0.5089790000000 1.0
C      1  0.4396950000000  0.4897260000000  0.4810780000000 1.0
C      1  0.4048670000000  0.5761400000000  0.4717860000000 1.0
C      1  0.4792660000000  0.5207740000000  0.5690460000000 1.0
C      1  0.5869090000000  0.5705010000000  0.5087490000000 1.0
C      1  0.4989070000000  0.4532660000000  0.6273910000000 1.0
C      1  0.4981360000000  0.6286390000000  0.4278710000000 1.0
C      1  0.5910510000000  0.4346960000000  0.5883780000000 1.0
C      1  0.4110540000000  0.4740900000000  0.5200490000000 1.0
C      1  0.5025710000000  0.5042130000000  0.5649720000000 1.0
C      1  0.4821910000000  0.5538170000000  0.4591020000000 1.0
C      1  0.5211520000000  0.3784200000000  0.5556070000000 1.0
C      1  0.4125330000000  0.4127780000000  0.5193260000000 1.0
END
