TITL C-599895-9959-1440 -7.4683186309072 125000 -1235.70451476695 0 0 200 (C1) n - 1
REM
REM in /home/nfs/bkarasulu/CARBON/AIRSS/Generating-Clusters/TERSOFF/Only-C1/FIRE-HFTN
REM
REM
REM
REM
REM
REM ./C.cell (11c1c37f851c82e70ff6c80c92926a4b)
REM AIRSS Version 0.9.1 bugfix July 2018 build 013d7b7c2542+ Fri, 06 Jul 2018 19:26:36 +0100
REM compiler GCC version 9.2.1 20190827 (Red Hat 9.2.1-1)
REM options -cpp -mtune=generic -march=x86-64 -g -O0 -fpre-include=/usr/include/finclude/math-vector-fortran.h
REM seed -1409362793 -1509495416 -2041731423 -1022643670 -1124374077 1064717713 726470418 1720953129 -763648751 369544402 2073831130 -1459139530 -1265889334 878067870 903486653 788853245 190673726 509005968 -1186044 -614370125 -773207890 -1459352247 -1857006956 232951070 -2141188401 930733524 542920141 1164236301 -1967798083 428683765 17691378 273205256 -439342754
REM
CELL 1.54180   50.00000   50.00000   50.00000   90.00000   90.00000   90.00000
LATT -1
SFAC C  
C      1  0.4325660000000  0.4979260000000  0.3984220000000 1.0
C      1  0.4171960000000  0.4841080000000  0.4696290000000 1.0
C      1  0.4696120000000  0.6107230000000  0.5106890000000 1.0
C      1  0.5096290000000  0.5282540000000  0.4727090000000 1.0
C      1  0.4519660000000  0.5009100000000  0.3777590000000 1.0
C      1  0.5268190000000  0.4353380000000  0.5590080000000 1.0
C      1  0.4481310000000  0.5370290000000  0.5500240000000 1.0
C      1  0.5621900000000  0.4183660000000  0.4313860000000 1.0
C      1  0.4866300000000  0.4786630000000  0.6298040000000 1.0
C      1  0.4787110000000  0.4974810000000  0.3753310000000 1.0
C      1  0.5783160000000  0.5616520000000  0.5328610000000 1.0
C      1  0.5675050000000  0.5038970000000  0.5828650000000 1.0
C      1  0.4992190000000  0.4303250000000  0.3967020000000 1.0
C      1  0.3965420000000  0.5749870000000  0.4900280000000 1.0
C      1  0.6163810000000  0.5245440000000  0.4383540000000 1.0
C      1  0.5521200000000  0.5355030000000  0.4519120000000 1.0
C      1  0.4381160000000  0.4623240000000  0.6044190000000 1.0
C      1  0.4988060000000  0.5289510000000  0.4470090000000 1.0
C      1  0.4671030000000  0.5451930000000  0.4908740000000 1.0
C      1  0.5095420000000  0.6046120000000  0.5922440000000 1.0
C      1  0.5460440000000  0.4607600000000  0.4742970000000 1.0
C      1  0.4389310000000  0.5582890000000  0.6094000000000 1.0
C      1  0.5338090000000  0.4160100000000  0.5150040000000 1.0
C      1  0.5379930000000  0.5188310000000  0.5512500000000 1.0
C      1  0.4787950000000  0.4507960000000  0.4041850000000 1.0
C      1  0.3654150000000  0.5219190000000  0.4585120000000 1.0
C      1  0.4137110000000  0.4510070000000  0.4256880000000 1.0
C      1  0.5499010000000  0.5263840000000  0.5032060000000 1.0
C      1  0.5922920000000  0.5314450000000  0.4257550000000 1.0
C      1  0.6196200000000  0.5601300000000  0.4901600000000 1.0
C      1  0.4596360000000  0.4467390000000  0.5634860000000 1.0
C      1  0.4732990000000  0.5662280000000  0.4734410000000 1.0
C      1  0.4152920000000  0.5966170000000  0.5413040000000 1.0
C      1  0.5471450000000  0.4539480000000  0.4036430000000 1.0
C      1  0.4394230000000  0.5114380000000  0.5574290000000 1.0
C      1  0.5069200000000  0.5414740000000  0.5177990000000 1.0
C      1  0.5437000000000  0.4880060000000  0.5485390000000 1.0
C      1  0.4887330000000  0.4940220000000  0.5484420000000 1.0
C      1  0.5193540000000  0.5220350000000  0.5772740000000 1.0
C      1  0.3891810000000  0.4795140000000  0.5655270000000 1.0
C      1  0.4023510000000  0.4867270000000  0.5413200000000 1.0
C      1  0.4925290000000  0.5334610000000  0.4952680000000 1.0
C      1  0.5016190000000  0.4947160000000  0.3892810000000 1.0
C      1  0.4405190000000  0.4219790000000  0.4045940000000 1.0
C      1  0.4655130000000  0.4532590000000  0.5072900000000 1.0
C      1  0.4287610000000  0.4955200000000  0.5364040000000 1.0
C      1  0.5648870000000  0.5679090000000  0.3983800000000 1.0
C      1  0.3658520000000  0.4502270000000  0.4354550000000 1.0
C      1  0.4389770000000  0.5860830000000  0.6042490000000 1.0
C      1  0.5134390000000  0.5676000000000  0.4116210000000 1.0
C      1  0.6081010000000  0.5240580000000  0.5474570000000 1.0
C      1  0.5149780000000  0.6231580000000  0.4692460000000 1.0
C      1  0.5783290000000  0.4552110000000  0.5598740000000 1.0
C      1  0.4823400000000  0.5705590000000  0.5435950000000 1.0
C      1  0.6012920000000  0.4646800000000  0.4540940000000 1.0
C      1  0.5312930000000  0.4857530000000  0.6149250000000 1.0
C      1  0.5042830000000  0.4934470000000  0.5244970000000 1.0
C      1  0.3854000000000  0.5104780000000  0.4424910000000 1.0
C      1  0.5376830000000  0.5283790000000  0.4753510000000 1.0
C      1  0.4818500000000  0.4090240000000  0.4816890000000 1.0
C      1  0.5815900000000  0.4675700000000  0.4343350000000 1.0
C      1  0.6265990000000  0.5359330000000  0.5031460000000 1.0
C      1  0.5639280000000  0.4071190000000  0.5681830000000 1.0
C      1  0.5842340000000  0.4836110000000  0.5697040000000 1.0
C      1  0.4640470000000  0.4026750000000  0.4576060000000 1.0
C      1  0.5267140000000  0.6342910000000  0.4947550000000 1.0
C      1  0.5378000000000  0.5561180000000  0.6099600000000 1.0
C      1  0.5418460000000  0.5682730000000  0.4147570000000 1.0
C      1  0.4916150000000  0.5196450000000  0.5632470000000 1.0
C      1  0.4887840000000  0.4057380000000  0.4086770000000 1.0
C      1  0.6038590000000  0.4957600000000  0.5499330000000 1.0
C      1  0.4787600000000  0.5371180000000  0.4042750000000 1.0
C      1  0.4755050000000  0.4702180000000  0.5584740000000 1.0
C      1  0.4510790000000  0.4483860000000  0.3973110000000 1.0
C      1  0.5007890000000  0.5719530000000  0.4664100000000 1.0
C      1  0.5662920000000  0.5821940000000  0.3751690000000 1.0
C      1  0.6116560000000  0.4666400000000  0.4788300000000 1.0
C      1  0.5239080000000  0.5845830000000  0.5177530000000 1.0
C      1  0.5434450000000  0.4817550000000  0.4105140000000 1.0
C      1  0.4854610000000  0.3900650000000  0.5023080000000 1.0
C      1  0.3881250000000  0.5006420000000  0.5853760000000 1.0
C      1  0.5032150000000  0.4825090000000  0.4656960000000 1.0
C      1  0.4499760000000  0.5867220000000  0.4389330000000 1.0
C      1  0.6169600000000  0.4850460000000  0.5000990000000 1.0
C      1  0.3905550000000  0.4514030000000  0.5704700000000 1.0
C      1  0.5448090000000  0.5616310000000  0.4426770000000 1.0
C      1  0.5101070000000  0.4680280000000  0.6190380000000 1.0
C      1  0.6092570000000  0.4773420000000  0.5275870000000 1.0
C      1  0.5274660000000  0.5228930000000  0.5243140000000 1.0
C      1  0.4406160000000  0.4945360000000  0.5104320000000 1.0
C      1  0.4368120000000  0.4625360000000  0.4680440000000 1.0
C      1  0.5692860000000  0.3868600000000  0.5006300000000 1.0
C      1  0.4907220000000  0.3683100000000  0.5197560000000 1.0
C      1  0.4984890000000  0.4029150000000  0.5816280000000 1.0
C      1  0.3957920000000  0.4856000000000  0.4511790000000 1.0
C      1  0.5175990000000  0.4630290000000  0.4827470000000 1.0
C      1  0.4662200000000  0.6095440000000  0.4811120000000 1.0
C      1  0.4176270000000  0.4388300000000  0.5057440000000 1.0
C      1  0.6267910000000  0.5142370000000  0.4608100000000 1.0
C      1  0.4154690000000  0.5421170000000  0.6064980000000 1.0
C      1  0.4769700000000  0.6015790000000  0.4319120000000 1.0
C      1  0.4965770000000  0.3806030000000  0.5670160000000 1.0
C      1  0.4008040000000  0.5269590000000  0.4256810000000 1.0
C      1  0.5148930000000  0.5466440000000  0.5965840000000 1.0
C      1  0.6283370000000  0.5341520000000  0.5310270000000 1.0
C      1  0.4535670000000  0.5859920000000  0.4680020000000 1.0
C      1  0.5643490000000  0.5269890000000  0.5639910000000 1.0
C      1  0.4408190000000  0.4464040000000  0.4921890000000 1.0
C      1  0.5806010000000  0.4123310000000  0.5102720000000 1.0
C      1  0.5075650000000  0.3713500000000  0.5428490000000 1.0
C      1  0.5034100000000  0.5413560000000  0.4205470000000 1.0
C      1  0.5682020000000  0.3869450000000  0.4715580000000 1.0
C      1  0.4098830000000  0.5172130000000  0.5941010000000 1.0
C      1  0.5859830000000  0.5967570000000  0.4714750000000 1.0
C      1  0.4667390000000  0.4968240000000  0.6224860000000 1.0
C      1  0.5275160000000  0.5782160000000  0.4582190000000 1.0
C      1  0.4637370000000  0.5902590000000  0.5312910000000 1.0
C      1  0.4897340000000  0.5603660000000  0.6023690000000 1.0
C      1  0.4610640000000  0.4692320000000  0.4542430000000 1.0
C      1  0.5562390000000  0.4348820000000  0.4767000000000 1.0
C      1  0.3956620000000  0.6113200000000  0.5501130000000 1.0
C      1  0.3954000000000  0.5476740000000  0.4879840000000 1.0
C      1  0.4649170000000  0.5173760000000  0.4194280000000 1.0
C      1  0.4873710000000  0.6171700000000  0.4593410000000 1.0
C      1  0.5362060000000  0.6048090000000  0.4612330000000 1.0
C      1  0.4751220000000  0.5440540000000  0.5561240000000 1.0
C      1  0.4841890000000  0.6332350000000  0.5199640000000 1.0
C      1  0.4823070000000  0.4589970000000  0.4330640000000 1.0
C      1  0.6001260000000  0.4262850000000  0.5243660000000 1.0
C      1  0.4468790000000  0.4888500000000  0.6041900000000 1.0
C      1  0.4189830000000  0.5317330000000  0.4903520000000 1.0
C      1  0.5543980000000  0.6237230000000  0.4998550000000 1.0
C      1  0.4671840000000  0.5632350000000  0.4027300000000 1.0
C      1  0.3708800000000  0.5361790000000  0.4805610000000 1.0
C      1  0.4795380000000  0.3438360000000  0.5145170000000 1.0
C      1  0.4884870000000  0.4396570000000  0.5211650000000 1.0
C      1  0.5110510000000  0.4280650000000  0.5820920000000 1.0
C      1  0.5977590000000  0.4515550000000  0.5368680000000 1.0
C      1  0.3904380000000  0.4616860000000  0.4372560000000 1.0
C      1  0.4882430000000  0.5838850000000  0.4107500000000 1.0
C      1  0.4136140000000  0.4348560000000  0.5687240000000 1.0
C      1  0.5055110000000  0.5671550000000  0.5284770000000 1.0
C      1  0.5446300000000  0.5748150000000  0.5036760000000 1.0
C      1  0.5683950000000  0.6132500000000  0.5229230000000 1.0
C      1  0.5671030000000  0.5028520000000  0.4991660000000 1.0
C      1  0.5412120000000  0.4098380000000  0.4132750000000 1.0
C      1  0.4530650000000  0.4230610000000  0.5478050000000 1.0
C      1  0.4126340000000  0.3941170000000  0.5001450000000 1.0
C      1  0.4937470000000  0.4339520000000  0.4462140000000 1.0
C      1  0.5531920000000  0.3831290000000  0.5609080000000 1.0
C      1  0.5588740000000  0.5651480000000  0.6223530000000 1.0
C      1  0.5850720000000  0.5406300000000  0.5509850000000 1.0
C      1  0.5626750000000  0.4128950000000  0.4590910000000 1.0
C      1  0.5184020000000  0.4734500000000  0.5112300000000 1.0
C      1  0.4689250000000  0.5239980000000  0.6278580000000 1.0
C      1  0.4352600000000  0.4069100000000  0.4530170000000 1.0
C      1  0.5427620000000  0.3874210000000  0.5150690000000 1.0
C      1  0.5359030000000  0.3749860000000  0.5395860000000 1.0
C      1  0.4260280000000  0.4237170000000  0.4297950000000 1.0
C      1  0.4185510000000  0.3957570000000  0.4734870000000 1.0
C      1  0.5694390000000  0.4447270000000  0.4215310000000 1.0
C      1  0.4228980000000  0.5037130000000  0.4892230000000 1.0
C      1  0.4366850000000  0.5529770000000  0.5295310000000 1.0
C      1  0.5041720000000  0.4797590000000  0.4367790000000 1.0
C      1  0.5866820000000  0.5519600000000  0.4072870000000 1.0
C      1  0.5405230000000  0.5034480000000  0.5960090000000 1.0
C      1  0.5575080000000  0.4286390000000  0.5041130000000 1.0
C      1  0.5650680000000  0.4912770000000  0.4277320000000 1.0
C      1  0.5616680000000  0.5533960000000  0.5107920000000 1.0
C      1  0.4992690000000  0.4326380000000  0.4741200000000 1.0
C      1  0.4239460000000  0.4176460000000  0.5465150000000 1.0
C      1  0.4413420000000  0.5442890000000  0.5027660000000 1.0
C      1  0.5614470000000  0.6101660000000  0.4744860000000 1.0
C      1  0.4654780000000  0.4822130000000  0.5015260000000 1.0
C      1  0.4760100000000  0.4857390000000  0.4745670000000 1.0
C      1  0.4346300000000  0.5056480000000  0.5848700000000 1.0
C      1  0.4821390000000  0.4091030000000  0.4358060000000 1.0
C      1  0.5278780000000  0.4323450000000  0.3992060000000 1.0
C      1  0.5150250000000  0.4300350000000  0.5319830000000 1.0
C      1  0.5100330000000  0.4440250000000  0.6048880000000 1.0
C      1  0.5567170000000  0.4348110000000  0.5634680000000 1.0
C      1  0.4425540000000  0.5636550000000  0.4189170000000 1.0
C      1  0.4370010000000  0.4465970000000  0.5817990000000 1.0
C      1  0.4879230000000  0.5888840000000  0.5977620000000 1.0
C      1  0.6250820000000  0.5111700000000  0.4890700000000 1.0
C      1  0.5689060000000  0.5182540000000  0.4361380000000 1.0
C      1  0.6054030000000  0.5795330000000  0.4782910000000 1.0
C      1  0.4303610000000  0.4688200000000  0.4069680000000 1.0
C      1  0.4368600000000  0.5810650000000  0.5337100000000 1.0
C      1  0.4617630000000  0.5996890000000  0.5990930000000 1.0
C      1  0.5790280000000  0.5906800000000  0.5347770000000 1.0
C      1  0.5084280000000  0.6431890000000  0.5140860000000 1.0
C      1  0.5411830000000  0.4705440000000  0.5281160000000 1.0
C      1  0.4140730000000  0.4146970000000  0.5199800000000 1.0
C      1  0.5720910000000  0.3641810000000  0.4569270000000 1.0
C      1  0.5164940000000  0.4889900000000  0.4128140000000 1.0
C      1  0.4246350000000  0.5321800000000  0.4134500000000 1.0
C      1  0.4733810000000  0.5160990000000  0.4449700000000 1.0
C      1  0.4659320000000  0.5477840000000  0.6135670000000 1.0
C      1  0.5625580000000  0.4821370000000  0.4825550000000 1.0
END
