TITL C-599890-3321-1008 23174.0338094846 125000 -1211.77908639139 0 0 196 (C1) n - 1
REM
REM in /home/nfs/bkarasulu/CARBON/AIRSS/Generating-Clusters/TERSOFF/Only-C1/FIRE-HFTN
REM
REM
REM
REM
REM
REM ./C.cell (11c1c37f851c82e70ff6c80c92926a4b)
REM AIRSS Version 0.9.1 bugfix July 2018 build 013d7b7c2542+ Fri, 06 Jul 2018 19:26:36 +0100
REM compiler GCC version 9.2.1 20190827 (Red Hat 9.2.1-1)
REM options -cpp -mtune=generic -march=x86-64 -g -O0 -fpre-include=/usr/include/finclude/math-vector-fortran.h
REM seed -1471168818 49481827 -695683412 87005629 -1158433181 -1514693494 -1022551601 52540615 564575966 -32915986 -320024953 -1935187174 -549684968 -720448346 1584542723 -189362317 -1154232626 1101136231 918335203 -1359146934 1265851591 440949531 733617830 379950485 1048828173 1272711392 386272282 -1011441120 799055334 1398831328 -901037193 -1077999101 327863011
REM
CELL 1.54180   50.00000   50.00000   50.00000   90.00000   90.00000   90.00000
LATT -1
SFAC C  
C      1  0.4656310000000  0.5592490000000  0.5854000000000 1.0
C      1  0.4565180000000  0.6196910000000  0.4796000000000 1.0
C      1  0.5631220000000  0.5583510000000  0.5450170000000 1.0
C      1  0.5816410000000  0.3969010000000  0.4632760000000 1.0
C      1  0.5287430000000  0.5220960000000  0.3829310000000 1.0
C      1  0.5508280000000  0.3926360000000  0.5585900000000 1.0
C      1  0.4273040000000  0.5315600000000  0.3862090000000 1.0
C      1  0.3942420000000  0.5580280000000  0.5066330000000 1.0
C      1  0.3851240000000  0.5021690000000  0.4685870000000 1.0
C      1  0.5443940000000  0.5339900000000  0.5645470000000 1.0
C      1  0.5519740000000  0.5090200000000  0.4707270000000 1.0
C      1  0.4654680000000  0.5382420000000  0.4341300000000 1.0
C      1  0.4602850000000  0.6107190000000  0.5279510000000 1.0
C      1  0.5530180000000  0.5338550000000  0.3940910000000 1.0
C      1  0.6008620000000  0.4438170000000  0.5400030000000 1.0
C      1  0.5181850000000  0.4711640000000  0.4888790000000 1.0
C      1  0.5473940000000  0.5656190000000  0.5208800000000 1.0
C      1  0.4421110000000  0.4279470000000  0.5914050000000 1.0
C      1  0.4724170000000  0.4696830000000  0.3904110000000 1.0
C      1  0.5975900000000  0.5545860000000  0.5033860000000 1.0
C      1  0.5756190000000  0.4780210000000  0.6232520000000 1.0
C      1  0.4352120000000  0.5758300000000  0.4872430000000 1.0
C      1  0.5934210000000  0.5963070000000  0.5599330000000 1.0
C      1  0.4396370000000  0.4503090000000  0.5742050000000 1.0
C      1  0.5447150000000  0.4351200000000  0.5081470000000 1.0
C      1  0.5096770000000  0.6048830000000  0.4777670000000 1.0
C      1  0.4782240000000  0.3966780000000  0.5387770000000 1.0
C      1  0.5675840000000  0.4721530000000  0.4930650000000 1.0
C      1  0.6094210000000  0.4175170000000  0.5477410000000 1.0
C      1  0.4531960000000  0.4548520000000  0.5130820000000 1.0
C      1  0.5062500000000  0.4145040000000  0.5053150000000 1.0
C      1  0.5985230000000  0.4406640000000  0.4841060000000 1.0
C      1  0.4481150000000  0.4793730000000  0.5831760000000 1.0
C      1  0.4637520000000  0.4974920000000  0.5622640000000 1.0
C      1  0.5506370000000  0.4895490000000  0.4504590000000 1.0
C      1  0.4216700000000  0.5559570000000  0.5021480000000 1.0
C      1  0.5000360000000  0.4012400000000  0.4424500000000 1.0
C      1  0.5647530000000  0.4575380000000  0.3961570000000 1.0
C      1  0.5112550000000  0.5738420000000  0.4291170000000 1.0
C      1  0.5875560000000  0.4733650000000  0.4043360000000 1.0
C      1  0.5615600000000  0.5200610000000  0.4172330000000 1.0
C      1  0.5043740000000  0.5374610000000  0.3873170000000 1.0
C      1  0.3625220000000  0.4282470000000  0.4649030000000 1.0
C      1  0.4345980000000  0.4858280000000  0.4685830000000 1.0
C      1  0.5734830000000  0.5772240000000  0.4121010000000 1.0
C      1  0.4422200000000  0.4805680000000  0.5158050000000 1.0
C      1  0.4550600000000  0.5373020000000  0.3780370000000 1.0
C      1  0.5287540000000  0.4639810000000  0.5467220000000 1.0
C      1  0.5066430000000  0.5765130000000  0.4789060000000 1.0
C      1  0.3987250000000  0.5041270000000  0.4184860000000 1.0
C      1  0.5885320000000  0.5176000000000  0.4306470000000 1.0
C      1  0.4877830000000  0.4279970000000  0.4873840000000 1.0
C      1  0.5640840000000  0.4295610000000  0.4065050000000 1.0
C      1  0.4627510000000  0.4783040000000  0.6090210000000 1.0
C      1  0.5062220000000  0.5591300000000  0.4053720000000 1.0
C      1  0.4379730000000  0.4339780000000  0.5256230000000 1.0
C      1  0.5966700000000  0.5080240000000  0.5017300000000 1.0
C      1  0.4565690000000  0.4064640000000  0.5836820000000 1.0
C      1  0.5079010000000  0.4868650000000  0.6296780000000 1.0
C      1  0.4841310000000  0.5676970000000  0.5233890000000 1.0
C      1  0.4267390000000  0.4098730000000  0.4830720000000 1.0
C      1  0.4822820000000  0.3772490000000  0.4931380000000 1.0
C      1  0.5068510000000  0.6022470000000  0.4287200000000 1.0
C      1  0.5682300000000  0.5854690000000  0.5588370000000 1.0
C      1  0.5107950000000  0.4297670000000  0.4074860000000 1.0
C      1  0.5424020000000  0.4416360000000  0.5353710000000 1.0
C      1  0.5479550000000  0.5401100000000  0.5951990000000 1.0
C      1  0.5544850000000  0.4144870000000  0.5762680000000 1.0
C      1  0.4033990000000  0.4875740000000  0.5631140000000 1.0
C      1  0.4616880000000  0.6165840000000  0.4238620000000 1.0
C      1  0.5145750000000  0.5135700000000  0.4363920000000 1.0
C      1  0.5988030000000  0.5447680000000  0.5808740000000 1.0
C      1  0.5878480000000  0.5842050000000  0.4627670000000 1.0
C      1  0.4858930000000  0.4491190000000  0.6433200000000 1.0
C      1  0.5466560000000  0.6010050000000  0.5677270000000 1.0
C      1  0.5415590000000  0.4720950000000  0.3848060000000 1.0
C      1  0.5282380000000  0.6022560000000  0.5869340000000 1.0
C      1  0.5565960000000  0.5013740000000  0.5618090000000 1.0
C      1  0.4169380000000  0.4738180000000  0.4502100000000 1.0
C      1  0.5151670000000  0.5115110000000  0.6191270000000 1.0
C      1  0.5056820000000  0.4561790000000  0.5607480000000 1.0
C      1  0.4801480000000  0.5357510000000  0.5917730000000 1.0
C      1  0.5129540000000  0.4459290000000  0.6528680000000 1.0
C      1  0.4005870000000  0.4613020000000  0.5493400000000 1.0
C      1  0.5405360000000  0.4448580000000  0.4412710000000 1.0
C      1  0.5263800000000  0.5483630000000  0.5171220000000 1.0
C      1  0.4374000000000  0.5343750000000  0.5125530000000 1.0
C      1  0.3841530000000  0.4655450000000  0.5260610000000 1.0
C      1  0.4486390000000  0.4404760000000  0.4345240000000 1.0
C      1  0.4698510000000  0.5864960000000  0.5400220000000 1.0
C      1  0.4460120000000  0.4992750000000  0.4139440000000 1.0
C      1  0.5052700000000  0.4046940000000  0.4161730000000 1.0
C      1  0.4851500000000  0.5058710000000  0.4933630000000 1.0
C      1  0.5823410000000  0.5844210000000  0.4364460000000 1.0
C      1  0.5426340000000  0.5149210000000  0.6110660000000 1.0
C      1  0.4325200000000  0.6111750000000  0.5190330000000 1.0
C      1  0.5018380000000  0.5359080000000  0.6104130000000 1.0
C      1  0.5327910000000  0.4136500000000  0.4950400000000 1.0
C      1  0.5119030000000  0.5321310000000  0.4583620000000 1.0
C      1  0.5597480000000  0.4632810000000  0.4509050000000 1.0
C      1  0.4412180000000  0.3989860000000  0.4610920000000 1.0
C      1  0.4129660000000  0.5076910000000  0.6075590000000 1.0
C      1  0.5082560000000  0.3765310000000  0.4801330000000 1.0
C      1  0.4825270000000  0.4730580000000  0.6275580000000 1.0
C      1  0.5197000000000  0.5834350000000  0.6038240000000 1.0
C      1  0.4535470000000  0.5891470000000  0.3853990000000 1.0
C      1  0.5752500000000  0.3809960000000  0.5503530000000 1.0
C      1  0.5228770000000  0.5559300000000  0.6048240000000 1.0
C      1  0.4683850000000  0.4570950000000  0.4177170000000 1.0
C      1  0.4025180000000  0.5750480000000  0.4016100000000 1.0
C      1  0.4201380000000  0.4921050000000  0.5856870000000 1.0
C      1  0.4635550000000  0.5780240000000  0.5662320000000 1.0
C      1  0.3840180000000  0.4352850000000  0.4803560000000 1.0
C      1  0.4015010000000  0.5078750000000  0.5416790000000 1.0
C      1  0.4931800000000  0.4673580000000  0.4309960000000 1.0
C      1  0.5089440000000  0.5319510000000  0.5557890000000 1.0
C      1  0.5019430000000  0.6201820000000  0.5002500000000 1.0
C      1  0.5835680000000  0.4569160000000  0.5605280000000 1.0
C      1  0.5595780000000  0.5826800000000  0.5022670000000 1.0
C      1  0.4799790000000  0.5215870000000  0.3806260000000 1.0
C      1  0.4740660000000  0.6226390000000  0.5046060000000 1.0
C      1  0.6091940000000  0.5422000000000  0.5544100000000 1.0
C      1  0.3864600000000  0.4942940000000  0.5199670000000 1.0
C      1  0.4560860000000  0.4993080000000  0.4592270000000 1.0
C      1  0.5991780000000  0.4934090000000  0.4188460000000 1.0
C      1  0.4896370000000  0.4921780000000  0.3808750000000 1.0
C      1  0.5912460000000  0.5501410000000  0.5330930000000 1.0
C      1  0.4273560000000  0.5190970000000  0.5349290000000 1.0
C      1  0.5425480000000  0.4599040000000  0.4952800000000 1.0
C      1  0.4587060000000  0.4173310000000  0.4486400000000 1.0
C      1  0.5843300000000  0.4858060000000  0.5991120000000 1.0
C      1  0.5530690000000  0.4202440000000  0.4324220000000 1.0
C      1  0.5769620000000  0.5476990000000  0.5966370000000 1.0
C      1  0.4248560000000  0.4890610000000  0.4942710000000 1.0
C      1  0.5272950000000  0.4689440000000  0.6424620000000 1.0
C      1  0.4480400000000  0.4981940000000  0.5379760000000 1.0
C      1  0.4622100000000  0.5225410000000  0.5011020000000 1.0
C      1  0.4609140000000  0.5580720000000  0.4510600000000 1.0
C      1  0.5548960000000  0.3996370000000  0.4535460000000 1.0
C      1  0.4929620000000  0.4960610000000  0.4322930000000 1.0
C      1  0.4332850000000  0.6041240000000  0.4906750000000 1.0
C      1  0.4424180000000  0.6030240000000  0.4080010000000 1.0
C      1  0.6343870000000  0.5328910000000  0.5495740000000 1.0
C      1  0.4600570000000  0.5671380000000  0.4773080000000 1.0
C      1  0.6032910000000  0.5311570000000  0.4861350000000 1.0
C      1  0.5127400000000  0.5606630000000  0.4552260000000 1.0
C      1  0.3957040000000  0.4917880000000  0.4438380000000 1.0
C      1  0.5226900000000  0.4258450000000  0.6682190000000 1.0
C      1  0.4223270000000  0.5097100000000  0.4035110000000 1.0
C      1  0.5995270000000  0.3925070000000  0.5480840000000 1.0
C      1  0.4907660000000  0.4344810000000  0.5659160000000 1.0
C      1  0.4832720000000  0.5688680000000  0.4940810000000 1.0
C      1  0.5268350000000  0.3899190000000  0.5442780000000 1.0
C      1  0.5717490000000  0.4958760000000  0.5066950000000 1.0
C      1  0.6042950000000  0.4474560000000  0.5117320000000 1.0
C      1  0.4985120000000  0.6143720000000  0.4537280000000 1.0
C      1  0.5286300000000  0.5233940000000  0.5048910000000 1.0
C      1  0.5990030000000  0.4141940000000  0.4745150000000 1.0
C      1  0.4851950000000  0.5182620000000  0.5685910000000 1.0
C      1  0.5405880000000  0.5047490000000  0.4290790000000 1.0
C      1  0.4056230000000  0.5443830000000  0.6444260000000 1.0
C      1  0.5157700000000  0.4502160000000  0.4273590000000 1.0
C      1  0.5777770000000  0.4839760000000  0.5714900000000 1.0
C      1  0.4156190000000  0.5959360000000  0.4126480000000 1.0
C      1  0.5841580000000  0.5765550000000  0.4897450000000 1.0
C      1  0.5049340000000  0.3996050000000  0.5295520000000 1.0
C      1  0.5690510000000  0.4370360000000  0.5758430000000 1.0
C      1  0.5338490000000  0.3934980000000  0.4739900000000 1.0
C      1  0.3687600000000  0.5620870000000  0.5102920000000 1.0
C      1  0.5461610000000  0.5042570000000  0.5174860000000 1.0
C      1  0.5085690000000  0.5203610000000  0.4846530000000 1.0
C      1  0.5548760000000  0.4712360000000  0.6387160000000 1.0
C      1  0.4393950000000  0.4089420000000  0.5094710000000 1.0
C      1  0.4630810000000  0.3907670000000  0.5139900000000 1.0
C      1  0.4589480000000  0.5653900000000  0.3741560000000 1.0
C      1  0.5211630000000  0.4927830000000  0.3807630000000 1.0
C      1  0.4658780000000  0.5089340000000  0.4335110000000 1.0
C      1  0.4087870000000  0.5256060000000  0.6266210000000 1.0
C      1  0.4759800000000  0.4528240000000  0.4967650000000 1.0
C      1  0.5400240000000  0.4900540000000  0.5419490000000 1.0
C      1  0.4243800000000  0.4449610000000  0.5498100000000 1.0
C      1  0.3798280000000  0.4468840000000  0.5057110000000 1.0
C      1  0.4881600000000  0.6144180000000  0.4108530000000 1.0
C      1  0.5803300000000  0.4589190000000  0.4711310000000 1.0
C      1  0.3973900000000  0.4983100000000  0.4943460000000 1.0
C      1  0.5040090000000  0.5501870000000  0.5342900000000 1.0
C      1  0.4909890000000  0.4770370000000  0.4931430000000 1.0
C      1  0.4687920000000  0.6198340000000  0.4532520000000 1.0
C      1  0.4104700000000  0.4306960000000  0.4705420000000 1.0
C      1  0.4753030000000  0.4103940000000  0.5632230000000 1.0
C      1  0.5913200000000  0.5304420000000  0.4584010000000 1.0
C      1  0.4844830000000  0.4171200000000  0.4603380000000 1.0
C      1  0.4223560000000  0.4463690000000  0.4478370000000 1.0
C      1  0.4084750000000  0.5526940000000  0.3879120000000 1.0
C      1  0.5634850000000  0.5329570000000  0.4660470000000 1.0
C      1  0.5626070000000  0.5605040000000  0.3938450000000 1.0
END
