TITL C-599893-4344-480 -193.348640434003 125000 -1028.81385435941 0 0 169 (C1) n - 1
REM
REM in /home/nfs/bkarasulu/CARBON/AIRSS/Generating-Clusters/TERSOFF/Only-C1/FIRE-HFTN
REM
REM
REM
REM
REM
REM ./C.cell (11c1c37f851c82e70ff6c80c92926a4b)
REM AIRSS Version 0.9.1 bugfix July 2018 build 013d7b7c2542+ Fri, 06 Jul 2018 19:26:36 +0100
REM compiler GCC version 9.2.1 20190827 (Red Hat 9.2.1-1)
REM options -cpp -mtune=generic -march=x86-64 -g -O0 -fpre-include=/usr/include/finclude/math-vector-fortran.h
REM seed 1004578058 -469566390 -699841308 -235416576 1911552432 1127927930 -2134604443 -433546214 821433636 301141223 -44484495 -1061547125 868637391 -1863691773 1802190060 -1770923620 1405102428 1501584205 -1579202189 1626357545 -217486258 -1648147766 630037311 -1283235148 2014579372 739843403 -465777651 646634870 -1062279656 -1265679515 -21544827 639714406 -2032067977
REM
CELL 1.54180   50.00000   50.00000   50.00000   90.00000   90.00000   90.00000
LATT -1
SFAC C  
C      1  0.5280570000000  0.4585050000000  0.5603320000000 1.0
C      1  0.6037300000000  0.4799640000000  0.5464600000000 1.0
C      1  0.5153380000000  0.4069870000000  0.4371010000000 1.0
C      1  0.5431600000000  0.5000730000000  0.5329520000000 1.0
C      1  0.3956110000000  0.4419550000000  0.5277950000000 1.0
C      1  0.4568250000000  0.3801230000000  0.6454740000000 1.0
C      1  0.5534640000000  0.4982220000000  0.5600200000000 1.0
C      1  0.5745830000000  0.5410580000000  0.5767100000000 1.0
C      1  0.4850060000000  0.4845910000000  0.5922280000000 1.0
C      1  0.4318840000000  0.5057150000000  0.4250910000000 1.0
C      1  0.5068280000000  0.4916160000000  0.4993420000000 1.0
C      1  0.5910460000000  0.4738110000000  0.4697300000000 1.0
C      1  0.5205930000000  0.5998360000000  0.5597310000000 1.0
C      1  0.5418050000000  0.6060400000000  0.5143470000000 1.0
C      1  0.4934460000000  0.4441770000000  0.4668930000000 1.0
C      1  0.5024290000000  0.5667560000000  0.5308210000000 1.0
C      1  0.4834270000000  0.5961160000000  0.4641470000000 1.0
C      1  0.3964530000000  0.4830510000000  0.4995910000000 1.0
C      1  0.5111770000000  0.5159900000000  0.3917890000000 1.0
C      1  0.5691310000000  0.5356900000000  0.4270830000000 1.0
C      1  0.5604630000000  0.4967370000000  0.5102190000000 1.0
C      1  0.4180850000000  0.5164860000000  0.4031540000000 1.0
C      1  0.4497860000000  0.3929610000000  0.6239030000000 1.0
C      1  0.4912240000000  0.4372910000000  0.5380640000000 1.0
C      1  0.4784650000000  0.4479020000000  0.4035470000000 1.0
C      1  0.4442090000000  0.4597930000000  0.5504510000000 1.0
C      1  0.4569590000000  0.5837620000000  0.4649310000000 1.0
C      1  0.6043340000000  0.5177690000000  0.4599540000000 1.0
C      1  0.5209120000000  0.5477220000000  0.5425160000000 1.0
C      1  0.5169500000000  0.6194020000000  0.5022930000000 1.0
C      1  0.4325920000000  0.4342220000000  0.5568140000000 1.0
C      1  0.5611330000000  0.4487810000000  0.5096420000000 1.0
C      1  0.5952950000000  0.5594150000000  0.4848990000000 1.0
C      1  0.4016130000000  0.5107110000000  0.4970050000000 1.0
C      1  0.5828800000000  0.4113050000000  0.5302560000000 1.0
C      1  0.5534010000000  0.5516250000000  0.4095210000000 1.0
C      1  0.3850380000000  0.4441660000000  0.4718910000000 1.0
C      1  0.4938130000000  0.5325040000000  0.5860160000000 1.0
C      1  0.4341750000000  0.5522000000000  0.5165170000000 1.0
C      1  0.3788470000000  0.5519060000000  0.5035280000000 1.0
C      1  0.4985120000000  0.5037950000000  0.5477940000000 1.0
C      1  0.4555090000000  0.4898390000000  0.4201630000000 1.0
C      1  0.5048480000000  0.5159180000000  0.4393320000000 1.0
C      1  0.5388810000000  0.5105700000000  0.3844410000000 1.0
C      1  0.5804470000000  0.4216400000000  0.4547200000000 1.0
C      1  0.5691270000000  0.4866370000000  0.4611530000000 1.0
C      1  0.4176920000000  0.5959940000000  0.5267260000000 1.0
C      1  0.5734230000000  0.4833890000000  0.4117590000000 1.0
C      1  0.5376230000000  0.4353110000000  0.5176190000000 1.0
C      1  0.4629150000000  0.4683880000000  0.6054000000000 1.0
C      1  0.4833450000000  0.5177080000000  0.4587060000000 1.0
C      1  0.4305700000000  0.5731920000000  0.5349030000000 1.0
C      1  0.6263160000000  0.5126960000000  0.4789690000000 1.0
C      1  0.4041800000000  0.4690750000000  0.5232650000000 1.0
C      1  0.4982940000000  0.4896620000000  0.3917240000000 1.0
C      1  0.5665440000000  0.5895170000000  0.5580890000000 1.0
C      1  0.5627400000000  0.4072220000000  0.4686150000000 1.0
C      1  0.4404540000000  0.4835810000000  0.6091390000000 1.0
C      1  0.4403370000000  0.5720140000000  0.5611500000000 1.0
C      1  0.3812680000000  0.5681730000000  0.4822230000000 1.0
C      1  0.5130040000000  0.5330140000000  0.6069760000000 1.0
C      1  0.4832840000000  0.6132750000000  0.5354150000000 1.0
C      1  0.5875140000000  0.5324360000000  0.4781780000000 1.0
C      1  0.5005850000000  0.5741680000000  0.4553070000000 1.0
C      1  0.4427740000000  0.4062260000000  0.6020550000000 1.0
C      1  0.5454880000000  0.5394850000000  0.4984730000000 1.0
C      1  0.5807880000000  0.4551200000000  0.4148570000000 1.0
C      1  0.6216900000000  0.5202170000000  0.5060510000000 1.0
C      1  0.4162390000000  0.4240410000000  0.5358470000000 1.0
C      1  0.5182100000000  0.4603800000000  0.6210300000000 1.0
C      1  0.5671870000000  0.5196840000000  0.4954410000000 1.0
C      1  0.4781350000000  0.3984750000000  0.5071130000000 1.0
C      1  0.5533940000000  0.5337990000000  0.4518110000000 1.0
C      1  0.5463960000000  0.5520490000000  0.4727650000000 1.0
C      1  0.4272710000000  0.4036030000000  0.5202380000000 1.0
C      1  0.5192170000000  0.4456260000000  0.5373410000000 1.0
C      1  0.5254360000000  0.5561670000000  0.4164220000000 1.0
C      1  0.4059000000000  0.4273670000000  0.4698210000000 1.0
C      1  0.5683590000000  0.4365640000000  0.3968390000000 1.0
C      1  0.5980500000000  0.5080460000000  0.5483940000000 1.0
C      1  0.5089210000000  0.5321350000000  0.4153940000000 1.0
C      1  0.5204820000000  0.5770340000000  0.4354650000000 1.0
C      1  0.4959710000000  0.5608300000000  0.5044690000000 1.0
C      1  0.4366770000000  0.5423190000000  0.4902300000000 1.0
C      1  0.5480660000000  0.4733730000000  0.5729300000000 1.0
C      1  0.5528120000000  0.4726700000000  0.4981550000000 1.0
C      1  0.4699010000000  0.5894540000000  0.6004120000000 1.0
C      1  0.4825400000000  0.4981370000000  0.4831010000000 1.0
C      1  0.5047830000000  0.5294300000000  0.5596440000000 1.0
C      1  0.5943290000000  0.4531560000000  0.5453440000000 1.0
C      1  0.5684180000000  0.4119450000000  0.5560540000000 1.0
C      1  0.5006270000000  0.6141100000000  0.4785320000000 1.0
C      1  0.5213780000000  0.4693300000000  0.3950490000000 1.0
C      1  0.4232680000000  0.4799470000000  0.5433140000000 1.0
C      1  0.4726570000000  0.4776860000000  0.3992860000000 1.0
C      1  0.5206820000000  0.5090440000000  0.6171710000000 1.0
C      1  0.4207600000000  0.5209810000000  0.4779260000000 1.0
C      1  0.5148730000000  0.4991740000000  0.5257140000000 1.0
C      1  0.4647950000000  0.5391120000000  0.4522460000000 1.0
C      1  0.4134380000000  0.5826350000000  0.4432210000000 1.0
C      1  0.4557260000000  0.5554550000000  0.4747040000000 1.0
C      1  0.3693420000000  0.4345420000000  0.5272670000000 1.0
C      1  0.4429400000000  0.4246320000000  0.4391400000000 1.0
C      1  0.4326210000000  0.4345550000000  0.4643530000000 1.0
C      1  0.4025600000000  0.5258580000000  0.3838380000000 1.0
C      1  0.3949060000000  0.5208980000000  0.5415600000000 1.0
C      1  0.5873480000000  0.5119730000000  0.4281900000000 1.0
C      1  0.3965890000000  0.4876050000000  0.4526520000000 1.0
C      1  0.5508630000000  0.5806500000000  0.4719610000000 1.0
C      1  0.5490310000000  0.5057580000000  0.4548320000000 1.0
C      1  0.5140790000000  0.3995160000000  0.4651730000000 1.0
C      1  0.5886950000000  0.4410030000000  0.4380060000000 1.0
C      1  0.5222340000000  0.4215510000000  0.4129720000000 1.0
C      1  0.5671990000000  0.4562740000000  0.5849160000000 1.0
C      1  0.5180750000000  0.4566520000000  0.4671530000000 1.0
C      1  0.4661540000000  0.4786780000000  0.4439040000000 1.0
C      1  0.6358960000000  0.4506810000000  0.4847920000000 1.0
C      1  0.4511950000000  0.5793540000000  0.5843200000000 1.0
C      1  0.5479940000000  0.4192680000000  0.4012480000000 1.0
C      1  0.5758520000000  0.5149700000000  0.5656350000000 1.0
C      1  0.3874670000000  0.5357590000000  0.3650300000000 1.0
C      1  0.3892260000000  0.5284330000000  0.5151780000000 1.0
C      1  0.6135070000000  0.4624100000000  0.4783510000000 1.0
C      1  0.5161460000000  0.6036520000000  0.5871020000000 1.0
C      1  0.4433920000000  0.5090440000000  0.5962060000000 1.0
C      1  0.4979410000000  0.5909900000000  0.5446080000000 1.0
C      1  0.4368630000000  0.4205870000000  0.5806000000000 1.0
C      1  0.4544650000000  0.5553230000000  0.4291420000000 1.0
C      1  0.5076620000000  0.4438480000000  0.4019150000000 1.0
C      1  0.4592630000000  0.5521090000000  0.4025420000000 1.0
C      1  0.3883280000000  0.4717540000000  0.4747130000000 1.0
C      1  0.4047950000000  0.5363390000000  0.5915560000000 1.0
C      1  0.4718000000000  0.5142660000000  0.5922990000000 1.0
C      1  0.5340880000000  0.4083550000000  0.5088090000000 1.0
C      1  0.5426830000000  0.5912710000000  0.4470530000000 1.0
C      1  0.5213440000000  0.3972500000000  0.5330500000000 1.0
C      1  0.4413470000000  0.5798790000000  0.4401370000000 1.0
C      1  0.5095790000000  0.4838590000000  0.6099540000000 1.0
C      1  0.4930940000000  0.4083410000000  0.5301450000000 1.0
C      1  0.5446700000000  0.6014970000000  0.5441490000000 1.0
C      1  0.5380070000000  0.4024480000000  0.4812110000000 1.0
C      1  0.5781160000000  0.5526320000000  0.5275590000000 1.0
C      1  0.4504460000000  0.3949650000000  0.5101620000000 1.0
C      1  0.4907990000000  0.3952070000000  0.4814900000000 1.0
C      1  0.5602290000000  0.5907380000000  0.4973930000000 1.0
C      1  0.4947770000000  0.5990120000000  0.6026750000000 1.0
C      1  0.4866490000000  0.4813410000000  0.5617350000000 1.0
C      1  0.5851950000000  0.4390330000000  0.5211370000000 1.0
C      1  0.4599820000000  0.4787490000000  0.4868290000000 1.0
C      1  0.5023430000000  0.5579520000000  0.4786650000000 1.0
C      1  0.4182410000000  0.5068800000000  0.4513010000000 1.0
C      1  0.4979920000000  0.6309630000000  0.5207970000000 1.0
C      1  0.5474100000000  0.5469140000000  0.5271120000000 1.0
C      1  0.5252380000000  0.4968360000000  0.4435360000000 1.0
C      1  0.5799510000000  0.4380470000000  0.5672910000000 1.0
C      1  0.5237630000000  0.4691370000000  0.4428350000000 1.0
C      1  0.5478690000000  0.4852870000000  0.3958270000000 1.0
C      1  0.4754140000000  0.4527230000000  0.4477830000000 1.0
C      1  0.5824410000000  0.5734960000000  0.5065920000000 1.0
C      1  0.4449780000000  0.4561990000000  0.4804290000000 1.0
C      1  0.3931430000000  0.5780180000000  0.4602580000000 1.0
C      1  0.5732110000000  0.5677840000000  0.5728670000000 1.0
C      1  0.4732940000000  0.4590300000000  0.5486080000000 1.0
C      1  0.5418100000000  0.3993390000000  0.5546130000000 1.0
C      1  0.4216260000000  0.5174240000000  0.5807880000000 1.0
C      1  0.6026960000000  0.5276930000000  0.5277950000000 1.0
C      1  0.4656010000000  0.4358500000000  0.4265580000000 1.0
C      1  0.5256850000000  0.4725480000000  0.4886430000000 1.0
C      1  0.4146400000000  0.5054110000000  0.5556720000000 1.0
END
