TITL C-599895-9959-653 -0.000213807641336005 125000 -236.993406807524 0 0 41 (C1) n - 1
REM
REM in /home/nfs/bkarasulu/CARBON/AIRSS/Generating-Clusters/TERSOFF/Only-C1/FIRE-HFTN
REM
REM
REM
REM
REM
REM ./C.cell (11c1c37f851c82e70ff6c80c92926a4b)
REM AIRSS Version 0.9.1 bugfix July 2018 build 013d7b7c2542+ Fri, 06 Jul 2018 19:26:36 +0100
REM compiler GCC version 9.2.1 20190827 (Red Hat 9.2.1-1)
REM options -cpp -mtune=generic -march=x86-64 -g -O0 -fpre-include=/usr/include/finclude/math-vector-fortran.h
REM seed -1799869538 409078563 -1950889071 1432363063 -482049810 814906607 1453420386 -1166947808 -488161238 -140679448 808274263 -675173478 796110635 524673000 577862087 -1215815563 695677433 1117093806 1982454084 1896859830 1182513123 -1255214151 1376818873 -1538785781 47073676 -1704254641 409107358 1871186708 -1191258447 737604572 -1550289206 -506429580 -1897346186
REM
CELL 1.54180   50.00000   50.00000   50.00000   90.00000   90.00000   90.00000
LATT -1
SFAC C  
C      1  0.5454290000000  0.4659280000000  0.4669910000000 1.0
C      1  0.4507050000000  0.5058970000000  0.4618040000000 1.0
C      1  0.4455730000000  0.5143830000000  0.5145240000000 1.0
C      1  0.5374480000000  0.5368740000000  0.5259700000000 1.0
C      1  0.4448580000000  0.4423590000000  0.5300780000000 1.0
C      1  0.5179500000000  0.5553300000000  0.4411230000000 1.0
C      1  0.4648870000000  0.5261570000000  0.5314290000000 1.0
C      1  0.5085460000000  0.5095950000000  0.4778550000000 1.0
C      1  0.4940300000000  0.4578670000000  0.4498140000000 1.0
C      1  0.4850820000000  0.5451630000000  0.5227060000000 1.0
C      1  0.5410840000000  0.5094600000000  0.4416350000000 1.0
C      1  0.4763010000000  0.5082550000000  0.5514080000000 1.0
C      1  0.4862570000000  0.4205200000000  0.5192360000000 1.0
C      1  0.4505940000000  0.4697280000000  0.5288860000000 1.0
C      1  0.4774750000000  0.5595740000000  0.4997240000000 1.0
C      1  0.5565630000000  0.5262480000000  0.5095170000000 1.0
C      1  0.5002730000000  0.4404820000000  0.5080440000000 1.0
C      1  0.5120350000000  0.5089470000000  0.4475010000000 1.0
C      1  0.4829080000000  0.4508100000000  0.4259140000000 1.0
C      1  0.5027050000000  0.5331670000000  0.4338150000000 1.0
C      1  0.5480990000000  0.5000660000000  0.6207750000000 1.0
C      1  0.5329240000000  0.5063230000000  0.6005220000000 1.0
C      1  0.5025570000000  0.5186820000000  0.5573840000000 1.0
C      1  0.4651940000000  0.4822960000000  0.5503380000000 1.0
C      1  0.5176210000000  0.5126410000000  0.5798410000000 1.0
C      1  0.5344000000000  0.5495720000000  0.4643600000000 1.0
C      1  0.5106830000000  0.5376740000000  0.5361390000000 1.0
C      1  0.4537070000000  0.5326520000000  0.4631510000000 1.0
C      1  0.4781990000000  0.4660740000000  0.4726920000000 1.0
C      1  0.4637850000000  0.5531910000000  0.4773220000000 1.0
C      1  0.5227150000000  0.4575820000000  0.4543710000000 1.0
C      1  0.5164720000000  0.5371350000000  0.4840250000000 1.0
C      1  0.4607070000000  0.4207270000000  0.5277690000000 1.0
C      1  0.5605860000000  0.4845220000000  0.4801920000000 1.0
C      1  0.5262610000000  0.4892590000000  0.5205860000000 1.0
C      1  0.4469090000000  0.4869390000000  0.5060010000000 1.0
C      1  0.5623610000000  0.5131640000000  0.4844470000000 1.0
C      1  0.5546740000000  0.5276300000000  0.4603660000000 1.0
C      1  0.4958750000000  0.4648920000000  0.4950640000000 1.0
C      1  0.4554940000000  0.4831300000000  0.4781840000000 1.0
C      1  0.5100720000000  0.4891030000000  0.4984950000000 1.0
END
