TITL C-599890-3321-742 0.398239100413268 125000 -1073.2097088567 0 0 176 (C1) n - 1
REM
REM in /home/nfs/bkarasulu/CARBON/AIRSS/Generating-Clusters/TERSOFF/Only-C1/FIRE-HFTN
REM
REM
REM
REM
REM
REM ./C.cell (11c1c37f851c82e70ff6c80c92926a4b)
REM AIRSS Version 0.9.1 bugfix July 2018 build 013d7b7c2542+ Fri, 06 Jul 2018 19:26:36 +0100
REM compiler GCC version 9.2.1 20190827 (Red Hat 9.2.1-1)
REM options -cpp -mtune=generic -march=x86-64 -g -O0 -fpre-include=/usr/include/finclude/math-vector-fortran.h
REM seed 1836275731 -1477621268 -375337082 -1898768831 1283822924 2076008054 -1474720507 864416 1633650004 -1379358244 -654975536 -417843871 1333109743 -1271583760 85685107 1305756085 1454261444 -95053340 841692686 -571936349 77344112 -1840420555 -273443488 -1319191318 1822641224 1902157879 1445717716 -1058171166 -1790277646 -1618210461 1760263599 -563899156 22550610
REM
CELL 1.54180   50.00000   50.00000   50.00000   90.00000   90.00000   90.00000
LATT -1
SFAC C  
C      1  0.4578500000000  0.3868180000000  0.4974260000000 1.0
C      1  0.5240870000000  0.4709230000000  0.3789910000000 1.0
C      1  0.4686060000000  0.4493960000000  0.5908180000000 1.0
C      1  0.5610380000000  0.5062030000000  0.5170480000000 1.0
C      1  0.3725470000000  0.4511010000000  0.5606560000000 1.0
C      1  0.4503040000000  0.4989040000000  0.5946580000000 1.0
C      1  0.5097780000000  0.4285090000000  0.5330090000000 1.0
C      1  0.4171000000000  0.4559790000000  0.4948950000000 1.0
C      1  0.4872220000000  0.4412450000000  0.6103120000000 1.0
C      1  0.4671890000000  0.4005810000000  0.4314830000000 1.0
C      1  0.4176200000000  0.4543500000000  0.3572640000000 1.0
C      1  0.4029810000000  0.4992710000000  0.5382480000000 1.0
C      1  0.4135150000000  0.5342190000000  0.5873460000000 1.0
C      1  0.5822330000000  0.4979370000000  0.4990880000000 1.0
C      1  0.5624450000000  0.5537600000000  0.5816010000000 1.0
C      1  0.5851180000000  0.5616280000000  0.5667500000000 1.0
C      1  0.4882240000000  0.5534570000000  0.4786110000000 1.0
C      1  0.4706190000000  0.5395860000000  0.4069620000000 1.0
C      1  0.5148710000000  0.4982570000000  0.5735720000000 1.0
C      1  0.6151520000000  0.5275940000000  0.4775890000000 1.0
C      1  0.5415160000000  0.5350530000000  0.4511830000000 1.0
C      1  0.5094270000000  0.4175770000000  0.4808790000000 1.0
C      1  0.4232930000000  0.4226930000000  0.4325640000000 1.0
C      1  0.5088310000000  0.4614240000000  0.3577710000000 1.0
C      1  0.4596140000000  0.4793070000000  0.5069430000000 1.0
C      1  0.5177490000000  0.4315670000000  0.5048400000000 1.0
C      1  0.3934060000000  0.5478700000000  0.5756840000000 1.0
C      1  0.4408440000000  0.5253550000000  0.4649970000000 1.0
C      1  0.5225590000000  0.5043190000000  0.4877460000000 1.0
C      1  0.5468230000000  0.5927710000000  0.4148930000000 1.0
C      1  0.4672610000000  0.5141940000000  0.3658960000000 1.0
C      1  0.4759880000000  0.3825960000000  0.4763270000000 1.0
C      1  0.4089230000000  0.6014470000000  0.5570260000000 1.0
C      1  0.4153950000000  0.6047130000000  0.5826270000000 1.0
C      1  0.5956180000000  0.4787210000000  0.4291550000000 1.0
C      1  0.5788780000000  0.4364320000000  0.5602120000000 1.0
C      1  0.4518070000000  0.5722930000000  0.4424230000000 1.0
C      1  0.5024600000000  0.3901430000000  0.4831490000000 1.0
C      1  0.6107730000000  0.4734450000000  0.5276530000000 1.0
C      1  0.5658690000000  0.6028520000000  0.5324940000000 1.0
C      1  0.6383120000000  0.5109310000000  0.5224050000000 1.0
C      1  0.4983530000000  0.4926600000000  0.5289840000000 1.0
C      1  0.4431650000000  0.4568830000000  0.5051340000000 1.0
C      1  0.5073010000000  0.6180890000000  0.4304340000000 1.0
C      1  0.5113070000000  0.5245180000000  0.3838820000000 1.0
C      1  0.4973370000000  0.4488340000000  0.5500550000000 1.0
C      1  0.5797600000000  0.4549580000000  0.4326960000000 1.0
C      1  0.4204110000000  0.4381760000000  0.5565070000000 1.0
C      1  0.4465400000000  0.5826550000000  0.6174940000000 1.0
C      1  0.4826370000000  0.5256560000000  0.3853940000000 1.0
C      1  0.5466040000000  0.4648000000000  0.4782600000000 1.0
C      1  0.5350850000000  0.6131570000000  0.4319140000000 1.0
C      1  0.4591270000000  0.5965940000000  0.5184470000000 1.0
C      1  0.4267170000000  0.5096610000000  0.5827530000000 1.0
C      1  0.5091340000000  0.4833230000000  0.6187540000000 1.0
C      1  0.4716850000000  0.4440880000000  0.5630970000000 1.0
C      1  0.5819650000000  0.5819630000000  0.5455510000000 1.0
C      1  0.5032460000000  0.4610260000000  0.4624190000000 1.0
C      1  0.4488810000000  0.4192740000000  0.4245180000000 1.0
C      1  0.4546730000000  0.5055800000000  0.5184380000000 1.0
C      1  0.4391640000000  0.5387020000000  0.4897070000000 1.0
C      1  0.5530510000000  0.4989760000000  0.5435060000000 1.0
C      1  0.5966050000000  0.4538850000000  0.4813530000000 1.0
C      1  0.3861980000000  0.5369920000000  0.5095690000000 1.0
C      1  0.5462040000000  0.6035390000000  0.4800700000000 1.0
C      1  0.5416950000000  0.4464260000000  0.4991160000000 1.0
C      1  0.5120840000000  0.4760130000000  0.5512110000000 1.0
C      1  0.5982350000000  0.4983720000000  0.5871290000000 1.0
C      1  0.5758070000000  0.5119020000000  0.5980050000000 1.0
C      1  0.4380170000000  0.3679480000000  0.4503900000000 1.0
C      1  0.5392890000000  0.4531020000000  0.3964270000000 1.0
C      1  0.4881510000000  0.4777730000000  0.5056550000000 1.0
C      1  0.5447710000000  0.4993950000000  0.4068270000000 1.0
C      1  0.4334850000000  0.5215420000000  0.5107050000000 1.0
C      1  0.4745360000000  0.5130330000000  0.6011270000000 1.0
C      1  0.5324040000000  0.5727830000000  0.4003860000000 1.0
C      1  0.4144690000000  0.4948130000000  0.5620260000000 1.0
C      1  0.4503270000000  0.4079640000000  0.5114490000000 1.0
C      1  0.5082470000000  0.6044790000000  0.5787440000000 1.0
C      1  0.5480510000000  0.6206270000000  0.4570030000000 1.0
C      1  0.5621830000000  0.4406250000000  0.5167370000000 1.0
C      1  0.4233520000000  0.4799040000000  0.4028280000000 1.0
C      1  0.3884300000000  0.5535430000000  0.4855010000000 1.0
C      1  0.5400200000000  0.5123080000000  0.5665490000000 1.0
C      1  0.4516530000000  0.4708750000000  0.5974850000000 1.0
C      1  0.4225910000000  0.5730720000000  0.4466370000000 1.0
C      1  0.5682820000000  0.5674340000000  0.5044360000000 1.0
C      1  0.5725170000000  0.5181050000000  0.4530060000000 1.0
C      1  0.5318330000000  0.5811250000000  0.4693630000000 1.0
C      1  0.5700740000000  0.5109550000000  0.4058620000000 1.0
C      1  0.4477220000000  0.4379450000000  0.5486310000000 1.0
C      1  0.4725360000000  0.5377900000000  0.6140450000000 1.0
C      1  0.4062300000000  0.5782190000000  0.4251490000000 1.0
C      1  0.5970290000000  0.4735060000000  0.5025280000000 1.0
C      1  0.4141790000000  0.5915280000000  0.5328710000000 1.0
C      1  0.5412450000000  0.5553060000000  0.4698840000000 1.0
C      1  0.6228190000000  0.4097660000000  0.5438090000000 1.0
C      1  0.6097330000000  0.5107860000000  0.5635460000000 1.0
C      1  0.4073740000000  0.4078670000000  0.4508450000000 1.0
C      1  0.5046250000000  0.4571620000000  0.6234280000000 1.0
C      1  0.6139040000000  0.5666670000000  0.4414930000000 1.0
C      1  0.4312110000000  0.5659430000000  0.4932660000000 1.0
C      1  0.5810370000000  0.5249760000000  0.3854080000000 1.0
C      1  0.5505030000000  0.5474340000000  0.4951060000000 1.0
C      1  0.3872260000000  0.4266450000000  0.5207860000000 1.0
C      1  0.5456490000000  0.4775120000000  0.4545060000000 1.0
C      1  0.4807580000000  0.5959490000000  0.5027710000000 1.0
C      1  0.4639300000000  0.3800110000000  0.4507860000000 1.0
C      1  0.5614510000000  0.4499620000000  0.5428950000000 1.0
C      1  0.3476940000000  0.5189420000000  0.5328770000000 1.0
C      1  0.5304790000000  0.4067880000000  0.5724710000000 1.0
C      1  0.4106540000000  0.5685020000000  0.4729540000000 1.0
C      1  0.5417870000000  0.5209610000000  0.5021730000000 1.0
C      1  0.6204770000000  0.5482840000000  0.4595090000000 1.0
C      1  0.4341680000000  0.5841460000000  0.5147960000000 1.0
C      1  0.4356560000000  0.5070810000000  0.4464660000000 1.0
C      1  0.5154270000000  0.3761020000000  0.5041910000000 1.0
C      1  0.4502000000000  0.4340680000000  0.5207140000000 1.0
C      1  0.5098520000000  0.5025010000000  0.4362320000000 1.0
C      1  0.5393010000000  0.4296750000000  0.4428090000000 1.0
C      1  0.4295160000000  0.5981430000000  0.6041860000000 1.0
C      1  0.5747840000000  0.5898530000000  0.4160530000000 1.0
C      1  0.3762490000000  0.5508440000000  0.5551860000000 1.0
C      1  0.4066340000000  0.5179270000000  0.5175170000000 1.0
C      1  0.5340040000000  0.4890880000000  0.4314570000000 1.0
C      1  0.4693630000000  0.5505890000000  0.4328320000000 1.0
C      1  0.4819260000000  0.5815020000000  0.4789890000000 1.0
C      1  0.5889960000000  0.5152930000000  0.4768820000000 1.0
C      1  0.4888660000000  0.5369370000000  0.5018900000000 1.0
C      1  0.4695200000000  0.5916630000000  0.4549880000000 1.0
C      1  0.5589080000000  0.5959760000000  0.5046910000000 1.0
C      1  0.6218490000000  0.4963930000000  0.5408130000000 1.0
C      1  0.5478400000000  0.4179620000000  0.5899450000000 1.0
C      1  0.6019760000000  0.4234410000000  0.5514100000000 1.0
C      1  0.4906500000000  0.5434120000000  0.4516750000000 1.0
C      1  0.5258370000000  0.4993380000000  0.3856140000000 1.0
C      1  0.5627610000000  0.4214160000000  0.4590480000000 1.0
C      1  0.5906940000000  0.5658390000000  0.5216170000000 1.0
C      1  0.5196040000000  0.4047410000000  0.5464280000000 1.0
C      1  0.3456430000000  0.4931270000000  0.5396780000000 1.0
C      1  0.3704600000000  0.4048480000000  0.5212000000000 1.0
C      1  0.4933420000000  0.4527780000000  0.3386790000000 1.0
C      1  0.4833070000000  0.6110070000000  0.4399990000000 1.0
C      1  0.3555790000000  0.4699670000000  0.5484380000000 1.0
C      1  0.6340140000000  0.5200900000000  0.4973290000000 1.0
C      1  0.4197550000000  0.4672870000000  0.3797960000000 1.0
C      1  0.5528700000000  0.4454970000000  0.4206250000000 1.0
C      1  0.5556710000000  0.5267530000000  0.5851530000000 1.0
C      1  0.4980140000000  0.5817700000000  0.5710610000000 1.0
C      1  0.3942020000000  0.4207380000000  0.4719630000000 1.0
C      1  0.5709390000000  0.4339730000000  0.5873300000000 1.0
C      1  0.4816760000000  0.5189960000000  0.5263180000000 1.0
C      1  0.5863820000000  0.4507300000000  0.6038480000000 1.0
C      1  0.3974580000000  0.4357300000000  0.4956060000000 1.0
C      1  0.5977510000000  0.5809070000000  0.4259430000000 1.0
C      1  0.6039620000000  0.5391540000000  0.5581450000000 1.0
C      1  0.4291090000000  0.4920040000000  0.4256880000000 1.0
C      1  0.4814190000000  0.5363430000000  0.5500520000000 1.0
C      1  0.6089660000000  0.5468750000000  0.5306930000000 1.0
C      1  0.5041310000000  0.4818760000000  0.4827990000000 1.0
C      1  0.6225700000000  0.4766910000000  0.4246210000000 1.0
C      1  0.6013950000000  0.4724910000000  0.5978920000000 1.0
C      1  0.5831900000000  0.5046200000000  0.4299290000000 1.0
C      1  0.5207180000000  0.3817380000000  0.5300510000000 1.0
C      1  0.5246160000000  0.5496260000000  0.3888180000000 1.0
C      1  0.4620630000000  0.5613050000000  0.6206060000000 1.0
C      1  0.4877350000000  0.5588240000000  0.5626590000000 1.0
C      1  0.5141290000000  0.4342790000000  0.4575340000000 1.0
C      1  0.5137830000000  0.5288410000000  0.4442300000000 1.0
C      1  0.5844970000000  0.4408810000000  0.4587510000000 1.0
C      1  0.4138930000000  0.3802330000000  0.4519380000000 1.0
C      1  0.3939170000000  0.4389530000000  0.5459710000000 1.0
C      1  0.3668290000000  0.5396290000000  0.5308110000000 1.0
C      1  0.5001580000000  0.5001440000000  0.5977180000000 1.0
C      1  0.5431020000000  0.4713120000000  0.5464070000000 1.0
C      1  0.3684240000000  0.4440770000000  0.5868220000000 1.0
END
