TITL C-599893-4344-323 21.6365641729486 125000 -203.669770185068 0 0 36 (C1) n - 1
REM
REM in /home/nfs/bkarasulu/CARBON/AIRSS/Generating-Clusters/TERSOFF/Only-C1/FIRE-HFTN
REM
REM
REM
REM
REM
REM ./C.cell (11c1c37f851c82e70ff6c80c92926a4b)
REM AIRSS Version 0.9.1 bugfix July 2018 build 013d7b7c2542+ Fri, 06 Jul 2018 19:26:36 +0100
REM compiler GCC version 9.2.1 20190827 (Red Hat 9.2.1-1)
REM options -cpp -mtune=generic -march=x86-64 -g -O0 -fpre-include=/usr/include/finclude/math-vector-fortran.h
REM seed 2020888019 -259748105 -682048225 49620458 -2048461775 237893962 -897651985 -885460551 1355037616 -1913784558 1162674158 -886253868 -1792031533 -7466950 -132592351 -898206654 -186661625 1478824306 278170756 -328885364 -1360875932 901396512 462402200 -185043583 1985966846 -247905489 -1427382416 -2012441214 -1916315768 542810986 1612423709 1064561164 521393000
REM
CELL 1.54180   50.00000   50.00000   50.00000   90.00000   90.00000   90.00000
LATT -1
SFAC C  
C      1  0.4587030000000  0.5441990000000  0.4721490000000 1.0
C      1  0.4889970000000  0.4904910000000  0.4416670000000 1.0
C      1  0.4691600000000  0.5143330000000  0.4049790000000 1.0
C      1  0.5414270000000  0.4620360000000  0.5111490000000 1.0
C      1  0.4659500000000  0.5702630000000  0.5858180000000 1.0
C      1  0.5608970000000  0.5291420000000  0.5414540000000 1.0
C      1  0.5365020000000  0.4886690000000  0.5195390000000 1.0
C      1  0.4679270000000  0.3976930000000  0.5162270000000 1.0
C      1  0.5050490000000  0.4313250000000  0.5003110000000 1.0
C      1  0.5239390000000  0.4501530000000  0.4920210000000 1.0
C      1  0.5339480000000  0.5729660000000  0.5425100000000 1.0
C      1  0.4891640000000  0.5000010000000  0.5271660000000 1.0
C      1  0.4649320000000  0.5317270000000  0.4495500000000 1.0
C      1  0.5479370000000  0.4490920000000  0.4492150000000 1.0
C      1  0.4566700000000  0.5459740000000  0.4999230000000 1.0
C      1  0.5465910000000  0.3998590000000  0.4270580000000 1.0
C      1  0.5530530000000  0.5544740000000  0.5439830000000 1.0
C      1  0.5475990000000  0.4237420000000  0.4374400000000 1.0
C      1  0.4743000000000  0.5122130000000  0.4317590000000 1.0
C      1  0.4021020000000  0.4972660000000  0.5040100000000 1.0
C      1  0.5053110000000  0.4726350000000  0.4525780000000 1.0
C      1  0.5694770000000  0.4656740000000  0.4461160000000 1.0
C      1  0.4666490000000  0.5298590000000  0.5585150000000 1.0
C      1  0.4712310000000  0.5574520000000  0.5623550000000 1.0
C      1  0.4663750000000  0.5142830000000  0.5350280000000 1.0
C      1  0.5082810000000  0.5796040000000  0.5399440000000 1.0
C      1  0.4483290000000  0.5227940000000  0.5145690000000 1.0
C      1  0.4816670000000  0.5709790000000  0.5393240000000 1.0
C      1  0.5255340000000  0.4574650000000  0.4645800000000 1.0
C      1  0.5552150000000  0.5043960000000  0.5333050000000 1.0
C      1  0.4243680000000  0.5096560000000  0.5094670000000 1.0
C      1  0.5133620000000  0.5186650000000  0.4901460000000 1.0
C      1  0.5625750000000  0.4477800000000  0.5210870000000 1.0
C      1  0.4679060000000  0.5670070000000  0.5149920000000 1.0
C      1  0.4863750000000  0.4143290000000  0.5083190000000 1.0
C      1  0.5124990000000  0.5018030000000  0.5117470000000 1.0
END
