TITL C-599897-7526-942 126.108677295438 125000 -698.997139201074 0 0 117 (C1) n - 1
REM
REM in /home/nfs/bkarasulu/CARBON/AIRSS/Generating-Clusters/TERSOFF/Only-C1/FIRE-HFTN
REM
REM
REM
REM
REM
REM ./C.cell (11c1c37f851c82e70ff6c80c92926a4b)
REM AIRSS Version 0.9.1 bugfix July 2018 build 013d7b7c2542+ Fri, 06 Jul 2018 19:26:36 +0100
REM compiler GCC version 9.2.1 20190827 (Red Hat 9.2.1-1)
REM options -cpp -mtune=generic -march=x86-64 -g -O0 -fpre-include=/usr/include/finclude/math-vector-fortran.h
REM seed -1752397961 -36007939 -2018363523 -1220345207 1145894604 -960334528 -1486975224 -970164697 168614984 -1714915120 808955484 -1616440553 -2004551890 -1596283600 -456635399 791917365 -1350176062 1783592317 -863022525 1280025968 -1378300797 1934768589 -1394249675 -203895960 1449584471 51371980 1122484995 1791237026 -127010832 1740330492 324962783 -733590783 -2023608614
REM
CELL 1.54180   50.00000   50.00000   50.00000   90.00000   90.00000   90.00000
LATT -1
SFAC C  
C      1  0.5870180000000  0.5403760000000  0.5308080000000 1.0
C      1  0.4944250000000  0.5078930000000  0.4896980000000 1.0
C      1  0.4543740000000  0.4791230000000  0.4138200000000 1.0
C      1  0.4327700000000  0.4813020000000  0.5499610000000 1.0
C      1  0.4701330000000  0.4458940000000  0.5214270000000 1.0
C      1  0.4440330000000  0.5054380000000  0.4164630000000 1.0
C      1  0.4454980000000  0.5613020000000  0.3373980000000 1.0
C      1  0.3820270000000  0.5541300000000  0.5110300000000 1.0
C      1  0.4612560000000  0.5694760000000  0.4741420000000 1.0
C      1  0.4388600000000  0.4606370000000  0.4006400000000 1.0
C      1  0.5433660000000  0.5059680000000  0.4017970000000 1.0
C      1  0.5445660000000  0.5052590000000  0.5104590000000 1.0
C      1  0.4428610000000  0.5501700000000  0.5163420000000 1.0
C      1  0.5024160000000  0.4883390000000  0.4252600000000 1.0
C      1  0.4021990000000  0.5453650000000  0.4531970000000 1.0
C      1  0.4285140000000  0.5537280000000  0.6039310000000 1.0
C      1  0.5203510000000  0.5622190000000  0.4402980000000 1.0
C      1  0.4269490000000  0.4503080000000  0.4817660000000 1.0
C      1  0.4162440000000  0.5884800000000  0.5110250000000 1.0
C      1  0.4591010000000  0.4765730000000  0.5637670000000 1.0
C      1  0.4870390000000  0.5125990000000  0.5184650000000 1.0
C      1  0.5224120000000  0.5379300000000  0.4543230000000 1.0
C      1  0.5333630000000  0.5850180000000  0.4468220000000 1.0
C      1  0.4115560000000  0.5421880000000  0.4268290000000 1.0
C      1  0.4906500000000  0.4353880000000  0.4812050000000 1.0
C      1  0.5138140000000  0.4367900000000  0.4320960000000 1.0
C      1  0.3944720000000  0.5096290000000  0.5333270000000 1.0
C      1  0.4395850000000  0.5251440000000  0.5305290000000 1.0
C      1  0.5626490000000  0.4381830000000  0.4388710000000 1.0
C      1  0.5345640000000  0.4106100000000  0.4884960000000 1.0
C      1  0.5261650000000  0.4786450000000  0.5890220000000 1.0
C      1  0.4402790000000  0.5511000000000  0.3608150000000 1.0
C      1  0.4800600000000  0.4566070000000  0.4977750000000 1.0
C      1  0.4460660000000  0.4397810000000  0.5315140000000 1.0
C      1  0.6134010000000  0.4811810000000  0.4513160000000 1.0
C      1  0.5051660000000  0.5194840000000  0.5614350000000 1.0
C      1  0.5756770000000  0.5485220000000  0.5554390000000 1.0
C      1  0.5620900000000  0.4125760000000  0.4947310000000 1.0
C      1  0.3960050000000  0.5742050000000  0.4963710000000 1.0
C      1  0.4967020000000  0.5152960000000  0.5883780000000 1.0
C      1  0.5128220000000  0.5327560000000  0.4825020000000 1.0
C      1  0.4649270000000  0.5922860000000  0.5287010000000 1.0
C      1  0.4101540000000  0.5236360000000  0.4701230000000 1.0
C      1  0.4717070000000  0.4126780000000  0.5944370000000 1.0
C      1  0.4829140000000  0.4821630000000  0.4855220000000 1.0
C      1  0.5872690000000  0.5146520000000  0.4259880000000 1.0
C      1  0.4204580000000  0.5075010000000  0.5435700000000 1.0
C      1  0.5116960000000  0.3641590000000  0.4720870000000 1.0
C      1  0.5309220000000  0.4620580000000  0.5444020000000 1.0
C      1  0.5177390000000  0.4973690000000  0.4033240000000 1.0
C      1  0.4300940000000  0.5292510000000  0.4096840000000 1.0
C      1  0.4454050000000  0.4396510000000  0.4648700000000 1.0
C      1  0.5180890000000  0.4337070000000  0.4899630000000 1.0
C      1  0.5568180000000  0.4511460000000  0.5473870000000 1.0
C      1  0.6103720000000  0.5230450000000  0.4712540000000 1.0
C      1  0.5706230000000  0.5019240000000  0.5713810000000 1.0
C      1  0.3852910000000  0.5264520000000  0.5128370000000 1.0
C      1  0.5532360000000  0.5567700000000  0.4994070000000 1.0
C      1  0.4157910000000  0.4645040000000  0.5042310000000 1.0
C      1  0.4860710000000  0.4444280000000  0.4343100000000 1.0
C      1  0.5102670000000  0.5797150000000  0.5103830000000 1.0
C      1  0.4660630000000  0.3897710000000  0.6055270000000 1.0
C      1  0.5811400000000  0.5522700000000  0.5050390000000 1.0
C      1  0.3936870000000  0.5109890000000  0.4891350000000 1.0
C      1  0.6054540000000  0.5086240000000  0.4461760000000 1.0
C      1  0.6218350000000  0.5035210000000  0.4898900000000 1.0
C      1  0.3989300000000  0.4861920000000  0.5004280000000 1.0
C      1  0.4866120000000  0.3216760000000  0.4539180000000 1.0
C      1  0.6191140000000  0.4766530000000  0.4791230000000 1.0
C      1  0.5048370000000  0.4925020000000  0.6576950000000 1.0
C      1  0.5846730000000  0.4929620000000  0.5475090000000 1.0
C      1  0.5002080000000  0.5736920000000  0.5562030000000 1.0
C      1  0.5448630000000  0.5232430000000  0.4455260000000 1.0
C      1  0.5161430000000  0.4876370000000  0.4503510000000 1.0
C      1  0.4799320000000  0.4707600000000  0.4234580000000 1.0
C      1  0.4997530000000  0.5460000000000  0.5511010000000 1.0
C      1  0.5237570000000  0.3860320000000  0.4808950000000 1.0
C      1  0.5912810000000  0.4492540000000  0.5158630000000 1.0
C      1  0.4833270000000  0.4604720000000  0.5701230000000 1.0
C      1  0.4379830000000  0.5251760000000  0.4752560000000 1.0
C      1  0.4997750000000  0.6050660000000  0.4723300000000 1.0
C      1  0.5274600000000  0.5965190000000  0.4718510000000 1.0
C      1  0.6210040000000  0.5080850000000  0.5172850000000 1.0
C      1  0.4730710000000  0.4352170000000  0.4581620000000 1.0
C      1  0.4598040000000  0.5066780000000  0.5233430000000 1.0
C      1  0.5694300000000  0.5302030000000  0.5744830000000 1.0
C      1  0.5127080000000  0.4650500000000  0.5671590000000 1.0
C      1  0.4909770000000  0.5409090000000  0.5241720000000 1.0
C      1  0.6094320000000  0.4567560000000  0.4960090000000 1.0
C      1  0.5276130000000  0.4824080000000  0.5220700000000 1.0
C      1  0.5358610000000  0.5816860000000  0.4960820000000 1.0
C      1  0.4265510000000  0.4600880000000  0.5307390000000 1.0
C      1  0.5374650000000  0.4465810000000  0.4450850000000 1.0
C      1  0.4936760000000  0.5892550000000  0.5326790000000 1.0
C      1  0.5984060000000  0.5136650000000  0.5326860000000 1.0
C      1  0.5625100000000  0.4239690000000  0.5409380000000 1.0
C      1  0.5979560000000  0.5455180000000  0.4829720000000 1.0
C      1  0.4773010000000  0.4358950000000  0.5829730000000 1.0
C      1  0.5534810000000  0.4854260000000  0.5863510000000 1.0
C      1  0.4744480000000  0.5289740000000  0.5982860000000 1.0
C      1  0.5100020000000  0.4960550000000  0.6042420000000 1.0
C      1  0.3965520000000  0.5692410000000  0.4680180000000 1.0
C      1  0.4762250000000  0.5916180000000  0.4705440000000 1.0
C      1  0.5319860000000  0.4683910000000  0.4638570000000 1.0
C      1  0.5289400000000  0.4609360000000  0.4921930000000 1.0
C      1  0.4350440000000  0.5406770000000  0.3846030000000 1.0
C      1  0.5768650000000  0.4234930000000  0.5157930000000 1.0
C      1  0.5397570000000  0.5304070000000  0.4975060000000 1.0
C      1  0.5800570000000  0.4667240000000  0.5372430000000 1.0
C      1  0.4497590000000  0.5473970000000  0.4879490000000 1.0
C      1  0.5002410000000  0.5542510000000  0.5013550000000 1.0
C      1  0.4514970000000  0.5415050000000  0.6025520000000 1.0
C      1  0.5595510000000  0.5152870000000  0.4229300000000 1.0
C      1  0.4990790000000  0.3427230000000  0.4629320000000 1.0
C      1  0.5066090000000  0.5007570000000  0.5375650000000 1.0
C      1  0.5075570000000  0.4942250000000  0.6318350000000 1.0
C      1  0.4404170000000  0.5782310000000  0.5226540000000 1.0
END
