TITL C-599896-8500-1069 -0.0683450171684955 125000 -762.734615902532 0 0 125 (C1) n - 1
REM
REM in /home/nfs/bkarasulu/CARBON/AIRSS/Generating-Clusters/TERSOFF/Only-C1/FIRE-HFTN
REM
REM
REM
REM
REM
REM ./C.cell (11c1c37f851c82e70ff6c80c92926a4b)
REM AIRSS Version 0.9.1 bugfix July 2018 build 013d7b7c2542+ Fri, 06 Jul 2018 19:26:36 +0100
REM compiler GCC version 9.2.1 20190827 (Red Hat 9.2.1-1)
REM options -cpp -mtune=generic -march=x86-64 -g -O0 -fpre-include=/usr/include/finclude/math-vector-fortran.h
REM seed 1532495244 -197289244 1495642275 -350225607 1548222398 609941334 1683586738 1332688714 -1709388993 1744555422 -1165164345 1578159878 -815802735 -1199388381 -643562116 -201615772 -616849766 1398494050 -1143563146 1676909253 1533469432 -950510413 -1024782676 -1395189998 608580992 128735523 -981054582 -798137995 -661740187 87966481 -71229770 -281996190 744331273
REM
CELL 1.54180   50.00000   50.00000   50.00000   90.00000   90.00000   90.00000
LATT -1
SFAC C  
C      1  0.4546390000000  0.5953030000000  0.5331330000000 1.0
C      1  0.4149520000000  0.5554540000000  0.4983120000000 1.0
C      1  0.4817680000000  0.5166660000000  0.4959250000000 1.0
C      1  0.5726690000000  0.5321160000000  0.4420330000000 1.0
C      1  0.4717840000000  0.5876990000000  0.5123580000000 1.0
C      1  0.5214470000000  0.4578800000000  0.4641130000000 1.0
C      1  0.4900760000000  0.4597910000000  0.5342570000000 1.0
C      1  0.5148670000000  0.4838620000000  0.5828130000000 1.0
C      1  0.5816130000000  0.5167780000000  0.4651620000000 1.0
C      1  0.4558460000000  0.4508570000000  0.4972570000000 1.0
C      1  0.4682180000000  0.6020870000000  0.4669350000000 1.0
C      1  0.5109460000000  0.6029930000000  0.5350170000000 1.0
C      1  0.4839000000000  0.5773550000000  0.5689560000000 1.0
C      1  0.5242020000000  0.5165000000000  0.4744730000000 1.0
C      1  0.5164500000000  0.5014770000000  0.4491220000000 1.0
C      1  0.4682430000000  0.5094570000000  0.4689270000000 1.0
C      1  0.6152050000000  0.3737880000000  0.5345920000000 1.0
C      1  0.5219960000000  0.4882790000000  0.6418390000000 1.0
C      1  0.5299200000000  0.4770450000000  0.5051100000000 1.0
C      1  0.4927820000000  0.3976550000000  0.4897410000000 1.0
C      1  0.4885500000000  0.4891070000000  0.4590710000000 1.0
C      1  0.4106460000000  0.4625790000000  0.4587130000000 1.0
C      1  0.5438990000000  0.5699790000000  0.4294320000000 1.0
C      1  0.4561790000000  0.4901090000000  0.5764870000000 1.0
C      1  0.5648540000000  0.4738280000000  0.4440490000000 1.0
C      1  0.5266090000000  0.5615020000000  0.5535240000000 1.0
C      1  0.4621940000000  0.5317400000000  0.3920220000000 1.0
C      1  0.4930540000000  0.4612840000000  0.4650560000000 1.0
C      1  0.5151770000000  0.4574250000000  0.5719010000000 1.0
C      1  0.4497670000000  0.5119130000000  0.4082360000000 1.0
C      1  0.5829570000000  0.4894560000000  0.4582610000000 1.0
C      1  0.4732300000000  0.4767900000000  0.6204810000000 1.0
C      1  0.5880290000000  0.4164150000000  0.5202060000000 1.0
C      1  0.5549110000000  0.4355440000000  0.4895790000000 1.0
C      1  0.4949670000000  0.5812030000000  0.4332300000000 1.0
C      1  0.4194910000000  0.5494760000000  0.4698800000000 1.0
C      1  0.4943350000000  0.4005680000000  0.5410090000000 1.0
C      1  0.5190620000000  0.4348820000000  0.4203720000000 1.0
C      1  0.4959780000000  0.6025300000000  0.5125190000000 1.0
C      1  0.5505370000000  0.5283650000000  0.5335830000000 1.0
C      1  0.5076050000000  0.5521350000000  0.3998250000000 1.0
C      1  0.4664900000000  0.4626760000000  0.5200120000000 1.0
C      1  0.4394920000000  0.5012510000000  0.4644050000000 1.0
C      1  0.4498080000000  0.5167140000000  0.5326500000000 1.0
C      1  0.6028910000000  0.5044410000000  0.5076320000000 1.0
C      1  0.5087930000000  0.5059390000000  0.4203610000000 1.0
C      1  0.4335260000000  0.4760110000000  0.4516810000000 1.0
C      1  0.4640220000000  0.4864170000000  0.4132230000000 1.0
C      1  0.4024180000000  0.5005390000000  0.5316870000000 1.0
C      1  0.5580930000000  0.5185170000000  0.5083890000000 1.0
C      1  0.3925600000000  0.4804330000000  0.5461200000000 1.0
C      1  0.5166720000000  0.5260250000000  0.4028080000000 1.0
C      1  0.4511100000000  0.4402520000000  0.4220010000000 1.0
C      1  0.4335280000000  0.5702280000000  0.4549960000000 1.0
C      1  0.5989350000000  0.4813720000000  0.5211740000000 1.0
C      1  0.4759520000000  0.4427410000000  0.4770140000000 1.0
C      1  0.5345400000000  0.4610820000000  0.5497910000000 1.0
C      1  0.5828810000000  0.5195520000000  0.4941050000000 1.0
C      1  0.4880940000000  0.5582840000000  0.5909240000000 1.0
C      1  0.4987650000000  0.3937950000000  0.5155830000000 1.0
C      1  0.5670460000000  0.4305490000000  0.4212670000000 1.0
C      1  0.5403430000000  0.4759390000000  0.3972690000000 1.0
C      1  0.4708370000000  0.5701110000000  0.4202130000000 1.0
C      1  0.4565920000000  0.5798370000000  0.5564840000000 1.0
C      1  0.4694280000000  0.4212600000000  0.4178680000000 1.0
C      1  0.4899830000000  0.5837270000000  0.4613460000000 1.0
C      1  0.4078350000000  0.4559070000000  0.5884540000000 1.0
C      1  0.4922760000000  0.4449350000000  0.5594870000000 1.0
C      1  0.5047010000000  0.5200800000000  0.5452940000000 1.0
C      1  0.5589160000000  0.4967050000000  0.5712640000000 1.0
C      1  0.4954820000000  0.4818880000000  0.6343540000000 1.0
C      1  0.4543630000000  0.5576410000000  0.4396520000000 1.0
C      1  0.4487260000000  0.4673880000000  0.4287060000000 1.0
C      1  0.5379730000000  0.5466220000000  0.5772230000000 1.0
C      1  0.5044690000000  0.5332610000000  0.4852460000000 1.0
C      1  0.5346350000000  0.4552530000000  0.4884080000000 1.0
C      1  0.5830790000000  0.5773440000000  0.4570050000000 1.0
C      1  0.5562310000000  0.5247000000000  0.5629370000000 1.0
C      1  0.4785370000000  0.5540390000000  0.3975630000000 1.0
C      1  0.4641110000000  0.5439570000000  0.5959440000000 1.0
C      1  0.5603150000000  0.4735610000000  0.5512580000000 1.0
C      1  0.5382090000000  0.5027190000000  0.4954760000000 1.0
C      1  0.4877480000000  0.5567970000000  0.4761000000000 1.0
C      1  0.5570860000000  0.4972120000000  0.4019170000000 1.0
C      1  0.4230000000000  0.5234620000000  0.4548050000000 1.0
C      1  0.5499270000000  0.4199730000000  0.4644090000000 1.0
C      1  0.5288910000000  0.4908590000000  0.6681510000000 1.0
C      1  0.4707200000000  0.4082100000000  0.5825180000000 1.0
C      1  0.5406580000000  0.4910150000000  0.5935170000000 1.0
C      1  0.4416460000000  0.5958450000000  0.4642040000000 1.0
C      1  0.4664090000000  0.5323500000000  0.5145260000000 1.0
C      1  0.5179480000000  0.5711980000000  0.4193800000000 1.0
C      1  0.5168550000000  0.4687800000000  0.5280960000000 1.0
C      1  0.5155220000000  0.5490370000000  0.5960810000000 1.0
C      1  0.4527740000000  0.5128870000000  0.5608670000000 1.0
C      1  0.4854240000000  0.4176780000000  0.5615590000000 1.0
C      1  0.5779410000000  0.4639360000000  0.5293140000000 1.0
C      1  0.5412360000000  0.4919760000000  0.6213900000000 1.0
C      1  0.5731750000000  0.4391590000000  0.5125720000000 1.0
C      1  0.4456490000000  0.4084010000000  0.4823300000000 1.0
C      1  0.4376590000000  0.5581440000000  0.5563260000000 1.0
C      1  0.4737670000000  0.4131040000000  0.4760700000000 1.0
C      1  0.5768140000000  0.4551330000000  0.4264070000000 1.0
C      1  0.5162500000000  0.4619870000000  0.4068770000000 1.0
C      1  0.4465070000000  0.5371850000000  0.5744780000000 1.0
C      1  0.6017270000000  0.3949320000000  0.5274560000000 1.0
C      1  0.4960190000000  0.4185440000000  0.4182860000000 1.0
C      1  0.4692870000000  0.5395670000000  0.4565190000000 1.0
C      1  0.5983250000000  0.5926420000000  0.4715870000000 1.0
C      1  0.5665190000000  0.5598850000000  0.4428130000000 1.0
C      1  0.5085600000000  0.5831370000000  0.5547850000000 1.0
C      1  0.4192820000000  0.5487040000000  0.5263500000000 1.0
C      1  0.4305290000000  0.4595460000000  0.6021480000000 1.0
C      1  0.4935950000000  0.4825560000000  0.4104740000000 1.0
C      1  0.4215650000000  0.5201620000000  0.5278590000000 1.0
C      1  0.5025260000000  0.5037210000000  0.5666680000000 1.0
C      1  0.5673870000000  0.5170860000000  0.4176100000000 1.0
C      1  0.4273180000000  0.5208770000000  0.4252140000000 1.0
C      1  0.4713800000000  0.5605300000000  0.5032670000000 1.0
C      1  0.5232690000000  0.5392200000000  0.5353500000000 1.0
C      1  0.3940730000000  0.4640020000000  0.5670610000000 1.0
C      1  0.5429910000000  0.4242750000000  0.4353800000000 1.0
C      1  0.5363260000000  0.4773980000000  0.4483680000000 1.0
C      1  0.4539190000000  0.4749980000000  0.6001710000000 1.0
C      1  0.4355870000000  0.4303240000000  0.4959540000000 1.0
END
