TITL C-599891-72-802 -301.508917149383 125000 -771.469377563244 0 0 127 (C1) n - 1
REM
REM in /home/nfs/bkarasulu/CARBON/AIRSS/Generating-Clusters/TERSOFF/Only-C1/FIRE-HFTN
REM
REM
REM
REM
REM
REM ./C.cell (11c1c37f851c82e70ff6c80c92926a4b)
REM AIRSS Version 0.9.1 bugfix July 2018 build 013d7b7c2542+ Fri, 06 Jul 2018 19:26:36 +0100
REM compiler GCC version 9.2.1 20190827 (Red Hat 9.2.1-1)
REM options -cpp -mtune=generic -march=x86-64 -g -O0 -fpre-include=/usr/include/finclude/math-vector-fortran.h
REM seed -1035348993 914437662 1129856304 2072911764 -1067917901 -1879895155 -1486385038 -703009425 1543720776 1489373909 1279104684 682339806 -2122377427 520665906 -985152631 -415696659 -1241222054 -1029933785 -174527599 1410528493 100798245 -84529424 -1027573518 2106068567 -818865068 -2027033504 793163374 606697184 2144413592 218337438 -798480446 -1427000587 170918310
REM
CELL 1.54180   50.00000   50.00000   50.00000   90.00000   90.00000   90.00000
LATT -1
SFAC C  
C      1  0.3822580000000  0.4934790000000  0.6407580000000 1.0
C      1  0.5144380000000  0.5703020000000  0.4027560000000 1.0
C      1  0.4861020000000  0.4629800000000  0.5363560000000 1.0
C      1  0.4226190000000  0.5387330000000  0.5639300000000 1.0
C      1  0.5469440000000  0.5136140000000  0.4716220000000 1.0
C      1  0.4940060000000  0.5947140000000  0.5618330000000 1.0
C      1  0.4859660000000  0.4435970000000  0.5933900000000 1.0
C      1  0.4875090000000  0.5146600000000  0.4357030000000 1.0
C      1  0.5530740000000  0.5430820000000  0.5080070000000 1.0
C      1  0.5095540000000  0.5804210000000  0.4752570000000 1.0
C      1  0.4366400000000  0.4670380000000  0.5393140000000 1.0
C      1  0.5505050000000  0.4969050000000  0.5421260000000 1.0
C      1  0.5498350000000  0.4842450000000  0.4686990000000 1.0
C      1  0.5524620000000  0.4110910000000  0.4517060000000 1.0
C      1  0.4941850000000  0.4428720000000  0.5143330000000 1.0
C      1  0.5539410000000  0.4774500000000  0.5637660000000 1.0
C      1  0.4733410000000  0.4980270000000  0.3896030000000 1.0
C      1  0.5792000000000  0.4406130000000  0.4739720000000 1.0
C      1  0.5790260000000  0.4791990000000  0.6055730000000 1.0
C      1  0.3338630000000  0.5069730000000  0.6576530000000 1.0
C      1  0.5259830000000  0.4770830000000  0.4281340000000 1.0
C      1  0.4926590000000  0.6113020000000  0.5824440000000 1.0
C      1  0.4131580000000  0.5544350000000  0.4690360000000 1.0
C      1  0.4691330000000  0.5573880000000  0.5073720000000 1.0
C      1  0.4568040000000  0.5152480000000  0.5015710000000 1.0
C      1  0.5935490000000  0.4559400000000  0.5154670000000 1.0
C      1  0.5239700000000  0.4989370000000  0.3835380000000 1.0
C      1  0.5215530000000  0.5833210000000  0.4492170000000 1.0
C      1  0.4325370000000  0.4691620000000  0.5118040000000 1.0
C      1  0.5865830000000  0.5395970000000  0.5369730000000 1.0
C      1  0.4806260000000  0.5462530000000  0.4824960000000 1.0
C      1  0.4552220000000  0.4776010000000  0.4726930000000 1.0
C      1  0.4830380000000  0.5806730000000  0.5156070000000 1.0
C      1  0.4022500000000  0.5114760000000  0.4976470000000 1.0
C      1  0.5013180000000  0.5450150000000  0.4020630000000 1.0
C      1  0.4306050000000  0.4803280000000  0.6234870000000 1.0
C      1  0.5671760000000  0.4499650000000  0.5279850000000 1.0
C      1  0.5487160000000  0.4459710000000  0.5057610000000 1.0
C      1  0.4514030000000  0.5381730000000  0.5188480000000 1.0
C      1  0.5414780000000  0.4189360000000  0.5001130000000 1.0
C      1  0.5165180000000  0.4992780000000  0.6108860000000 1.0
C      1  0.5116390000000  0.5517360000000  0.5441760000000 1.0
C      1  0.5094340000000  0.5241050000000  0.4200640000000 1.0
C      1  0.5685630000000  0.5732990000000  0.4656700000000 1.0
C      1  0.5237650000000  0.4926510000000  0.5268910000000 1.0
C      1  0.5029520000000  0.5819930000000  0.4270120000000 1.0
C      1  0.4848830000000  0.4245850000000  0.5724520000000 1.0
C      1  0.5274750000000  0.4119890000000  0.4385860000000 1.0
C      1  0.4602720000000  0.4551640000000  0.5484210000000 1.0
C      1  0.4307920000000  0.5692150000000  0.4550710000000 1.0
C      1  0.4559010000000  0.5813990000000  0.4494710000000 1.0
C      1  0.5926260000000  0.5352280000000  0.4596960000000 1.0
C      1  0.5872310000000  0.5561540000000  0.4804050000000 1.0
C      1  0.5023700000000  0.4850150000000  0.5459760000000 1.0
C      1  0.4353710000000  0.4195820000000  0.4815150000000 1.0
C      1  0.5335380000000  0.4312320000000  0.5585170000000 1.0
C      1  0.5077650000000  0.5505120000000  0.4765620000000 1.0
C      1  0.4844620000000  0.4862610000000  0.4340900000000 1.0
C      1  0.4064470000000  0.4867880000000  0.6322520000000 1.0
C      1  0.5147490000000  0.4525820000000  0.4196310000000 1.0
C      1  0.5802940000000  0.5029950000000  0.5078120000000 1.0
C      1  0.4313850000000  0.4794520000000  0.4252970000000 1.0
C      1  0.5752500000000  0.4295990000000  0.4479290000000 1.0
C      1  0.5257860000000  0.4786020000000  0.4564320000000 1.0
C      1  0.5126390000000  0.5310290000000  0.5651990000000 1.0
C      1  0.4545360000000  0.4746220000000  0.6136780000000 1.0
C      1  0.5068200000000  0.4932410000000  0.5016650000000 1.0
C      1  0.5078240000000  0.4191860000000  0.5544080000000 1.0
C      1  0.5320090000000  0.5384890000000  0.4637250000000 1.0
C      1  0.5764200000000  0.5111400000000  0.5353750000000 1.0
C      1  0.4605250000000  0.5210360000000  0.4471540000000 1.0
C      1  0.4182180000000  0.4667620000000  0.4483320000000 1.0
C      1  0.5403660000000  0.5082520000000  0.5985470000000 1.0
C      1  0.4571540000000  0.4382910000000  0.4397080000000 1.0
C      1  0.4716780000000  0.5483970000000  0.4066640000000 1.0
C      1  0.4732310000000  0.5725690000000  0.4275080000000 1.0
C      1  0.4267490000000  0.4823700000000  0.4698430000000 1.0
C      1  0.5600620000000  0.5146370000000  0.4210420000000 1.0
C      1  0.5981520000000  0.4359890000000  0.4946890000000 1.0
C      1  0.4797290000000  0.4429330000000  0.4890610000000 1.0
C      1  0.4667650000000  0.5979970000000  0.4707880000000 1.0
C      1  0.6050600000000  0.4682750000000  0.4473370000000 1.0
C      1  0.4985270000000  0.5041770000000  0.5671570000000 1.0
C      1  0.4951020000000  0.4923770000000  0.5936120000000 1.0
C      1  0.4786990000000  0.4701320000000  0.6003780000000 1.0
C      1  0.5805590000000  0.5532530000000  0.5105460000000 1.0
C      1  0.5486440000000  0.4031610000000  0.4791800000000 1.0
C      1  0.4829200000000  0.4342190000000  0.4547500000000 1.0
C      1  0.4606280000000  0.4266450000000  0.5547740000000 1.0
C      1  0.3580630000000  0.5002230000000  0.6492060000000 1.0
C      1  0.5367740000000  0.5318420000000  0.5823070000000 1.0
C      1  0.4914300000000  0.6275230000000  0.6028160000000 1.0
C      1  0.4153080000000  0.4866330000000  0.4956890000000 1.0
C      1  0.5318340000000  0.5036260000000  0.4128940000000 1.0
C      1  0.5584690000000  0.4878290000000  0.5898340000000 1.0
C      1  0.5324500000000  0.5809770000000  0.3856810000000 1.0
C      1  0.5586120000000  0.5490260000000  0.5776740000000 1.0
C      1  0.4470980000000  0.4109250000000  0.5057010000000 1.0
C      1  0.4421200000000  0.5099590000000  0.4252640000000 1.0
C      1  0.4949670000000  0.4166000000000  0.5273320000000 1.0
C      1  0.5802130000000  0.5239790000000  0.4374470000000 1.0
C      1  0.4960960000000  0.5763130000000  0.5410400000000 1.0
C      1  0.5048480000000  0.4817650000000  0.4750040000000 1.0
C      1  0.5541060000000  0.4507850000000  0.5534320000000 1.0
C      1  0.5923240000000  0.4477930000000  0.4330530000000 1.0
C      1  0.4739430000000  0.4764420000000  0.4094950000000 1.0
C      1  0.4028290000000  0.5353830000000  0.4850030000000 1.0
C      1  0.6071410000000  0.4796120000000  0.4725120000000 1.0
C      1  0.4649220000000  0.4111720000000  0.5296650000000 1.0
C      1  0.4332260000000  0.4355680000000  0.4563730000000 1.0
C      1  0.4802850000000  0.4797480000000  0.4610950000000 1.0
C      1  0.5446360000000  0.5644160000000  0.4524850000000 1.0
C      1  0.4616820000000  0.5264090000000  0.4746640000000 1.0
C      1  0.5972500000000  0.4817060000000  0.5002100000000 1.0
C      1  0.4357740000000  0.5396330000000  0.5414530000000 1.0
C      1  0.5592300000000  0.5180350000000  0.4958280000000 1.0
C      1  0.4799880000000  0.5013070000000  0.5094390000000 1.0
C      1  0.3100600000000  0.5136130000000  0.6659610000000 1.0
C      1  0.4885980000000  0.5936170000000  0.4894140000000 1.0
C      1  0.4571230000000  0.5214060000000  0.4007560000000 1.0
C      1  0.4527400000000  0.4591430000000  0.4180880000000 1.0
C      1  0.5799670000000  0.5521950000000  0.5615140000000 1.0
C      1  0.5068280000000  0.4312390000000  0.4373310000000 1.0
C      1  0.4555250000000  0.4594510000000  0.4950390000000 1.0
C      1  0.5586290000000  0.4599740000000  0.4820500000000 1.0
C      1  0.4978350000000  0.4996280000000  0.3747390000000 1.0
C      1  0.5313600000000  0.5491120000000  0.5239670000000 1.0
END
