TITL C-599890-3321-961 0.592609649219283 125000 -229.712926042104 0 0 40 (C1) n - 1
REM
REM in /home/nfs/bkarasulu/CARBON/AIRSS/Generating-Clusters/TERSOFF/Only-C1/FIRE-HFTN
REM
REM
REM
REM
REM
REM ./C.cell (11c1c37f851c82e70ff6c80c92926a4b)
REM AIRSS Version 0.9.1 bugfix July 2018 build 013d7b7c2542+ Fri, 06 Jul 2018 19:26:36 +0100
REM compiler GCC version 9.2.1 20190827 (Red Hat 9.2.1-1)
REM options -cpp -mtune=generic -march=x86-64 -g -O0 -fpre-include=/usr/include/finclude/math-vector-fortran.h
REM seed -44833789 -1310565964 26422629 438623299 -659758946 753037413 560877976 1122877836 1177761833 -817888170 -736442982 -1875740234 -796137415 -1383686067 1290742982 1593573712 366745187 -435138995 -1444596518 -638093025 1885829889 120885403 532648717 1211385496 949454255 -2076649468 -417938275 -1042215170 849625076 -475392884 -470610783 -891649978 1146569370
REM
CELL 1.54180   50.00000   50.00000   50.00000   90.00000   90.00000   90.00000
LATT -1
SFAC C  
C      1  0.5132730000000  0.4960660000000  0.4630290000000 1.0
C      1  0.5141220000000  0.4708500000000  0.3738140000000 1.0
C      1  0.5271080000000  0.5513580000000  0.4348440000000 1.0
C      1  0.5537280000000  0.5096670000000  0.4223600000000 1.0
C      1  0.3873660000000  0.4452530000000  0.5764530000000 1.0
C      1  0.4331920000000  0.5338030000000  0.5826920000000 1.0
C      1  0.5761020000000  0.5013250000000  0.4633950000000 1.0
C      1  0.4466860000000  0.4377640000000  0.5107800000000 1.0
C      1  0.5318070000000  0.4484930000000  0.4963360000000 1.0
C      1  0.4783910000000  0.4727520000000  0.5664250000000 1.0
C      1  0.4071100000000  0.4628240000000  0.5695140000000 1.0
C      1  0.4090500000000  0.4878440000000  0.5819010000000 1.0
C      1  0.4481660000000  0.4535500000000  0.5330910000000 1.0
C      1  0.4902110000000  0.5025140000000  0.5112260000000 1.0
C      1  0.5053590000000  0.5440380000000  0.4858680000000 1.0
C      1  0.5932360000000  0.4555610000000  0.4690450000000 1.0
C      1  0.5472760000000  0.4673160000000  0.4815280000000 1.0
C      1  0.5515830000000  0.5263150000000  0.5184570000000 1.0
C      1  0.5730550000000  0.4737310000000  0.4713090000000 1.0
C      1  0.4906620000000  0.4750800000000  0.5193880000000 1.0
C      1  0.5316420000000  0.4915450000000  0.4841160000000 1.0
C      1  0.4836200000000  0.4796060000000  0.5910170000000 1.0
C      1  0.4516680000000  0.5481820000000  0.5701800000000 1.0
C      1  0.5028010000000  0.5361930000000  0.4381190000000 1.0
C      1  0.5504290000000  0.5498000000000  0.5050750000000 1.0
C      1  0.4180950000000  0.5123290000000  0.5866150000000 1.0
C      1  0.4259030000000  0.4562290000000  0.5498480000000 1.0
C      1  0.5088840000000  0.5077820000000  0.4373640000000 1.0
C      1  0.4844040000000  0.5467140000000  0.5299950000000 1.0
C      1  0.4896200000000  0.5444670000000  0.4619080000000 1.0
C      1  0.5462740000000  0.5443430000000  0.4555000000000 1.0
C      1  0.5392020000000  0.5048800000000  0.5079340000000 1.0
C      1  0.5343700000000  0.5498730000000  0.4818200000000 1.0
C      1  0.4937550000000  0.5308810000000  0.5088460000000 1.0
C      1  0.5091510000000  0.4554080000000  0.5099190000000 1.0
C      1  0.5623770000000  0.5207370000000  0.4476440000000 1.0
C      1  0.4722830000000  0.4671220000000  0.5397260000000 1.0
C      1  0.5206820000000  0.4850670000000  0.3946460000000 1.0
C      1  0.4698450000000  0.5526520000000  0.5513610000000 1.0
C      1  0.5275130000000  0.5000860000000  0.4169090000000 1.0
END
