TITL C-599890-3321-578 15326.5459783884 125000 -1245.69077750379 0 0 199 (C1) n - 1
REM
REM in /home/nfs/bkarasulu/CARBON/AIRSS/Generating-Clusters/TERSOFF/Only-C1/FIRE-HFTN
REM
REM
REM
REM
REM
REM ./C.cell (11c1c37f851c82e70ff6c80c92926a4b)
REM AIRSS Version 0.9.1 bugfix July 2018 build 013d7b7c2542+ Fri, 06 Jul 2018 19:26:36 +0100
REM compiler GCC version 9.2.1 20190827 (Red Hat 9.2.1-1)
REM options -cpp -mtune=generic -march=x86-64 -g -O0 -fpre-include=/usr/include/finclude/math-vector-fortran.h
REM seed 1550631798 416386980 -394278326 493679338 153267315 90092048 -1955320341 1128250819 1894066268 -903804118 857523315 454667469 -1292202003 1919711325 715337003 655307914 1850712466 -615403534 -1429409715 -1408542508 -17145589 1910560192 690469805 -494748229 1748735875 -662472282 -1911936531 -1649242280 971692338 -926713484 -1081904488 -2068776666 -134548688
REM
CELL 1.54180   50.00000   50.00000   50.00000   90.00000   90.00000   90.00000
LATT -1
SFAC C  
C      1  0.4545680000000  0.5170820000000  0.4195710000000 1.0
C      1  0.6022230000000  0.4976100000000  0.4419270000000 1.0
C      1  0.5367660000000  0.4396920000000  0.4054130000000 1.0
C      1  0.5044960000000  0.5487970000000  0.3943160000000 1.0
C      1  0.4551750000000  0.5686250000000  0.4953280000000 1.0
C      1  0.4643090000000  0.5996670000000  0.5934860000000 1.0
C      1  0.4357560000000  0.3865940000000  0.5143670000000 1.0
C      1  0.4887410000000  0.5345060000000  0.6067470000000 1.0
C      1  0.5599350000000  0.6138310000000  0.5131900000000 1.0
C      1  0.5152770000000  0.4377060000000  0.4517080000000 1.0
C      1  0.3932200000000  0.5180940000000  0.4302050000000 1.0
C      1  0.5754000000000  0.5430720000000  0.6167010000000 1.0
C      1  0.5735020000000  0.4881370000000  0.5062130000000 1.0
C      1  0.4446860000000  0.3963630000000  0.4881380000000 1.0
C      1  0.3847760000000  0.5324290000000  0.4538000000000 1.0
C      1  0.5608540000000  0.5663530000000  0.4207210000000 1.0
C      1  0.6102780000000  0.4563030000000  0.5038470000000 1.0
C      1  0.5844940000000  0.4777750000000  0.4300030000000 1.0
C      1  0.5840500000000  0.5986720000000  0.5101360000000 1.0
C      1  0.4693260000000  0.4459960000000  0.4046160000000 1.0
C      1  0.5393810000000  0.5486370000000  0.4753860000000 1.0
C      1  0.4809310000000  0.4957620000000  0.5699010000000 1.0
C      1  0.5190530000000  0.5293350000000  0.5484990000000 1.0
C      1  0.5639610000000  0.4875060000000  0.4118050000000 1.0
C      1  0.4475340000000  0.5923090000000  0.5086480000000 1.0
C      1  0.4824460000000  0.5620720000000  0.3869850000000 1.0
C      1  0.4233660000000  0.4081570000000  0.5307190000000 1.0
C      1  0.4812160000000  0.5583710000000  0.4915580000000 1.0
C      1  0.6162280000000  0.5232820000000  0.5398540000000 1.0
C      1  0.5287420000000  0.5136830000000  0.6212280000000 1.0
C      1  0.5973920000000  0.5514280000000  0.4978810000000 1.0
C      1  0.4187480000000  0.4990790000000  0.5585860000000 1.0
C      1  0.4922180000000  0.6204420000000  0.5024150000000 1.0
C      1  0.5142420000000  0.4412550000000  0.5128300000000 1.0
C      1  0.4799560000000  0.4841870000000  0.3790780000000 1.0
C      1  0.4845690000000  0.4567670000000  0.6092830000000 1.0
C      1  0.4866910000000  0.4823730000000  0.4887320000000 1.0
C      1  0.5951570000000  0.5037090000000  0.4899050000000 1.0
C      1  0.4846300000000  0.5872790000000  0.4517580000000 1.0
C      1  0.4666120000000  0.4953380000000  0.5048370000000 1.0
C      1  0.4430700000000  0.4405950000000  0.4073530000000 1.0
C      1  0.5141190000000  0.5228280000000  0.5006330000000 1.0
C      1  0.5463810000000  0.5905850000000  0.4185550000000 1.0
C      1  0.6024420000000  0.5482540000000  0.4366320000000 1.0
C      1  0.4364300000000  0.5568160000000  0.4782860000000 1.0
C      1  0.5249720000000  0.3765350000000  0.4477940000000 1.0
C      1  0.4373890000000  0.4998120000000  0.4981380000000 1.0
C      1  0.5264620000000  0.4149320000000  0.4125890000000 1.0
C      1  0.5512700000000  0.5405310000000  0.4113750000000 1.0
C      1  0.4107250000000  0.4283080000000  0.4403230000000 1.0
C      1  0.4551500000000  0.3666860000000  0.5216960000000 1.0
C      1  0.4223720000000  0.6233340000000  0.4649790000000 1.0
C      1  0.3773990000000  0.5238880000000  0.5616900000000 1.0
C      1  0.4946460000000  0.5660250000000  0.4671370000000 1.0
C      1  0.4890580000000  0.5352630000000  0.5052910000000 1.0
C      1  0.3874870000000  0.5512520000000  0.5186340000000 1.0
C      1  0.5817760000000  0.5674020000000  0.4408820000000 1.0
C      1  0.4279710000000  0.5214190000000  0.5427530000000 1.0
C      1  0.5164370000000  0.5499290000000  0.4584930000000 1.0
C      1  0.5268150000000  0.4170330000000  0.5058930000000 1.0
C      1  0.5230990000000  0.4917190000000  0.6046610000000 1.0
C      1  0.5736880000000  0.4449740000000  0.5360200000000 1.0
C      1  0.4507480000000  0.5339560000000  0.5553070000000 1.0
C      1  0.4663130000000  0.6054850000000  0.4450710000000 1.0
C      1  0.5334140000000  0.4656410000000  0.6079100000000 1.0
C      1  0.5662910000000  0.5033950000000  0.5310100000000 1.0
C      1  0.5150950000000  0.6061540000000  0.6011900000000 1.0
C      1  0.5553940000000  0.5782550000000  0.5873320000000 1.0
C      1  0.4327770000000  0.5163970000000  0.4017180000000 1.0
C      1  0.4378940000000  0.4778320000000  0.5591230000000 1.0
C      1  0.5079550000000  0.5535810000000  0.5596630000000 1.0
C      1  0.5899200000000  0.5784040000000  0.4906870000000 1.0
C      1  0.5083760000000  0.4958850000000  0.5799920000000 1.0
C      1  0.4486440000000  0.4285570000000  0.5776440000000 1.0
C      1  0.4275820000000  0.4553170000000  0.5182700000000 1.0
C      1  0.4120420000000  0.4307530000000  0.5147790000000 1.0
C      1  0.4725340000000  0.4475790000000  0.5351090000000 1.0
C      1  0.4636890000000  0.4509740000000  0.5895500000000 1.0
C      1  0.5133690000000  0.5359060000000  0.6208550000000 1.0
C      1  0.6288890000000  0.5546980000000  0.4384400000000 1.0
C      1  0.5076340000000  0.5050770000000  0.4463520000000 1.0
C      1  0.3995850000000  0.5067870000000  0.6020570000000 1.0
C      1  0.4543420000000  0.5393140000000  0.4367920000000 1.0
C      1  0.5780520000000  0.5841490000000  0.4646530000000 1.0
C      1  0.5779880000000  0.4577080000000  0.4481540000000 1.0
C      1  0.4762330000000  0.5157390000000  0.5214200000000 1.0
C      1  0.4345730000000  0.4615610000000  0.4679320000000 1.0
C      1  0.4448000000000  0.5172860000000  0.6234140000000 1.0
C      1  0.5622840000000  0.4634680000000  0.6068240000000 1.0
C      1  0.4217360000000  0.5186480000000  0.5148770000000 1.0
C      1  0.5392550000000  0.4397980000000  0.4659800000000 1.0
C      1  0.4865310000000  0.4691670000000  0.4024230000000 1.0
C      1  0.3938370000000  0.4680900000000  0.4886300000000 1.0
C      1  0.5187060000000  0.5773000000000  0.5451000000000 1.0
C      1  0.3975010000000  0.5290610000000  0.5029590000000 1.0
C      1  0.5843470000000  0.5297320000000  0.4842350000000 1.0
C      1  0.4467950000000  0.4613210000000  0.5374640000000 1.0
C      1  0.5860110000000  0.3922400000000  0.5007990000000 1.0
C      1  0.5177960000000  0.3928150000000  0.5182560000000 1.0
C      1  0.4682100000000  0.6116090000000  0.5109320000000 1.0
C      1  0.5139130000000  0.4040380000000  0.5707990000000 1.0
C      1  0.4449850000000  0.4853670000000  0.4538980000000 1.0
C      1  0.5705630000000  0.5657930000000  0.5650160000000 1.0
C      1  0.4305210000000  0.4959860000000  0.3825090000000 1.0
C      1  0.5615200000000  0.5571040000000  0.5391140000000 1.0
C      1  0.4169700000000  0.4369400000000  0.4659940000000 1.0
C      1  0.5488590000000  0.4490780000000  0.5487450000000 1.0
C      1  0.5117950000000  0.4464020000000  0.6031480000000 1.0
C      1  0.3932050000000  0.4883460000000  0.4368730000000 1.0
C      1  0.6009580000000  0.4452290000000  0.4589440000000 1.0
C      1  0.5740130000000  0.4406210000000  0.6166430000000 1.0
C      1  0.3977180000000  0.4378390000000  0.4885690000000 1.0
C      1  0.5976570000000  0.3470890000000  0.4301920000000 1.0
C      1  0.5292920000000  0.6020300000000  0.5559760000000 1.0
C      1  0.4080420000000  0.4798650000000  0.3887280000000 1.0
C      1  0.3999920000000  0.5768520000000  0.5161100000000 1.0
C      1  0.4803370000000  0.3625430000000  0.5120020000000 1.0
C      1  0.5685260000000  0.5174370000000  0.4135130000000 1.0
C      1  0.5214670000000  0.4479230000000  0.5565300000000 1.0
C      1  0.5549000000000  0.4626020000000  0.4637890000000 1.0
C      1  0.4978120000000  0.4601400000000  0.4480810000000 1.0
C      1  0.3959550000000  0.5063970000000  0.5742720000000 1.0
C      1  0.5565740000000  0.6048330000000  0.4644640000000 1.0
C      1  0.4883020000000  0.6075990000000  0.6025340000000 1.0
C      1  0.4390130000000  0.5089560000000  0.4697170000000 1.0
C      1  0.5128880000000  0.3716100000000  0.4736860000000 1.0
C      1  0.5936910000000  0.5525610000000  0.5750090000000 1.0
C      1  0.6096210000000  0.5068110000000  0.5606450000000 1.0
C      1  0.4340030000000  0.4150270000000  0.5580530000000 1.0
C      1  0.5935830000000  0.5222220000000  0.4294270000000 1.0
C      1  0.5147490000000  0.4984180000000  0.4802280000000 1.0
C      1  0.4625630000000  0.4931170000000  0.4332160000000 1.0
C      1  0.4512080000000  0.5801000000000  0.5803080000000 1.0
C      1  0.4843360000000  0.3888580000000  0.4251840000000 1.0
C      1  0.4601560000000  0.5548500000000  0.5719060000000 1.0
C      1  0.5355650000000  0.5984940000000  0.5834530000000 1.0
C      1  0.6151830000000  0.4624170000000  0.4765380000000 1.0
C      1  0.5447320000000  0.6084630000000  0.4388880000000 1.0
C      1  0.5168410000000  0.6215930000000  0.4915760000000 1.0
C      1  0.4413060000000  0.5356320000000  0.4613400000000 1.0
C      1  0.4113330000000  0.6158650000000  0.4883180000000 1.0
C      1  0.5733620000000  0.3547270000000  0.4357580000000 1.0
C      1  0.4620810000000  0.4178780000000  0.4947550000000 1.0
C      1  0.5459620000000  0.6169620000000  0.5380180000000 1.0
C      1  0.4718030000000  0.5121250000000  0.6171150000000 1.0
C      1  0.3747450000000  0.5428140000000  0.5426210000000 1.0
C      1  0.5907780000000  0.5324930000000  0.5953900000000 1.0
C      1  0.4763780000000  0.4318470000000  0.4763460000000 1.0
C      1  0.4549370000000  0.4895620000000  0.3697120000000 1.0
C      1  0.6102420000000  0.4905180000000  0.4694130000000 1.0
C      1  0.5126630000000  0.3929620000000  0.4267870000000 1.0
C      1  0.4821020000000  0.4597850000000  0.4730240000000 1.0
C      1  0.4803480000000  0.4839390000000  0.6210570000000 1.0
C      1  0.5594910000000  0.5306100000000  0.5276290000000 1.0
C      1  0.5508340000000  0.4936920000000  0.5527760000000 1.0
C      1  0.5463670000000  0.4656900000000  0.4036410000000 1.0
C      1  0.4435160000000  0.6187470000000  0.4492390000000 1.0
C      1  0.3866380000000  0.5172770000000  0.4785470000000 1.0
C      1  0.5453090000000  0.4189780000000  0.4844850000000 1.0
C      1  0.5946150000000  0.5059720000000  0.5853690000000 1.0
C      1  0.4031920000000  0.4697410000000  0.4153430000000 1.0
C      1  0.5871870000000  0.4205670000000  0.5406110000000 1.0
C      1  0.5848470000000  0.4618590000000  0.5157570000000 1.0
C      1  0.4173850000000  0.4447430000000  0.4187700000000 1.0
C      1  0.6126380000000  0.5423170000000  0.5206370000000 1.0
C      1  0.5383110000000  0.5664850000000  0.4977060000000 1.0
C      1  0.5043380000000  0.3737150000000  0.5011490000000 1.0
C      1  0.5480820000000  0.4920330000000  0.4810710000000 1.0
C      1  0.3872270000000  0.4883550000000  0.4683740000000 1.0
C      1  0.5676670000000  0.4022260000000  0.4840180000000 1.0
C      1  0.4574400000000  0.5716420000000  0.3868410000000 1.0
C      1  0.4102740000000  0.5577170000000  0.4019740000000 1.0
C      1  0.4619060000000  0.3844650000000  0.4396230000000 1.0
C      1  0.4910380000000  0.4829270000000  0.4301620000000 1.0
C      1  0.5576770000000  0.5267150000000  0.4751950000000 1.0
C      1  0.5165120000000  0.3916170000000  0.5467590000000 1.0
C      1  0.5391980000000  0.5704310000000  0.5255900000000 1.0
C      1  0.5492650000000  0.3639050000000  0.4418410000000 1.0
C      1  0.4188260000000  0.5129480000000  0.6195100000000 1.0
C      1  0.4311930000000  0.5718980000000  0.3924220000000 1.0
C      1  0.5150920000000  0.4312060000000  0.5789290000000 1.0
C      1  0.5228090000000  0.5376150000000  0.4124660000000 1.0
C      1  0.4472540000000  0.3854620000000  0.4622750000000 1.0
C      1  0.5934480000000  0.3991610000000  0.5256630000000 1.0
C      1  0.4238070000000  0.4739080000000  0.4952680000000 1.0
C      1  0.4724050000000  0.5151120000000  0.5492730000000 1.0
C      1  0.5012950000000  0.4513060000000  0.5362090000000 1.0
C      1  0.5307300000000  0.5279680000000  0.5221820000000 1.0
C      1  0.5445480000000  0.6158400000000  0.4885860000000 1.0
C      1  0.5601440000000  0.5653940000000  0.6124730000000 1.0
C      1  0.4092630000000  0.5306580000000  0.4100480000000 1.0
C      1  0.4967190000000  0.4184460000000  0.4619460000000 1.0
C      1  0.5795530000000  0.4840020000000  0.5960170000000 1.0
C      1  0.4682600000000  0.4230650000000  0.5213870000000 1.0
C      1  0.5135920000000  0.5301900000000  0.4382870000000 1.0
C      1  0.4600100000000  0.4769590000000  0.5767280000000 1.0
C      1  0.4188110000000  0.5967530000000  0.5078320000000 1.0
C      1  0.4873580000000  0.5493350000000  0.5810040000000 1.0
C      1  0.5266750000000  0.5056490000000  0.5614280000000 1.0
END
