TITL C-599891-72-1370 -169.440272424438 125000 -887.308131987184 0 0 146 (C1) n - 1
REM
REM in /home/nfs/bkarasulu/CARBON/AIRSS/Generating-Clusters/TERSOFF/Only-C1/FIRE-HFTN
REM
REM
REM
REM
REM
REM ./C.cell (11c1c37f851c82e70ff6c80c92926a4b)
REM AIRSS Version 0.9.1 bugfix July 2018 build 013d7b7c2542+ Fri, 06 Jul 2018 19:26:36 +0100
REM compiler GCC version 9.2.1 20190827 (Red Hat 9.2.1-1)
REM options -cpp -mtune=generic -march=x86-64 -g -O0 -fpre-include=/usr/include/finclude/math-vector-fortran.h
REM seed -1704505098 1247785668 -401033920 -98094754 -1417667840 -1527797894 110528327 -1336392466 641563216 634986852 2121552532 -860167533 -1538829688 -97387417 -779760408 1537359184 -1643507221 2135379208 237163239 -1047473679 1136835661 -1874665571 -1560325345 -1612180005 1858745722 1411638586 -1360269993 898947808 1270306833 -419594541 -2113109701 1440279040 1525909691
REM
CELL 1.54180   50.00000   50.00000   50.00000   90.00000   90.00000   90.00000
LATT -1
SFAC C  
C      1  0.5726620000000  0.5103770000000  0.4793410000000 1.0
C      1  0.4220440000000  0.3890820000000  0.4732400000000 1.0
C      1  0.3797150000000  0.4892830000000  0.4754760000000 1.0
C      1  0.5120260000000  0.5556300000000  0.3895500000000 1.0
C      1  0.6060550000000  0.4804970000000  0.5045480000000 1.0
C      1  0.4892880000000  0.5492850000000  0.4048750000000 1.0
C      1  0.6401310000000  0.5127060000000  0.5583190000000 1.0
C      1  0.5046660000000  0.4149920000000  0.4339850000000 1.0
C      1  0.5649350000000  0.5278220000000  0.5014130000000 1.0
C      1  0.5995190000000  0.4981270000000  0.5263810000000 1.0
C      1  0.5837390000000  0.5929090000000  0.5109270000000 1.0
C      1  0.5095190000000  0.4317560000000  0.5671970000000 1.0
C      1  0.3896510000000  0.4832180000000  0.5367260000000 1.0
C      1  0.4387060000000  0.3783640000000  0.5173310000000 1.0
C      1  0.4870810000000  0.4332860000000  0.4156090000000 1.0
C      1  0.5500780000000  0.4324170000000  0.4495710000000 1.0
C      1  0.4829200000000  0.6071210000000  0.4900430000000 1.0
C      1  0.5156480000000  0.4669000000000  0.6030180000000 1.0
C      1  0.4639020000000  0.5607580000000  0.5177190000000 1.0
C      1  0.4676340000000  0.4991630000000  0.5012190000000 1.0
C      1  0.4071250000000  0.5743690000000  0.4794080000000 1.0
C      1  0.5051550000000  0.4935500000000  0.6098430000000 1.0
C      1  0.5790020000000  0.5711380000000  0.5583980000000 1.0
C      1  0.4647180000000  0.3714850000000  0.5176340000000 1.0
C      1  0.5852480000000  0.5381350000000  0.5935420000000 1.0
C      1  0.4630780000000  0.4342480000000  0.4325120000000 1.0
C      1  0.4815590000000  0.5139850000000  0.5222650000000 1.0
C      1  0.5924760000000  0.5133020000000  0.4585840000000 1.0
C      1  0.5724140000000  0.5243650000000  0.4160720000000 1.0
C      1  0.5771460000000  0.4286060000000  0.4566110000000 1.0
C      1  0.5858350000000  0.5882810000000  0.5372400000000 1.0
C      1  0.4095750000000  0.4525760000000  0.4724350000000 1.0
C      1  0.4907520000000  0.5594820000000  0.5044240000000 1.0
C      1  0.4624940000000  0.4645520000000  0.5458720000000 1.0
C      1  0.4971370000000  0.5966130000000  0.5404040000000 1.0
C      1  0.4635240000000  0.5159790000000  0.5478970000000 1.0
C      1  0.5702320000000  0.5767570000000  0.4610600000000 1.0
C      1  0.5030980000000  0.4544970000000  0.4535690000000 1.0
C      1  0.4947540000000  0.5782650000000  0.4511190000000 1.0
C      1  0.4222610000000  0.5164450000000  0.4953660000000 1.0
C      1  0.5204580000000  0.4988630000000  0.5009990000000 1.0
C      1  0.5085380000000  0.4467210000000  0.5410520000000 1.0
C      1  0.3995780000000  0.4452180000000  0.4468530000000 1.0
C      1  0.4675490000000  0.5647660000000  0.5656570000000 1.0
C      1  0.3931820000000  0.4625430000000  0.5175480000000 1.0
C      1  0.3790110000000  0.4273950000000  0.4442790000000 1.0
C      1  0.4524370000000  0.5178060000000  0.4109670000000 1.0
C      1  0.5694940000000  0.5171420000000  0.5811200000000 1.0
C      1  0.5368640000000  0.3291080000000  0.5725260000000 1.0
C      1  0.4037120000000  0.4365520000000  0.5251580000000 1.0
C      1  0.3924610000000  0.5075270000000  0.4599630000000 1.0
C      1  0.5463140000000  0.5259070000000  0.4050710000000 1.0
C      1  0.4317960000000  0.4410040000000  0.4858340000000 1.0
C      1  0.5440260000000  0.4729100000000  0.5968690000000 1.0
C      1  0.4602440000000  0.4427450000000  0.4815310000000 1.0
C      1  0.5105140000000  0.4801220000000  0.4459680000000 1.0
C      1  0.4917460000000  0.5004730000000  0.4512150000000 1.0
C      1  0.4796650000000  0.5217960000000  0.4020370000000 1.0
C      1  0.4572690000000  0.5818710000000  0.4257190000000 1.0
C      1  0.3918150000000  0.4678700000000  0.4892450000000 1.0
C      1  0.3945160000000  0.5077910000000  0.5470040000000 1.0
C      1  0.4956840000000  0.6087350000000  0.5141790000000 1.0
C      1  0.4739390000000  0.5926540000000  0.4671490000000 1.0
C      1  0.4710840000000  0.5904050000000  0.5509010000000 1.0
C      1  0.5253180000000  0.3803990000000  0.5726490000000 1.0
C      1  0.5943670000000  0.5627850000000  0.5813580000000 1.0
C      1  0.4770200000000  0.4293010000000  0.5010090000000 1.0
C      1  0.4830410000000  0.5687100000000  0.4252120000000 1.0
C      1  0.4458800000000  0.4899800000000  0.5396270000000 1.0
C      1  0.5176630000000  0.5791140000000  0.5493100000000 1.0
C      1  0.4925920000000  0.4639570000000  0.4010170000000 1.0
C      1  0.5196080000000  0.5285240000000  0.5617330000000 1.0
C      1  0.4802620000000  0.4435820000000  0.5272750000000 1.0
C      1  0.4045270000000  0.5342160000000  0.5095420000000 1.0
C      1  0.4104230000000  0.4581460000000  0.4246460000000 1.0
C      1  0.5855180000000  0.4649090000000  0.4900800000000 1.0
C      1  0.5368600000000  0.5527180000000  0.4020320000000 1.0
C      1  0.5674130000000  0.5251150000000  0.5525130000000 1.0
C      1  0.4276270000000  0.5688200000000  0.4610910000000 1.0
C      1  0.4252490000000  0.5798390000000  0.5374490000000 1.0
C      1  0.5884670000000  0.4037690000000  0.4546940000000 1.0
C      1  0.5040580000000  0.5224190000000  0.4629060000000 1.0
C      1  0.5226260000000  0.4345030000000  0.4460430000000 1.0
C      1  0.6139140000000  0.4939230000000  0.4591840000000 1.0
C      1  0.4773520000000  0.5474880000000  0.5852430000000 1.0
C      1  0.4240480000000  0.5517260000000  0.5462810000000 1.0
C      1  0.5269280000000  0.5133320000000  0.6100090000000 1.0
C      1  0.5925230000000  0.4505720000000  0.4658050000000 1.0
C      1  0.4051060000000  0.5322860000000  0.5377690000000 1.0
C      1  0.6196860000000  0.5012070000000  0.5457930000000 1.0
C      1  0.4305120000000  0.3962790000000  0.4488320000000 1.0
C      1  0.5873300000000  0.5324540000000  0.4386940000000 1.0
C      1  0.5188240000000  0.5400100000000  0.6138030000000 1.0
C      1  0.4485140000000  0.5863060000000  0.4531680000000 1.0
C      1  0.6443230000000  0.5574370000000  0.5809750000000 1.0
C      1  0.5439540000000  0.5770310000000  0.4497170000000 1.0
C      1  0.4241260000000  0.3957880000000  0.5007580000000 1.0
C      1  0.4722370000000  0.5192030000000  0.5783470000000 1.0
C      1  0.4970110000000  0.5530770000000  0.6046530000000 1.0
C      1  0.5087070000000  0.5093420000000  0.5237970000000 1.0
C      1  0.4520410000000  0.5870670000000  0.5281400000000 1.0
C      1  0.5767060000000  0.5166480000000  0.5268610000000 1.0
C      1  0.4943010000000  0.4013940000000  0.4591890000000 1.0
C      1  0.5312090000000  0.3545560000000  0.5726800000000 1.0
C      1  0.4361000000000  0.5372390000000  0.4236340000000 1.0
C      1  0.5103870000000  0.4733980000000  0.4949500000000 1.0
C      1  0.5183770000000  0.5624280000000  0.4913450000000 1.0
C      1  0.5647030000000  0.4834140000000  0.4842650000000 1.0
C      1  0.5069060000000  0.4753910000000  0.5517420000000 1.0
C      1  0.5880010000000  0.5593060000000  0.4474930000000 1.0
C      1  0.4974530000000  0.4508370000000  0.5871910000000 1.0
C      1  0.4400310000000  0.4980620000000  0.5101320000000 1.0
C      1  0.5507610000000  0.5016590000000  0.5965690000000 1.0
C      1  0.4438710000000  0.4139110000000  0.4337140000000 1.0
C      1  0.4829860000000  0.4695790000000  0.5685800000000 1.0
C      1  0.4215450000000  0.4235960000000  0.5067430000000 1.0
C      1  0.4489690000000  0.4929760000000  0.4239980000000 1.0
C      1  0.6211100000000  0.5701790000000  0.5852600000000 1.0
C      1  0.5431190000000  0.5718710000000  0.4218110000000 1.0
C      1  0.4991010000000  0.4980250000000  0.3989450000000 1.0
C      1  0.5165040000000  0.5024510000000  0.5497600000000 1.0
C      1  0.6078420000000  0.4677920000000  0.4484680000000 1.0
C      1  0.5195990000000  0.5745180000000  0.4645590000000 1.0
C      1  0.4273520000000  0.5417530000000  0.4504120000000 1.0
C      1  0.4821200000000  0.4769420000000  0.4921920000000 1.0
C      1  0.5242300000000  0.5190740000000  0.4821880000000 1.0
C      1  0.5773600000000  0.5890760000000  0.4852480000000 1.0
C      1  0.4886470000000  0.4046810000000  0.4884280000000 1.0
C      1  0.4294360000000  0.4748710000000  0.4168830000000 1.0
C      1  0.4539770000000  0.5440940000000  0.5432500000000 1.0
C      1  0.4170970000000  0.5200580000000  0.4667620000000 1.0
C      1  0.5321880000000  0.4865310000000  0.4293420000000 1.0
C      1  0.5275690000000  0.5038860000000  0.4070000000000 1.0
C      1  0.5582420000000  0.5527020000000  0.5526030000000 1.0
C      1  0.5387010000000  0.5410760000000  0.4944340000000 1.0
C      1  0.6510820000000  0.5337410000000  0.5705250000000 1.0
C      1  0.4859810000000  0.3814170000000  0.5044410000000 1.0
C      1  0.5259370000000  0.4511720000000  0.4965610000000 1.0
C      1  0.5303190000000  0.5545500000000  0.5553550000000 1.0
C      1  0.3968890000000  0.4249290000000  0.5489630000000 1.0
C      1  0.3955280000000  0.5578300000000  0.4971550000000 1.0
C      1  0.6250880000000  0.4911000000000  0.4855950000000 1.0
C      1  0.4650940000000  0.4932640000000  0.4468770000000 1.0
C      1  0.4801740000000  0.5016650000000  0.5990910000000 1.0
C      1  0.5185690000000  0.4059800000000  0.5714130000000 1.0
C      1  0.4737860000000  0.4467940000000  0.4566550000000 1.0
END
