TITL C-599895-9959-897 -0.0232398129306574 125000 -1105.86080831345 0 0 182 (C1) n - 1
REM
REM in /home/nfs/bkarasulu/CARBON/AIRSS/Generating-Clusters/TERSOFF/Only-C1/FIRE-HFTN
REM
REM
REM
REM
REM
REM ./C.cell (11c1c37f851c82e70ff6c80c92926a4b)
REM AIRSS Version 0.9.1 bugfix July 2018 build 013d7b7c2542+ Fri, 06 Jul 2018 19:26:36 +0100
REM compiler GCC version 9.2.1 20190827 (Red Hat 9.2.1-1)
REM options -cpp -mtune=generic -march=x86-64 -g -O0 -fpre-include=/usr/include/finclude/math-vector-fortran.h
REM seed 210839691 -80345988 -1079950573 -13146413 740859250 -682777500 1392011875 -1951475713 -290182432 -1906853915 1210829319 938075975 -290112908 -436919628 -1003216899 982570492 -2140861953 -529757778 -580242911 -1395122829 -1289427483 1789377276 -1021608352 1510459230 1217797932 677888851 -583712037 1657897131 -1086761127 253202661 -2123514701 1216013136 646274633
REM
CELL 1.54180   50.00000   50.00000   50.00000   90.00000   90.00000   90.00000
LATT -1
SFAC C  
C      1  0.4792630000000  0.6160480000000  0.4967800000000 1.0
C      1  0.5075740000000  0.5855880000000  0.5304130000000 1.0
C      1  0.5031700000000  0.6206960000000  0.4784380000000 1.0
C      1  0.4834170000000  0.5619940000000  0.5851680000000 1.0
C      1  0.4522060000000  0.5073660000000  0.4379550000000 1.0
C      1  0.4362360000000  0.4743840000000  0.5983380000000 1.0
C      1  0.4545840000000  0.5186800000000  0.6027200000000 1.0
C      1  0.4416270000000  0.5332620000000  0.4405280000000 1.0
C      1  0.4410190000000  0.5709950000000  0.5580670000000 1.0
C      1  0.5912930000000  0.5778770000000  0.4585900000000 1.0
C      1  0.4251750000000  0.3740580000000  0.5919140000000 1.0
C      1  0.3931720000000  0.4868660000000  0.5391700000000 1.0
C      1  0.5083440000000  0.4567390000000  0.5263280000000 1.0
C      1  0.5250840000000  0.5961240000000  0.4371320000000 1.0
C      1  0.4714690000000  0.4127650000000  0.6451070000000 1.0
C      1  0.4636730000000  0.3983840000000  0.5633850000000 1.0
C      1  0.5765540000000  0.4803020000000  0.4111760000000 1.0
C      1  0.4147280000000  0.5450670000000  0.5069420000000 1.0
C      1  0.4656420000000  0.4262480000000  0.5554970000000 1.0
C      1  0.4874980000000  0.5422690000000  0.5018500000000 1.0
C      1  0.5866170000000  0.6058070000000  0.5366190000000 1.0
C      1  0.5917170000000  0.4189810000000  0.5196410000000 1.0
C      1  0.6083290000000  0.6114330000000  0.4928660000000 1.0
C      1  0.5011780000000  0.5140750000000  0.5359820000000 1.0
C      1  0.4365840000000  0.4864030000000  0.4498950000000 1.0
C      1  0.4105130000000  0.4556550000000  0.5025270000000 1.0
C      1  0.4900140000000  0.4749100000000  0.4877610000000 1.0
C      1  0.5442300000000  0.6353400000000  0.5115640000000 1.0
C      1  0.4836770000000  0.5736240000000  0.5391580000000 1.0
C      1  0.3705550000000  0.4481110000000  0.4401270000000 1.0
C      1  0.5505490000000  0.4373480000000  0.5254550000000 1.0
C      1  0.5197720000000  0.5761610000000  0.5055020000000 1.0
C      1  0.5161530000000  0.6098490000000  0.5417490000000 1.0
C      1  0.5061210000000  0.4329520000000  0.5766290000000 1.0
C      1  0.5765100000000  0.4304700000000  0.4718410000000 1.0
C      1  0.5021480000000  0.4998690000000  0.4871350000000 1.0
C      1  0.6335150000000  0.4954600000000  0.4905340000000 1.0
C      1  0.4145040000000  0.4186450000000  0.5438020000000 1.0
C      1  0.5598820000000  0.4409220000000  0.5906360000000 1.0
C      1  0.4740760000000  0.5694850000000  0.4513580000000 1.0
C      1  0.4935390000000  0.5360630000000  0.5771890000000 1.0
C      1  0.5179930000000  0.4161530000000  0.5567350000000 1.0
C      1  0.4723210000000  0.5555950000000  0.5206790000000 1.0
C      1  0.5293880000000  0.4204320000000  0.5138690000000 1.0
C      1  0.4730180000000  0.5622600000000  0.6115980000000 1.0
C      1  0.5314890000000  0.4542210000000  0.4293980000000 1.0
C      1  0.5382680000000  0.4446430000000  0.6070730000000 1.0
C      1  0.3962880000000  0.5004980000000  0.5637920000000 1.0
C      1  0.4601800000000  0.5753070000000  0.4263780000000 1.0
C      1  0.5130550000000  0.4171320000000  0.4541870000000 1.0
C      1  0.4307880000000  0.3876260000000  0.4661730000000 1.0
C      1  0.3956710000000  0.4610650000000  0.5267250000000 1.0
C      1  0.4069390000000  0.4159960000000  0.4682020000000 1.0
C      1  0.4424740000000  0.3887180000000  0.5790180000000 1.0
C      1  0.4735570000000  0.4717950000000  0.5707430000000 1.0
C      1  0.5052770000000  0.5590870000000  0.4881140000000 1.0
C      1  0.4852640000000  0.4668770000000  0.5147260000000 1.0
C      1  0.4539850000000  0.5671380000000  0.4715450000000 1.0
C      1  0.5449320000000  0.5176790000000  0.5278930000000 1.0
C      1  0.5700970000000  0.5381990000000  0.3746090000000 1.0
C      1  0.5085850000000  0.3710600000000  0.5545550000000 1.0
C      1  0.4574820000000  0.4613230000000  0.5198490000000 1.0
C      1  0.4428100000000  0.5912560000000  0.4819890000000 1.0
C      1  0.5515740000000  0.4466780000000  0.4737750000000 1.0
C      1  0.5384610000000  0.4646000000000  0.5195990000000 1.0
C      1  0.5624930000000  0.5330930000000  0.4552350000000 1.0
C      1  0.5308880000000  0.3997440000000  0.4947910000000 1.0
C      1  0.5085840000000  0.4278720000000  0.5312730000000 1.0
C      1  0.5520060000000  0.3825660000000  0.5315750000000 1.0
C      1  0.4362860000000  0.4687360000000  0.5005190000000 1.0
C      1  0.4104260000000  0.5697130000000  0.4359280000000 1.0
C      1  0.6300450000000  0.5098680000000  0.5388010000000 1.0
C      1  0.4114520000000  0.5972100000000  0.4433760000000 1.0
C      1  0.5099460000000  0.4420360000000  0.6036110000000 1.0
C      1  0.4694580000000  0.5740830000000  0.5637250000000 1.0
C      1  0.4829510000000  0.4451040000000  0.5661420000000 1.0
C      1  0.3765180000000  0.4853130000000  0.4736980000000 1.0
C      1  0.6063840000000  0.5953500000000  0.4717200000000 1.0
C      1  0.6110590000000  0.5303190000000  0.5457280000000 1.0
C      1  0.4706760000000  0.4603360000000  0.4729040000000 1.0
C      1  0.5405830000000  0.5334390000000  0.5520090000000 1.0
C      1  0.5915890000000  0.4451160000000  0.4504830000000 1.0
C      1  0.5720830000000  0.5701460000000  0.5634010000000 1.0
C      1  0.4217790000000  0.5204850000000  0.5208980000000 1.0
C      1  0.5793130000000  0.4095130000000  0.4945520000000 1.0
C      1  0.4528740000000  0.4373450000000  0.5337330000000 1.0
C      1  0.6016260000000  0.4734680000000  0.5190690000000 1.0
C      1  0.3977760000000  0.5046810000000  0.5174550000000 1.0
C      1  0.4347420000000  0.5841990000000  0.5318420000000 1.0
C      1  0.5399020000000  0.6245680000000  0.5382880000000 1.0
C      1  0.5137130000000  0.5153200000000  0.3362500000000 1.0
C      1  0.5571740000000  0.5317820000000  0.3994330000000 1.0
C      1  0.4831180000000  0.3856350000000  0.4779440000000 1.0
C      1  0.5679910000000  0.5088200000000  0.4134850000000 1.0
C      1  0.5934940000000  0.5784880000000  0.5444100000000 1.0
C      1  0.4145390000000  0.4332420000000  0.5684020000000 1.0
C      1  0.4795840000000  0.4097560000000  0.4123340000000 1.0
C      1  0.4641310000000  0.4978480000000  0.5590310000000 1.0
C      1  0.5802940000000  0.4799870000000  0.5003230000000 1.0
C      1  0.4244890000000  0.6053960000000  0.4657330000000 1.0
C      1  0.3892950000000  0.4631680000000  0.4577370000000 1.0
C      1  0.4138900000000  0.5702570000000  0.5191110000000 1.0
C      1  0.6122070000000  0.5008650000000  0.4721070000000 1.0
C      1  0.4308960000000  0.5034480000000  0.5973470000000 1.0
C      1  0.3823140000000  0.5016230000000  0.4941820000000 1.0
C      1  0.5347520000000  0.5747070000000  0.4228260000000 1.0
C      1  0.5725160000000  0.5593130000000  0.4559470000000 1.0
C      1  0.5312380000000  0.4398000000000  0.4542890000000 1.0
C      1  0.5077460000000  0.5012040000000  0.4405780000000 1.0
C      1  0.5877050000000  0.5251450000000  0.5614870000000 1.0
C      1  0.6122360000000  0.5580640000000  0.5381160000000 1.0
C      1  0.5212470000000  0.4801190000000  0.4281900000000 1.0
C      1  0.5381030000000  0.5933470000000  0.4931510000000 1.0
C      1  0.4244340000000  0.5466630000000  0.5689900000000 1.0
C      1  0.5573820000000  0.3893870000000  0.5020020000000 1.0
C      1  0.3903710000000  0.4044990000000  0.4471700000000 1.0
C      1  0.4802800000000  0.5050820000000  0.4340910000000 1.0
C      1  0.5992380000000  0.4958310000000  0.4476190000000 1.0
C      1  0.4495310000000  0.4137650000000  0.4966360000000 1.0
C      1  0.4827320000000  0.6184080000000  0.4314010000000 1.0
C      1  0.5511170000000  0.5276430000000  0.5019960000000 1.0
C      1  0.6252590000000  0.4904420000000  0.5181340000000 1.0
C      1  0.5097060000000  0.3983110000000  0.4757470000000 1.0
C      1  0.5127590000000  0.5293610000000  0.5576640000000 1.0
C      1  0.3972640000000  0.5534580000000  0.4566980000000 1.0
C      1  0.4447890000000  0.5089280000000  0.5375760000000 1.0
C      1  0.5648950000000  0.5426920000000  0.5633970000000 1.0
C      1  0.5097330000000  0.5423460000000  0.3973690000000 1.0
C      1  0.5303370000000  0.3893520000000  0.5511210000000 1.0
C      1  0.4143500000000  0.5180820000000  0.5777610000000 1.0
C      1  0.4828070000000  0.3787350000000  0.5564280000000 1.0
C      1  0.4588290000000  0.5405530000000  0.6200650000000 1.0
C      1  0.4824890000000  0.4497850000000  0.6141420000000 1.0
C      1  0.4651510000000  0.4337360000000  0.4816260000000 1.0
C      1  0.4945010000000  0.5215500000000  0.3538690000000 1.0
C      1  0.5921230000000  0.4700040000000  0.4349500000000 1.0
C      1  0.4969790000000  0.4130960000000  0.4314570000000 1.0
C      1  0.5295920000000  0.6207370000000  0.4913960000000 1.0
C      1  0.4055420000000  0.3584880000000  0.4275580000000 1.0
C      1  0.5541960000000  0.4138990000000  0.3635370000000 1.0
C      1  0.5417720000000  0.5243910000000  0.4738110000000 1.0
C      1  0.3716750000000  0.4214250000000  0.4354210000000 1.0
C      1  0.5543110000000  0.4683190000000  0.4932670000000 1.0
C      1  0.5403650000000  0.5177100000000  0.3359230000000 1.0
C      1  0.4663030000000  0.6014830000000  0.4177560000000 1.0
C      1  0.4134490000000  0.5437900000000  0.4786920000000 1.0
C      1  0.5445040000000  0.4899740000000  0.5330390000000 1.0
C      1  0.4252300000000  0.4466310000000  0.5927760000000 1.0
C      1  0.5718180000000  0.6403850000000  0.5066450000000 1.0
C      1  0.4542980000000  0.3900240000000  0.4810990000000 1.0
C      1  0.5181620000000  0.5096230000000  0.4660350000000 1.0
C      1  0.5471790000000  0.4274780000000  0.3846530000000 1.0
C      1  0.4019720000000  0.4426700000000  0.4778370000000 1.0
C      1  0.5046220000000  0.6136590000000  0.4491910000000 1.0
C      1  0.4114180000000  0.4765430000000  0.4418750000000 1.0
C      1  0.4644460000000  0.4298300000000  0.6250420000000 1.0
C      1  0.5400770000000  0.4412480000000  0.4061450000000 1.0
C      1  0.5605280000000  0.5265210000000  0.3509750000000 1.0
C      1  0.4664010000000  0.4698130000000  0.5992900000000 1.0
C      1  0.5350190000000  0.5496880000000  0.4079130000000 1.0
C      1  0.5743130000000  0.4309870000000  0.5394080000000 1.0
C      1  0.6537390000000  0.5086960000000  0.5526460000000 1.0
C      1  0.4959030000000  0.5168090000000  0.5086130000000 1.0
C      1  0.4060050000000  0.3804730000000  0.4427600000000 1.0
C      1  0.4347520000000  0.4190080000000  0.5218340000000 1.0
C      1  0.4724590000000  0.5169760000000  0.5799870000000 1.0
C      1  0.5443850000000  0.5963260000000  0.5956980000000 1.0
C      1  0.4360190000000  0.5581790000000  0.4255060000000 1.0
C      1  0.4460490000000  0.4750110000000  0.4737220000000 1.0
C      1  0.4545800000000  0.6014870000000  0.5059850000000 1.0
C      1  0.4994680000000  0.5633660000000  0.4609920000000 1.0
C      1  0.5920240000000  0.6212120000000  0.5132940000000 1.0
C      1  0.4384240000000  0.4297260000000  0.6127410000000 1.0
C      1  0.5624940000000  0.6135510000000  0.5520060000000 1.0
C      1  0.5913350000000  0.5554370000000  0.3742410000000 1.0
C      1  0.5732290000000  0.4352090000000  0.5675950000000 1.0
C      1  0.5780060000000  0.5149810000000  0.4399260000000 1.0
C      1  0.5897970000000  0.5047860000000  0.4896460000000 1.0
C      1  0.4396640000000  0.5429050000000  0.4679850000000 1.0
C      1  0.4939880000000  0.5325520000000  0.3782380000000 1.0
C      1  0.5580330000000  0.5934040000000  0.5724650000000 1.0
C      1  0.5794750000000  0.5286340000000  0.4990650000000 1.0
END
