TITL C-599897-7526-875 0.108567966566013 125000 -694.498095582358 0 0 114 (C1) n - 1
REM
REM in /home/nfs/bkarasulu/CARBON/AIRSS/Generating-Clusters/TERSOFF/Only-C1/FIRE-HFTN
REM
REM
REM
REM
REM
REM ./C.cell (11c1c37f851c82e70ff6c80c92926a4b)
REM AIRSS Version 0.9.1 bugfix July 2018 build 013d7b7c2542+ Fri, 06 Jul 2018 19:26:36 +0100
REM compiler GCC version 9.2.1 20190827 (Red Hat 9.2.1-1)
REM options -cpp -mtune=generic -march=x86-64 -g -O0 -fpre-include=/usr/include/finclude/math-vector-fortran.h
REM seed 895801228 -447973157 -1743667035 -1963533213 1002228885 1580685558 -1810030019 -1307520994 -1970150525 876788916 1102083303 1688059396 -1420493964 -1500680002 -3426324 -1382676189 933059231 -1946192936 559179076 -1409547198 -1676664880 4767842 639949760 859294915 -1346355753 621123413 43213231 57141616 -2042905131 2118620049 707693765 851038884 -2050531165
REM
CELL 1.54180   50.00000   50.00000   50.00000   90.00000   90.00000   90.00000
LATT -1
SFAC C  
C      1  0.5434880000000  0.5380890000000  0.4104190000000 1.0
C      1  0.4878240000000  0.4840360000000  0.5943110000000 1.0
C      1  0.4099280000000  0.4024640000000  0.5315720000000 1.0
C      1  0.5694210000000  0.5533620000000  0.5484020000000 1.0
C      1  0.4864830000000  0.5669660000000  0.5906300000000 1.0
C      1  0.4226800000000  0.5392560000000  0.5617040000000 1.0
C      1  0.4410520000000  0.4369370000000  0.4155860000000 1.0
C      1  0.6182110000000  0.6409570000000  0.5471860000000 1.0
C      1  0.5367720000000  0.5113170000000  0.5127900000000 1.0
C      1  0.4148750000000  0.4419790000000  0.4717420000000 1.0
C      1  0.5434530000000  0.4575540000000  0.4768420000000 1.0
C      1  0.5216210000000  0.5685000000000  0.6825640000000 1.0
C      1  0.4895100000000  0.4351130000000  0.4060500000000 1.0
C      1  0.4098850000000  0.4579500000000  0.4491110000000 1.0
C      1  0.4831160000000  0.5159820000000  0.3955630000000 1.0
C      1  0.4741250000000  0.5038620000000  0.6085180000000 1.0
C      1  0.5475160000000  0.4117970000000  0.5049980000000 1.0
C      1  0.4915840000000  0.5004460000000  0.4997220000000 1.0
C      1  0.4647390000000  0.4686170000000  0.5171850000000 1.0
C      1  0.5167350000000  0.4411770000000  0.5677870000000 1.0
C      1  0.5346870000000  0.5734200000000  0.7045810000000 1.0
C      1  0.4722900000000  0.4799380000000  0.4912050000000 1.0
C      1  0.6101200000000  0.5680970000000  0.5316330000000 1.0
C      1  0.5284860000000  0.4639110000000  0.5017640000000 1.0
C      1  0.4753730000000  0.4593090000000  0.4702510000000 1.0
C      1  0.4880570000000  0.5605880000000  0.4816740000000 1.0
C      1  0.5024480000000  0.5360180000000  0.5340180000000 1.0
C      1  0.4962970000000  0.4503570000000  0.3828910000000 1.0
C      1  0.5067060000000  0.4147260000000  0.4143930000000 1.0
C      1  0.5845480000000  0.4989900000000  0.4900070000000 1.0
C      1  0.4387680000000  0.5297720000000  0.5427100000000 1.0
C      1  0.4866420000000  0.4349760000000  0.4811340000000 1.0
C      1  0.4492720000000  0.4206440000000  0.5508670000000 1.0
C      1  0.4907460000000  0.5717210000000  0.5648100000000 1.0
C      1  0.4908690000000  0.4399450000000  0.3575440000000 1.0
C      1  0.5981810000000  0.5912640000000  0.5440840000000 1.0
C      1  0.5889460000000  0.4746080000000  0.5011770000000 1.0
C      1  0.5683080000000  0.5324750000000  0.4237210000000 1.0
C      1  0.5437770000000  0.5528590000000  0.4569450000000 1.0
C      1  0.5463920000000  0.4738950000000  0.5533560000000 1.0
C      1  0.4831100000000  0.5184450000000  0.5219020000000 1.0
C      1  0.4045610000000  0.4855160000000  0.4502970000000 1.0
C      1  0.5307260000000  0.5195030000000  0.3941130000000 1.0
C      1  0.4746220000000  0.4635840000000  0.5794600000000 1.0
C      1  0.4727880000000  0.5346080000000  0.4398440000000 1.0
C      1  0.5243320000000  0.5948710000000  0.4515650000000 1.0
C      1  0.5307610000000  0.5563260000000  0.4288880000000 1.0
C      1  0.4672750000000  0.4887010000000  0.4326800000000 1.0
C      1  0.5714810000000  0.4247560000000  0.5038770000000 1.0
C      1  0.5293330000000  0.4665240000000  0.5753720000000 1.0
C      1  0.5318890000000  0.5755790000000  0.4722700000000 1.0
C      1  0.4677190000000  0.4427020000000  0.4224510000000 1.0
C      1  0.4293840000000  0.4231470000000  0.4838780000000 1.0
C      1  0.5279270000000  0.4324130000000  0.5422170000000 1.0
C      1  0.5162180000000  0.4860010000000  0.5911030000000 1.0
C      1  0.4859250000000  0.4511210000000  0.5241160000000 1.0
C      1  0.4380860000000  0.4069890000000  0.5281890000000 1.0
C      1  0.4951630000000  0.5583850000000  0.6377780000000 1.0
C      1  0.5299940000000  0.5280410000000  0.5341250000000 1.0
C      1  0.4803860000000  0.5607950000000  0.3716070000000 1.0
C      1  0.5935190000000  0.5461620000000  0.5341760000000 1.0
C      1  0.5083380000000  0.5634970000000  0.6601790000000 1.0
C      1  0.4344710000000  0.4445060000000  0.5595970000000 1.0
C      1  0.6086590000000  0.6167640000000  0.5455710000000 1.0
C      1  0.5411180000000  0.4578120000000  0.5300590000000 1.0
C      1  0.5080560000000  0.4757440000000  0.3853750000000 1.0
C      1  0.4990700000000  0.5637810000000  0.5394630000000 1.0
C      1  0.5298900000000  0.5101200000000  0.5952750000000 1.0
C      1  0.4744870000000  0.5352860000000  0.3771970000000 1.0
C      1  0.5198310000000  0.4176450000000  0.5162770000000 1.0
C      1  0.5856990000000  0.4478620000000  0.5039650000000 1.0
C      1  0.4709780000000  0.4629300000000  0.4425060000000 1.0
C      1  0.5160550000000  0.5814790000000  0.4273670000000 1.0
C      1  0.4479210000000  0.4108550000000  0.5014060000000 1.0
C      1  0.5114570000000  0.5725710000000  0.4917920000000 1.0
C      1  0.4174830000000  0.4460740000000  0.4246450000000 1.0
C      1  0.4585530000000  0.5116070000000  0.5354210000000 1.0
C      1  0.5547300000000  0.5970310000000  0.5685820000000 1.0
C      1  0.3948270000000  0.4202290000000  0.5458290000000 1.0
C      1  0.4972240000000  0.3982330000000  0.5097640000000 1.0
C      1  0.5192900000000  0.4925230000000  0.5010320000000 1.0
C      1  0.5725640000000  0.5818270000000  0.5547490000000 1.0
C      1  0.4063630000000  0.4412450000000  0.5588700000000 1.0
C      1  0.4671390000000  0.5892440000000  0.4262450000000 1.0
C      1  0.5731430000000  0.4647140000000  0.4400450000000 1.0
C      1  0.5781690000000  0.5094740000000  0.4643880000000 1.0
C      1  0.4755750000000  0.4102500000000  0.4936100000000 1.0
C      1  0.4854050000000  0.4299880000000  0.3340890000000 1.0
C      1  0.5097230000000  0.5799960000000  0.5188770000000 1.0
C      1  0.4905690000000  0.5812830000000  0.3855850000000 1.0
C      1  0.4892280000000  0.4387060000000  0.5742310000000 1.0
C      1  0.4643380000000  0.5297930000000  0.6126780000000 1.0
C      1  0.4821990000000  0.5519680000000  0.6139580000000 1.0
C      1  0.5473760000000  0.4233790000000  0.4423690000000 1.0
C      1  0.4754050000000  0.5465090000000  0.4632840000000 1.0
C      1  0.5290670000000  0.4104020000000  0.4281330000000 1.0
C      1  0.5823940000000  0.4894050000000  0.4443770000000 1.0
C      1  0.4126560000000  0.5375120000000  0.4421290000000 1.0
C      1  0.4735770000000  0.4171910000000  0.5645740000000 1.0
C      1  0.4208150000000  0.5403820000000  0.5883300000000 1.0
C      1  0.4428030000000  0.5796870000000  0.4321170000000 1.0
C      1  0.4370420000000  0.5352250000000  0.6089510000000 1.0
C      1  0.4241640000000  0.5610930000000  0.4369610000000 1.0
C      1  0.4511670000000  0.4676920000000  0.5626970000000 1.0
C      1  0.5550390000000  0.4478670000000  0.4531730000000 1.0
C      1  0.5425360000000  0.5285650000000  0.5807150000000 1.0
C      1  0.5477430000000  0.5368360000000  0.5544200000000 1.0
C      1  0.4544750000000  0.4836080000000  0.5389070000000 1.0
C      1  0.5081450000000  0.5032230000000  0.3904440000000 1.0
C      1  0.4921470000000  0.5865270000000  0.4132180000000 1.0
C      1  0.5062990000000  0.4431280000000  0.5029970000000 1.0
C      1  0.5661040000000  0.5331660000000  0.4533360000000 1.0
C      1  0.4727890000000  0.5135560000000  0.4217970000000 1.0
C      1  0.4065710000000  0.5119660000000  0.4470880000000 1.0
END
