TITL C-599894-471-1183 1.05196688554533 125000 -983.672405116635 0 0 160 (C1) n - 1
REM
REM in /home/nfs/bkarasulu/CARBON/AIRSS/Generating-Clusters/TERSOFF/Only-C1/FIRE-HFTN
REM
REM
REM
REM
REM
REM ./C.cell (11c1c37f851c82e70ff6c80c92926a4b)
REM AIRSS Version 0.9.1 bugfix July 2018 build 013d7b7c2542+ Fri, 06 Jul 2018 19:26:36 +0100
REM compiler GCC version 9.2.1 20190827 (Red Hat 9.2.1-1)
REM options -cpp -mtune=generic -march=x86-64 -g -O0 -fpre-include=/usr/include/finclude/math-vector-fortran.h
REM seed -857442769 -1858147814 -671831170 574283 -1923654919 -914180925 -1244264984 1838913735 1632476758 -668805325 285893921 -419022887 661456623 -671167495 -231770818 -1525303492 1808328887 887477715 -1658236824 -151541262 -519312791 641388052 -1340106834 -2078314024 -618325729 -195740449 -854262569 -1767382670 -825008266 -1354336641 509537284 -1234709975 -557388450
REM
CELL 1.54180   50.00000   50.00000   50.00000   90.00000   90.00000   90.00000
LATT -1
SFAC C  
C      1  0.4194100000000  0.5589920000000  0.4648200000000 1.0
C      1  0.4259670000000  0.5016370000000  0.4176230000000 1.0
C      1  0.5669600000000  0.4334030000000  0.5411940000000 1.0
C      1  0.5840760000000  0.5170800000000  0.5299490000000 1.0
C      1  0.5017320000000  0.3685730000000  0.5607610000000 1.0
C      1  0.5199500000000  0.4950670000000  0.5046440000000 1.0
C      1  0.5161820000000  0.4965150000000  0.4355930000000 1.0
C      1  0.5323160000000  0.4845200000000  0.3876790000000 1.0
C      1  0.4875650000000  0.5656840000000  0.5844910000000 1.0
C      1  0.5125830000000  0.4835950000000  0.4807330000000 1.0
C      1  0.4939400000000  0.4251040000000  0.5852320000000 1.0
C      1  0.4468850000000  0.4229030000000  0.5623030000000 1.0
C      1  0.4397620000000  0.4704040000000  0.5975090000000 1.0
C      1  0.4872030000000  0.4419880000000  0.5117520000000 1.0
C      1  0.5430260000000  0.5940090000000  0.5448720000000 1.0
C      1  0.4163770000000  0.4466760000000  0.5045510000000 1.0
C      1  0.5965190000000  0.4337260000000  0.4605550000000 1.0
C      1  0.4251930000000  0.4048400000000  0.5657820000000 1.0
C      1  0.5109180000000  0.4929100000000  0.6056170000000 1.0
C      1  0.5655230000000  0.4068060000000  0.5528890000000 1.0
C      1  0.4643610000000  0.5515590000000  0.4145530000000 1.0
C      1  0.4234450000000  0.5423430000000  0.4426850000000 1.0
C      1  0.5371350000000  0.5025690000000  0.5581210000000 1.0
C      1  0.4667130000000  0.4679210000000  0.6062900000000 1.0
C      1  0.4386490000000  0.6184030000000  0.5438380000000 1.0
C      1  0.5503980000000  0.5234280000000  0.4742830000000 1.0
C      1  0.4742210000000  0.6278810000000  0.4599210000000 1.0
C      1  0.5003770000000  0.5407120000000  0.4781160000000 1.0
C      1  0.4910480000000  0.5078070000000  0.3971770000000 1.0
C      1  0.4118950000000  0.5631380000000  0.5607680000000 1.0
C      1  0.4151000000000  0.5138550000000  0.4429550000000 1.0
C      1  0.4634020000000  0.5920250000000  0.4928370000000 1.0
C      1  0.4758220000000  0.4808320000000  0.4026730000000 1.0
C      1  0.3970270000000  0.5063840000000  0.4632600000000 1.0
C      1  0.4842510000000  0.4249210000000  0.4887840000000 1.0
C      1  0.4752600000000  0.5802530000000  0.5163140000000 1.0
C      1  0.5710500000000  0.4741910000000  0.4696410000000 1.0
C      1  0.4792890000000  0.5632870000000  0.4349070000000 1.0
C      1  0.5484580000000  0.5219660000000  0.6130120000000 1.0
C      1  0.5304680000000  0.4071480000000  0.5227310000000 1.0
C      1  0.3825520000000  0.5112620000000  0.4854230000000 1.0
C      1  0.5287160000000  0.5597970000000  0.4007490000000 1.0
C      1  0.4920030000000  0.4672310000000  0.5650800000000 1.0
C      1  0.5742670000000  0.5383790000000  0.4763690000000 1.0
C      1  0.5617000000000  0.4969630000000  0.6153710000000 1.0
C      1  0.5842750000000  0.5664800000000  0.5110290000000 1.0
C      1  0.5034500000000  0.6143460000000  0.5017210000000 1.0
C      1  0.6017130000000  0.4796120000000  0.4687780000000 1.0
C      1  0.4915960000000  0.5205000000000  0.5640250000000 1.0
C      1  0.6149690000000  0.4561590000000  0.4604020000000 1.0
C      1  0.4707730000000  0.4371740000000  0.4666980000000 1.0
C      1  0.5003550000000  0.5857930000000  0.5683910000000 1.0
C      1  0.4545960000000  0.4834630000000  0.4697760000000 1.0
C      1  0.5884450000000  0.4701400000000  0.5158850000000 1.0
C      1  0.5117020000000  0.5084850000000  0.5462620000000 1.0
C      1  0.4939660000000  0.5561140000000  0.4558330000000 1.0
C      1  0.5606280000000  0.5810070000000  0.4647310000000 1.0
C      1  0.5461440000000  0.6095210000000  0.5229820000000 1.0
C      1  0.4046660000000  0.3883120000000  0.5683940000000 1.0
C      1  0.5270850000000  0.5358360000000  0.6015570000000 1.0
C      1  0.6014330000000  0.4238140000000  0.5092170000000 1.0
C      1  0.5878390000000  0.5452900000000  0.5279560000000 1.0
C      1  0.4549540000000  0.5218410000000  0.4988900000000 1.0
C      1  0.3841170000000  0.3717640000000  0.5709400000000 1.0
C      1  0.5406880000000  0.4505200000000  0.5013210000000 1.0
C      1  0.4845150000000  0.5523970000000  0.5245290000000 1.0
C      1  0.4331280000000  0.5973290000000  0.4937710000000 1.0
C      1  0.4365110000000  0.5473880000000  0.4168540000000 1.0
C      1  0.4826380000000  0.4920220000000  0.6033790000000 1.0
C      1  0.4338790000000  0.4734600000000  0.5695860000000 1.0
C      1  0.5276100000000  0.5365290000000  0.4861510000000 1.0
C      1  0.5253070000000  0.3967450000000  0.4969990000000 1.0
C      1  0.5652640000000  0.5409300000000  0.4273000000000 1.0
C      1  0.5316990000000  0.6116460000000  0.4985460000000 1.0
C      1  0.4344490000000  0.5003090000000  0.5581310000000 1.0
C      1  0.5997240000000  0.5070500000000  0.4173540000000 1.0
C      1  0.4512510000000  0.4942670000000  0.4949920000000 1.0
C      1  0.4369390000000  0.5318600000000  0.5181330000000 1.0
C      1  0.5024620000000  0.5401850000000  0.5857450000000 1.0
C      1  0.5814430000000  0.4602520000000  0.4075510000000 1.0
C      1  0.5046830000000  0.4065600000000  0.4798980000000 1.0
C      1  0.5014560000000  0.4911150000000  0.5254000000000 1.0
C      1  0.5432220000000  0.3913230000000  0.5437970000000 1.0
C      1  0.4547140000000  0.4756460000000  0.5157950000000 1.0
C      1  0.4717310000000  0.5348440000000  0.5469790000000 1.0
C      1  0.4911900000000  0.6032020000000  0.5263080000000 1.0
C      1  0.4809510000000  0.4949850000000  0.5740550000000 1.0
C      1  0.4924530000000  0.4332840000000  0.4191670000000 1.0
C      1  0.5211070000000  0.5100730000000  0.3944930000000 1.0
C      1  0.5150930000000  0.4446690000000  0.4572100000000 1.0
C      1  0.5625940000000  0.4710990000000  0.4994190000000 1.0
C      1  0.4936810000000  0.4567600000000  0.4018240000000 1.0
C      1  0.5896770000000  0.5262180000000  0.4354220000000 1.0
C      1  0.5230300000000  0.4592210000000  0.3965730000000 1.0
C      1  0.4278060000000  0.5248130000000  0.4005510000000 1.0
C      1  0.5381030000000  0.5330550000000  0.4044000000000 1.0
C      1  0.5707020000000  0.4469380000000  0.4521610000000 1.0
C      1  0.5320420000000  0.4898460000000  0.5840830000000 1.0
C      1  0.4729410000000  0.4968130000000  0.4541790000000 1.0
C      1  0.4800740000000  0.3840870000000  0.5634530000000 1.0
C      1  0.4609280000000  0.6179440000000  0.5591870000000 1.0
C      1  0.5426420000000  0.4953070000000  0.4360930000000 1.0
C      1  0.5173860000000  0.4496570000000  0.5537220000000 1.0
C      1  0.5225940000000  0.4570990000000  0.4800950000000 1.0
C      1  0.4451540000000  0.5231530000000  0.5443530000000 1.0
C      1  0.5224900000000  0.4334930000000  0.5797040000000 1.0
C      1  0.5474860000000  0.4943470000000  0.5123460000000 1.0
C      1  0.4817100000000  0.4506370000000  0.5888850000000 1.0
C      1  0.5894880000000  0.4431680000000  0.5263060000000 1.0
C      1  0.5366250000000  0.4376840000000  0.5290040000000 1.0
C      1  0.4734030000000  0.4107440000000  0.5697890000000 1.0
C      1  0.4350700000000  0.4562160000000  0.5242250000000 1.0
C      1  0.5143800000000  0.5571410000000  0.5314010000000 1.0
C      1  0.4863080000000  0.6065930000000  0.5542420000000 1.0
C      1  0.4333720000000  0.5659540000000  0.5771650000000 1.0
C      1  0.5992410000000  0.4171500000000  0.4831200000000 1.0
C      1  0.4588720000000  0.5662260000000  0.5864620000000 1.0
C      1  0.5953970000000  0.4830760000000  0.4063040000000 1.0
C      1  0.5199790000000  0.4015010000000  0.4461610000000 1.0
C      1  0.4295420000000  0.4552670000000  0.4265120000000 1.0
C      1  0.4800570000000  0.5362850000000  0.4982240000000 1.0
C      1  0.5520630000000  0.4747580000000  0.5987470000000 1.0
C      1  0.4776020000000  0.5326200000000  0.3982790000000 1.0
C      1  0.5442070000000  0.3818630000000  0.4813190000000 1.0
C      1  0.4916790000000  0.6408910000000  0.4435830000000 1.0
C      1  0.5553820000000  0.4982170000000  0.4605340000000 1.0
C      1  0.5747430000000  0.5651030000000  0.4842390000000 1.0
C      1  0.4821710000000  0.4691420000000  0.5205360000000 1.0
C      1  0.5444290000000  0.6018570000000  0.4751480000000 1.0
C      1  0.4274520000000  0.6157740000000  0.4710440000000 1.0
C      1  0.5575080000000  0.5687180000000  0.4380770000000 1.0
C      1  0.5630710000000  0.4462110000000  0.4241410000000 1.0
C      1  0.4823060000000  0.6117730000000  0.4816840000000 1.0
C      1  0.5989980000000  0.4984900000000  0.5121900000000 1.0
C      1  0.5965590000000  0.5254050000000  0.4647010000000 1.0
C      1  0.4461120000000  0.6289590000000  0.4564580000000 1.0
C      1  0.4211300000000  0.5698600000000  0.4909050000000 1.0
C      1  0.4094650000000  0.4437830000000  0.4780080000000 1.0
C      1  0.5436270000000  0.4465910000000  0.5958390000000 1.0
C      1  0.4278730000000  0.6104420000000  0.5204910000000 1.0
C      1  0.5409550000000  0.3844340000000  0.4541190000000 1.0
C      1  0.4506210000000  0.4560100000000  0.4660910000000 1.0
C      1  0.4378680000000  0.4497220000000  0.5524070000000 1.0
C      1  0.4254770000000  0.4488230000000  0.4545420000000 1.0
C      1  0.4425670000000  0.4783420000000  0.4141380000000 1.0
C      1  0.4892690000000  0.4401010000000  0.4462420000000 1.0
C      1  0.5184670000000  0.4179930000000  0.4217270000000 1.0
C      1  0.3778570000000  0.5401180000000  0.5289260000000 1.0
C      1  0.5578240000000  0.5054500000000  0.5374590000000 1.0
C      1  0.5222160000000  0.5761090000000  0.5517340000000 1.0
C      1  0.4006850000000  0.5556360000000  0.5355700000000 1.0
C      1  0.3639060000000  0.3554890000000  0.5734430000000 1.0
C      1  0.5320640000000  0.5475350000000  0.5119450000000 1.0
C      1  0.5000940000000  0.4941560000000  0.4577090000000 1.0
C      1  0.3741380000000  0.5230730000000  0.5081190000000 1.0
C      1  0.5278790000000  0.3711580000000  0.5553780000000 1.0
C      1  0.5379810000000  0.4385880000000  0.4121020000000 1.0
C      1  0.6061670000000  0.5041850000000  0.4829440000000 1.0
C      1  0.4198370000000  0.5537240000000  0.5143630000000 1.0
C      1  0.5384710000000  0.5784810000000  0.4184380000000 1.0
END
