TITL C-599890-3321-493 0.000188157886012771 125000 -700.864988321202 0 0 114 (C1) n - 1
REM
REM in /home/nfs/bkarasulu/CARBON/AIRSS/Generating-Clusters/TERSOFF/Only-C1/FIRE-HFTN
REM
REM
REM
REM
REM
REM ./C.cell (11c1c37f851c82e70ff6c80c92926a4b)
REM AIRSS Version 0.9.1 bugfix July 2018 build 013d7b7c2542+ Fri, 06 Jul 2018 19:26:36 +0100
REM compiler GCC version 9.2.1 20190827 (Red Hat 9.2.1-1)
REM options -cpp -mtune=generic -march=x86-64 -g -O0 -fpre-include=/usr/include/finclude/math-vector-fortran.h
REM seed -1322115961 1466560389 1048221049 -2107445269 -1863398042 91893743 -1790784230 -1169042643 2102465643 -99888911 -1425206285 -1094978935 1770634100 -763774203 -1363253147 1128635388 -178186496 1048485580 1094735036 568117193 -283686730 1064651665 -1283023638 -853252230 35270203 -27165098 -1344064935 640387634 1395612933 -1576086360 1363161300 1660759219 648719165
REM
CELL 1.54180   50.00000   50.00000   50.00000   90.00000   90.00000   90.00000
LATT -1
SFAC C  
C      1  0.4888160000000  0.4434120000000  0.6026080000000 1.0
C      1  0.4417760000000  0.4596020000000  0.5460640000000 1.0
C      1  0.5422640000000  0.5317070000000  0.4635870000000 1.0
C      1  0.5151870000000  0.4857650000000  0.5992290000000 1.0
C      1  0.4260590000000  0.4895020000000  0.4661880000000 1.0
C      1  0.4476910000000  0.4891240000000  0.4885280000000 1.0
C      1  0.5225510000000  0.5070140000000  0.5816320000000 1.0
C      1  0.5050170000000  0.6008500000000  0.4927620000000 1.0
C      1  0.4784890000000  0.4174830000000  0.4376540000000 1.0
C      1  0.4906280000000  0.5362750000000  0.4190670000000 1.0
C      1  0.3871540000000  0.5282370000000  0.5158720000000 1.0
C      1  0.5381060000000  0.5543350000000  0.4799050000000 1.0
C      1  0.4851500000000  0.5135150000000  0.4023700000000 1.0
C      1  0.5025570000000  0.4932920000000  0.6238080000000 1.0
C      1  0.5910230000000  0.5148940000000  0.5084810000000 1.0
C      1  0.5690750000000  0.5222810000000  0.4635590000000 1.0
C      1  0.5226520000000  0.5195640000000  0.5322350000000 1.0
C      1  0.4659820000000  0.4959320000000  0.5668760000000 1.0
C      1  0.4835440000000  0.4781610000000  0.6359640000000 1.0
C      1  0.5548830000000  0.5933260000000  0.5010250000000 1.0
C      1  0.4915220000000  0.4605830000000  0.5382960000000 1.0
C      1  0.4811650000000  0.4181330000000  0.5589740000000 1.0
C      1  0.3994650000000  0.5502680000000  0.5015140000000 1.0
C      1  0.5403470000000  0.4241810000000  0.5608940000000 1.0
C      1  0.4685100000000  0.5061150000000  0.4766510000000 1.0
C      1  0.5741780000000  0.4425960000000  0.5317950000000 1.0
C      1  0.5256460000000  0.5705890000000  0.4303480000000 1.0
C      1  0.5302520000000  0.5236320000000  0.5600120000000 1.0
C      1  0.5385010000000  0.4725480000000  0.4711590000000 1.0
C      1  0.4764520000000  0.4540490000000  0.6256740000000 1.0
C      1  0.5887770000000  0.5347350000000  0.5305760000000 1.0
C      1  0.5137290000000  0.4465140000000  0.4085560000000 1.0
C      1  0.4351240000000  0.4226330000000  0.4827070000000 1.0
C      1  0.4907510000000  0.4170310000000  0.4645730000000 1.0
C      1  0.4237570000000  0.5631520000000  0.5116850000000 1.0
C      1  0.5196420000000  0.5860180000000  0.5420860000000 1.0
C      1  0.4892110000000  0.5485220000000  0.4876620000000 1.0
C      1  0.5861720000000  0.5617070000000  0.5198300000000 1.0
C      1  0.5754350000000  0.5300500000000  0.5551070000000 1.0
C      1  0.5755540000000  0.4456800000000  0.4574260000000 1.0
C      1  0.4718310000000  0.5619950000000  0.5084970000000 1.0
C      1  0.5644620000000  0.4784240000000  0.5617690000000 1.0
C      1  0.5028840000000  0.5957430000000  0.5221170000000 1.0
C      1  0.3992170000000  0.5318250000000  0.4556810000000 1.0
C      1  0.5833070000000  0.4606280000000  0.5114710000000 1.0
C      1  0.4965660000000  0.5223430000000  0.4446740000000 1.0
C      1  0.4911510000000  0.4314660000000  0.5361070000000 1.0
C      1  0.4581590000000  0.5786020000000  0.4689310000000 1.0
C      1  0.5504670000000  0.5453020000000  0.5590840000000 1.0
C      1  0.3953930000000  0.4776880000000  0.5321310000000 1.0
C      1  0.5008320000000  0.4437790000000  0.4661360000000 1.0
C      1  0.5758540000000  0.5038480000000  0.5660600000000 1.0
C      1  0.4885100000000  0.5905290000000  0.4683040000000 1.0
C      1  0.4554250000000  0.4098350000000  0.4957250000000 1.0
C      1  0.5163500000000  0.4745830000000  0.5323940000000 1.0
C      1  0.5244860000000  0.4946790000000  0.4832040000000 1.0
C      1  0.4824200000000  0.5209910000000  0.4942510000000 1.0
C      1  0.4263580000000  0.5111960000000  0.5324120000000 1.0
C      1  0.4476060000000  0.5712910000000  0.4962200000000 1.0
C      1  0.4339000000000  0.5312940000000  0.5513490000000 1.0
C      1  0.3994770000000  0.5053060000000  0.5270140000000 1.0
C      1  0.4618810000000  0.4635900000000  0.4841240000000 1.0
C      1  0.5109670000000  0.5439870000000  0.5249560000000 1.0
C      1  0.5618920000000  0.4818660000000  0.4266720000000 1.0
C      1  0.5605700000000  0.5714130000000  0.4829320000000 1.0
C      1  0.5000890000000  0.5788700000000  0.4416680000000 1.0
C      1  0.4473760000000  0.5025480000000  0.5162630000000 1.0
C      1  0.4795280000000  0.5618890000000  0.4283830000000 1.0
C      1  0.5261490000000  0.4478110000000  0.4755210000000 1.0
C      1  0.5331090000000  0.6089030000000  0.4911300000000 1.0
C      1  0.4787940000000  0.4237930000000  0.5851650000000 1.0
C      1  0.5159810000000  0.4753050000000  0.4085780000000 1.0
C      1  0.4696510000000  0.5162490000000  0.4519840000000 1.0
C      1  0.5860480000000  0.4829500000000  0.4136590000000 1.0
C      1  0.5669320000000  0.4250630000000  0.4732440000000 1.0
C      1  0.4808870000000  0.5452610000000  0.5312110000000 1.0
C      1  0.5388060000000  0.4930890000000  0.4137250000000 1.0
C      1  0.5451700000000  0.5722380000000  0.5462690000000 1.0
C      1  0.4900640000000  0.4870550000000  0.4131870000000 1.0
C      1  0.4549970000000  0.5599330000000  0.4450310000000 1.0
C      1  0.4524900000000  0.5196470000000  0.5697450000000 1.0
C      1  0.5205800000000  0.4965250000000  0.5134950000000 1.0
C      1  0.4838800000000  0.4093460000000  0.4918280000000 1.0
C      1  0.5159470000000  0.5526940000000  0.4974820000000 1.0
C      1  0.4968230000000  0.4266410000000  0.4170400000000 1.0
C      1  0.4673920000000  0.4720020000000  0.5509610000000 1.0
C      1  0.5380350000000  0.4747730000000  0.5511480000000 1.0
C      1  0.5419400000000  0.4269770000000  0.4864930000000 1.0
C      1  0.5324630000000  0.4188780000000  0.5120160000000 1.0
C      1  0.4226190000000  0.5164470000000  0.4531670000000 1.0
C      1  0.4804060000000  0.4624980000000  0.4619870000000 1.0
C      1  0.5650770000000  0.5810940000000  0.5268000000000 1.0
C      1  0.5318590000000  0.4390010000000  0.5817750000000 1.0
C      1  0.4330120000000  0.4372910000000  0.4580010000000 1.0
C      1  0.5190910000000  0.5150510000000  0.4620970000000 1.0
C      1  0.5872220000000  0.5300000000000  0.4837510000000 1.0
C      1  0.4716840000000  0.5186770000000  0.5208460000000 1.0
C      1  0.5502540000000  0.4255360000000  0.5340860000000 1.0
C      1  0.5603450000000  0.4696130000000  0.4523630000000 1.0
C      1  0.5804800000000  0.4555680000000  0.5569210000000 1.0
C      1  0.5368510000000  0.5488440000000  0.4174370000000 1.0
C      1  0.3940810000000  0.4617110000000  0.4422580000000 1.0
C      1  0.5135080000000  0.4566710000000  0.5942170000000 1.0
C      1  0.4289760000000  0.5572010000000  0.5400640000000 1.0
C      1  0.5027370000000  0.4171080000000  0.5138780000000 1.0
C      1  0.4182760000000  0.4628770000000  0.4556900000000 1.0
C      1  0.5902920000000  0.4866500000000  0.5084250000000 1.0
C      1  0.4773860000000  0.4749270000000  0.4361410000000 1.0
C      1  0.5851250000000  0.5580000000000  0.4902760000000 1.0
C      1  0.5390270000000  0.5222180000000  0.4107990000000 1.0
C      1  0.4465150000000  0.5318670000000  0.4465370000000 1.0
C      1  0.4153790000000  0.4608010000000  0.5400900000000 1.0
C      1  0.3930630000000  0.5504350000000  0.4741080000000 1.0
C      1  0.4508460000000  0.4262610000000  0.4379090000000 1.0
END
