TITL C-599897-7526-909 2.92894121605416 125000 -801.975688305694 0 0 131 (C1) n - 1
REM
REM in /home/nfs/bkarasulu/CARBON/AIRSS/Generating-Clusters/TERSOFF/Only-C1/FIRE-HFTN
REM
REM
REM
REM
REM
REM ./C.cell (11c1c37f851c82e70ff6c80c92926a4b)
REM AIRSS Version 0.9.1 bugfix July 2018 build 013d7b7c2542+ Fri, 06 Jul 2018 19:26:36 +0100
REM compiler GCC version 9.2.1 20190827 (Red Hat 9.2.1-1)
REM options -cpp -mtune=generic -march=x86-64 -g -O0 -fpre-include=/usr/include/finclude/math-vector-fortran.h
REM seed -1322904203 -1504405025 -300802561 90872842 1148330463 1005800688 672134079 -1232905667 1639666598 -603776355 1237496216 -1687811540 334032087 247867152 -981596760 -756218320 1370789041 1868661574 1138431681 778443123 1564780472 2068510888 -1002539541 220392291 -1482946556 412860236 -1971973884 -1567296724 -537467839 -2010593553 646283726 279653212 532613429
REM
CELL 1.54180   50.00000   50.00000   50.00000   90.00000   90.00000   90.00000
LATT -1
SFAC C  
C      1  0.3754430000000  0.5236820000000  0.4545240000000 1.0
C      1  0.5639040000000  0.4923290000000  0.5285430000000 1.0
C      1  0.5238670000000  0.4985750000000  0.3589350000000 1.0
C      1  0.5363370000000  0.4871560000000  0.5277670000000 1.0
C      1  0.5317520000000  0.5696350000000  0.4453890000000 1.0
C      1  0.4598360000000  0.4928040000000  0.5901760000000 1.0
C      1  0.5118520000000  0.4956190000000  0.5759740000000 1.0
C      1  0.5558850000000  0.5235720000000  0.4866680000000 1.0
C      1  0.5340500000000  0.5366050000000  0.5930490000000 1.0
C      1  0.5178610000000  0.4522630000000  0.5483310000000 1.0
C      1  0.5362800000000  0.5416410000000  0.4953540000000 1.0
C      1  0.5384160000000  0.5406260000000  0.5397890000000 1.0
C      1  0.4542820000000  0.5917880000000  0.5073620000000 1.0
C      1  0.4573970000000  0.5680630000000  0.4311030000000 1.0
C      1  0.5126110000000  0.4921030000000  0.4036880000000 1.0
C      1  0.4256180000000  0.4448000000000  0.5259880000000 1.0
C      1  0.5346680000000  0.5222810000000  0.3977160000000 1.0
C      1  0.4229540000000  0.5337840000000  0.4488570000000 1.0
C      1  0.4600470000000  0.5263430000000  0.4770510000000 1.0
C      1  0.5483630000000  0.4378430000000  0.4306960000000 1.0
C      1  0.5448550000000  0.4742440000000  0.4674490000000 1.0
C      1  0.5121050000000  0.4806730000000  0.3779950000000 1.0
C      1  0.5500570000000  0.5326730000000  0.4198290000000 1.0
C      1  0.4847750000000  0.5549100000000  0.5266170000000 1.0
C      1  0.5007110000000  0.5176090000000  0.5039350000000 1.0
C      1  0.5452070000000  0.3972550000000  0.4822380000000 1.0
C      1  0.5765910000000  0.5111610000000  0.5427720000000 1.0
C      1  0.4841350000000  0.5015700000000  0.5761250000000 1.0
C      1  0.4774660000000  0.4566990000000  0.5155460000000 1.0
C      1  0.5614250000000  0.5313630000000  0.5543760000000 1.0
C      1  0.5470740000000  0.5104770000000  0.4398750000000 1.0
C      1  0.4540620000000  0.5041190000000  0.5287080000000 1.0
C      1  0.4268940000000  0.4647930000000  0.5465930000000 1.0
C      1  0.4428840000000  0.5147290000000  0.4577000000000 1.0
C      1  0.5558360000000  0.5826990000000  0.5254190000000 1.0
C      1  0.4342420000000  0.5543990000000  0.4328140000000 1.0
C      1  0.5721750000000  0.4470510000000  0.5062900000000 1.0
C      1  0.5601640000000  0.5373380000000  0.5817550000000 1.0
C      1  0.3950730000000  0.5555850000000  0.4857670000000 1.0
C      1  0.4795020000000  0.5909270000000  0.4938970000000 1.0
C      1  0.4166920000000  0.4498270000000  0.4995830000000 1.0
C      1  0.4800150000000  0.5940820000000  0.4655860000000 1.0
C      1  0.4677760000000  0.4308500000000  0.5101370000000 1.0
C      1  0.4547230000000  0.5388510000000  0.5810380000000 1.0
C      1  0.5240500000000  0.4804240000000  0.5545620000000 1.0
C      1  0.4304790000000  0.4941160000000  0.5440950000000 1.0
C      1  0.5305810000000  0.3892770000000  0.4610710000000 1.0
C      1  0.5718790000000  0.4430710000000  0.5832950000000 1.0
C      1  0.5360470000000  0.4100110000000  0.5056660000000 1.0
C      1  0.5044860000000  0.3933910000000  0.4561490000000 1.0
C      1  0.6049170000000  0.4867170000000  0.4809080000000 1.0
C      1  0.4814220000000  0.5752470000000  0.4441300000000 1.0
C      1  0.5818740000000  0.5603280000000  0.4830400000000 1.0
C      1  0.5193000000000  0.4343190000000  0.3889110000000 1.0
C      1  0.5526190000000  0.5025650000000  0.4685920000000 1.0
C      1  0.3962510000000  0.5729430000000  0.5502510000000 1.0
C      1  0.4426280000000  0.5908830000000  0.5348440000000 1.0
C      1  0.5046370000000  0.5580870000000  0.4438090000000 1.0
C      1  0.5040640000000  0.4561930000000  0.5228680000000 1.0
C      1  0.5359620000000  0.5698830000000  0.5421070000000 1.0
C      1  0.4760230000000  0.5270450000000  0.5646980000000 1.0
C      1  0.3885960000000  0.5499390000000  0.5614690000000 1.0
C      1  0.6002800000000  0.5150740000000  0.4746320000000 1.0
C      1  0.4501100000000  0.4664820000000  0.5908750000000 1.0
C      1  0.5178670000000  0.4703430000000  0.4770840000000 1.0
C      1  0.4489720000000  0.5481160000000  0.4894790000000 1.0
C      1  0.5396270000000  0.6103540000000  0.4726140000000 1.0
C      1  0.4752230000000  0.3901670000000  0.5484340000000 1.0
C      1  0.5296620000000  0.4971660000000  0.6214020000000 1.0
C      1  0.5178380000000  0.5593300000000  0.5859630000000 1.0
C      1  0.5202260000000  0.4733350000000  0.5063530000000 1.0
C      1  0.5542220000000  0.4620450000000  0.4428720000000 1.0
C      1  0.5462960000000  0.3744310000000  0.5839950000000 1.0
C      1  0.4515070000000  0.4027550000000  0.5445320000000 1.0
C      1  0.5084120000000  0.4038450000000  0.5128540000000 1.0
C      1  0.4879850000000  0.5236590000000  0.4786920000000 1.0
C      1  0.5229380000000  0.5668000000000  0.4911320000000 1.0
C      1  0.5515240000000  0.4303700000000  0.5192690000000 1.0
C      1  0.4456290000000  0.4238620000000  0.5267780000000 1.0
C      1  0.5023150000000  0.5316170000000  0.4550600000000 1.0
C      1  0.4995220000000  0.3907460000000  0.5364370000000 1.0
C      1  0.4621570000000  0.4183900000000  0.4539280000000 1.0
C      1  0.4677830000000  0.4676400000000  0.4546530000000 1.0
C      1  0.5828890000000  0.5314750000000  0.4912080000000 1.0
C      1  0.4869370000000  0.5740360000000  0.5493790000000 1.0
C      1  0.5809980000000  0.5560080000000  0.4522590000000 1.0
C      1  0.5134900000000  0.5736920000000  0.5610930000000 1.0
C      1  0.4105420000000  0.5718950000000  0.5029470000000 1.0
C      1  0.4506010000000  0.4045000000000  0.4334060000000 1.0
C      1  0.5512160000000  0.3996310000000  0.5774650000000 1.0
C      1  0.5414460000000  0.4356420000000  0.5462210000000 1.0
C      1  0.5728540000000  0.5779890000000  0.5041110000000 1.0
C      1  0.4711570000000  0.5287970000000  0.5359020000000 1.0
C      1  0.6295870000000  0.4769190000000  0.4728210000000 1.0
C      1  0.4396560000000  0.5146820000000  0.5867840000000 1.0
C      1  0.4200640000000  0.5094560000000  0.5662760000000 1.0
C      1  0.4140020000000  0.5817690000000  0.5305690000000 1.0
C      1  0.4528630000000  0.4442380000000  0.4609870000000 1.0
C      1  0.5348060000000  0.4283510000000  0.4097390000000 1.0
C      1  0.4337090000000  0.4552570000000  0.5726150000000 1.0
C      1  0.5405410000000  0.3496510000000  0.5896890000000 1.0
C      1  0.4966450000000  0.4717070000000  0.4543350000000 1.0
C      1  0.4512850000000  0.4899420000000  0.4482070000000 1.0
C      1  0.5231220000000  0.5292920000000  0.5178830000000 1.0
C      1  0.3548250000000  0.5092040000000  0.4463300000000 1.0
C      1  0.5447100000000  0.6358200000000  0.4747770000000 1.0
C      1  0.4497020000000  0.5662950000000  0.5779290000000 1.0
C      1  0.5997610000000  0.5317750000000  0.4498270000000 1.0
C      1  0.5559010000000  0.5564780000000  0.4356470000000 1.0
C      1  0.5253550000000  0.5095460000000  0.5973640000000 1.0
C      1  0.4287040000000  0.4473970000000  0.4755780000000 1.0
C      1  0.5860990000000  0.4622530000000  0.5947730000000 1.0
C      1  0.3979570000000  0.5379070000000  0.4631510000000 1.0
C      1  0.5053280000000  0.4883730000000  0.4310020000000 1.0
C      1  0.4879550000000  0.4461080000000  0.3541230000000 1.0
C      1  0.4655770000000  0.4822260000000  0.5143060000000 1.0
C      1  0.3346560000000  0.4947820000000  0.4382770000000 1.0
C      1  0.4968660000000  0.5701020000000  0.5037960000000 1.0
C      1  0.5356680000000  0.5208170000000  0.3699330000000 1.0
C      1  0.5549200000000  0.4260010000000  0.5691100000000 1.0
C      1  0.4836590000000  0.4074290000000  0.4688630000000 1.0
C      1  0.4374410000000  0.5727280000000  0.4936890000000 1.0
C      1  0.3968210000000  0.5248500000000  0.5654050000000 1.0
C      1  0.5993210000000  0.4820340000000  0.6054240000000 1.0
C      1  0.4599840000000  0.5822970000000  0.5566830000000 1.0
C      1  0.5328110000000  0.5835770000000  0.4703170000000 1.0
C      1  0.5169530000000  0.5115760000000  0.4426330000000 1.0
C      1  0.5876660000000  0.4668330000000  0.4943980000000 1.0
C      1  0.5060970000000  0.4534810000000  0.3731570000000 1.0
C      1  0.5589300000000  0.4854620000000  0.4264820000000 1.0
C      1  0.4861440000000  0.4133580000000  0.4966280000000 1.0
END
