TITL C-599892-9790-362 0.000263217155522911 125000 -1073.10601059405 0 0 176 (C1) n - 1
REM
REM in /home/nfs/bkarasulu/CARBON/AIRSS/Generating-Clusters/TERSOFF/Only-C1/FIRE-HFTN
REM
REM
REM
REM
REM
REM ./C.cell (11c1c37f851c82e70ff6c80c92926a4b)
REM AIRSS Version 0.9.1 bugfix July 2018 build 013d7b7c2542+ Fri, 06 Jul 2018 19:26:36 +0100
REM compiler GCC version 9.2.1 20190827 (Red Hat 9.2.1-1)
REM options -cpp -mtune=generic -march=x86-64 -g -O0 -fpre-include=/usr/include/finclude/math-vector-fortran.h
REM seed -1424875125 761186787 746809654 -2005909890 -413175883 369513013 1567772015 -1016685799 1745937739 -853357993 -715059027 -601229328 974444994 1039871124 -1566481922 -1024987877 -252858101 -1021955351 -1229594986 1301461737 1074253713 -151465038 -1682965087 1123671165 -1008008605 -704264378 -1032063201 800294361 1325831237 -215176822 691643576 2133618337 -1502712370
REM
CELL 1.54180   50.00000   50.00000   50.00000   90.00000   90.00000   90.00000
LATT -1
SFAC C  
C      1  0.5321350000000  0.4982500000000  0.5035260000000 1.0
C      1  0.5811840000000  0.5398840000000  0.5851700000000 1.0
C      1  0.5013400000000  0.4034210000000  0.5323550000000 1.0
C      1  0.5244670000000  0.5416860000000  0.5353370000000 1.0
C      1  0.4879960000000  0.5511640000000  0.4880030000000 1.0
C      1  0.5262310000000  0.4516030000000  0.4303600000000 1.0
C      1  0.5287060000000  0.3902250000000  0.4320740000000 1.0
C      1  0.5196940000000  0.6248720000000  0.4657890000000 1.0
C      1  0.5019380000000  0.6272700000000  0.5085800000000 1.0
C      1  0.4218850000000  0.4257670000000  0.5212310000000 1.0
C      1  0.5889440000000  0.4654650000000  0.5520410000000 1.0
C      1  0.3871260000000  0.5404690000000  0.5630810000000 1.0
C      1  0.4348220000000  0.4974550000000  0.5622850000000 1.0
C      1  0.5599740000000  0.5400920000000  0.6030740000000 1.0
C      1  0.5254220000000  0.4679940000000  0.5978290000000 1.0
C      1  0.5763530000000  0.4353070000000  0.4536820000000 1.0
C      1  0.4831790000000  0.4544400000000  0.4813760000000 1.0
C      1  0.4449710000000  0.4808420000000  0.5182910000000 1.0
C      1  0.4828940000000  0.4894290000000  0.6202390000000 1.0
C      1  0.5452440000000  0.4545700000000  0.4094610000000 1.0
C      1  0.4746450000000  0.5556290000000  0.3938260000000 1.0
C      1  0.5218360000000  0.5686660000000  0.3961600000000 1.0
C      1  0.5062480000000  0.4323480000000  0.5335610000000 1.0
C      1  0.4888080000000  0.4034460000000  0.3994960000000 1.0
C      1  0.5317180000000  0.4923300000000  0.5320690000000 1.0
C      1  0.3833740000000  0.4921060000000  0.5404200000000 1.0
C      1  0.5238030000000  0.6219370000000  0.5237680000000 1.0
C      1  0.4920690000000  0.5855870000000  0.4308800000000 1.0
C      1  0.4681580000000  0.5151960000000  0.6162150000000 1.0
C      1  0.5296430000000  0.4025850000000  0.4945180000000 1.0
C      1  0.4983740000000  0.5512710000000  0.5363380000000 1.0
C      1  0.5569080000000  0.4923800000000  0.3629240000000 1.0
C      1  0.5465360000000  0.6085740000000  0.5353960000000 1.0
C      1  0.4326560000000  0.5576300000000  0.5863430000000 1.0
C      1  0.4106410000000  0.5808020000000  0.5493060000000 1.0
C      1  0.4412200000000  0.3928410000000  0.4753290000000 1.0
C      1  0.4920330000000  0.5969730000000  0.5665700000000 1.0
C      1  0.5759120000000  0.5203750000000  0.5169680000000 1.0
C      1  0.4801260000000  0.4147530000000  0.5722910000000 1.0
C      1  0.5161780000000  0.5818120000000  0.4457440000000 1.0
C      1  0.5869370000000  0.4745160000000  0.5998610000000 1.0
C      1  0.4472770000000  0.4221010000000  0.5113700000000 1.0
C      1  0.4927860000000  0.4838650000000  0.4156330000000 1.0
C      1  0.4799880000000  0.5278930000000  0.3955440000000 1.0
C      1  0.4291660000000  0.5589400000000  0.4461950000000 1.0
C      1  0.3691440000000  0.5586290000000  0.5495410000000 1.0
C      1  0.3996400000000  0.4563510000000  0.4687000000000 1.0
C      1  0.5022740000000  0.3966550000000  0.3764460000000 1.0
C      1  0.4260450000000  0.4403310000000  0.4264950000000 1.0
C      1  0.6007710000000  0.4582940000000  0.5287140000000 1.0
C      1  0.3835640000000  0.5806330000000  0.5373460000000 1.0
C      1  0.4983520000000  0.5070480000000  0.4003950000000 1.0
C      1  0.5716520000000  0.4587710000000  0.4645960000000 1.0
C      1  0.5494640000000  0.5694160000000  0.5694950000000 1.0
C      1  0.4737720000000  0.6149920000000  0.4664490000000 1.0
C      1  0.5864270000000  0.5994990000000  0.4996560000000 1.0
C      1  0.4403210000000  0.4327650000000  0.4019330000000 1.0
C      1  0.4175140000000  0.5080940000000  0.6056060000000 1.0
C      1  0.5481840000000  0.4668070000000  0.3615860000000 1.0
C      1  0.4802080000000  0.4480260000000  0.5318480000000 1.0
C      1  0.5738570000000  0.4704040000000  0.5761430000000 1.0
C      1  0.4853740000000  0.4986570000000  0.5662100000000 1.0
C      1  0.6086950000000  0.4256240000000  0.4908820000000 1.0
C      1  0.5205670000000  0.5152960000000  0.6159480000000 1.0
C      1  0.5753790000000  0.4071050000000  0.4583530000000 1.0
C      1  0.6148740000000  0.5142250000000  0.4580640000000 1.0
C      1  0.5716100000000  0.5434530000000  0.5342770000000 1.0
C      1  0.5259500000000  0.4200400000000  0.4734060000000 1.0
C      1  0.5711980000000  0.5227060000000  0.4002850000000 1.0
C      1  0.3833990000000  0.4654640000000  0.4225780000000 1.0
C      1  0.5873160000000  0.5524290000000  0.4347740000000 1.0
C      1  0.4693440000000  0.5950790000000  0.4459640000000 1.0
C      1  0.4025890000000  0.4542810000000  0.4388310000000 1.0
C      1  0.4636190000000  0.4184070000000  0.3969650000000 1.0
C      1  0.5413650000000  0.5953550000000  0.5607310000000 1.0
C      1  0.5322960000000  0.4417910000000  0.5382300000000 1.0
C      1  0.5082780000000  0.3910030000000  0.5084180000000 1.0
C      1  0.5892460000000  0.3933700000000  0.5331050000000 1.0
C      1  0.4612290000000  0.5114550000000  0.4510900000000 1.0
C      1  0.5105150000000  0.5336880000000  0.5933430000000 1.0
C      1  0.5491660000000  0.5374960000000  0.4802990000000 1.0
C      1  0.6195940000000  0.4724890000000  0.4853380000000 1.0
C      1  0.5293120000000  0.5378240000000  0.4604530000000 1.0
C      1  0.4536820000000  0.5392540000000  0.5458240000000 1.0
C      1  0.4710820000000  0.4376070000000  0.5037280000000 1.0
C      1  0.4833170000000  0.5265160000000  0.4482290000000 1.0
C      1  0.4956110000000  0.6266980000000  0.4808470000000 1.0
C      1  0.4175090000000  0.4481790000000  0.5614020000000 1.0
C      1  0.4847010000000  0.4484670000000  0.4529290000000 1.0
C      1  0.4546000000000  0.4657030000000  0.5899700000000 1.0
C      1  0.4520540000000  0.5650690000000  0.3817390000000 1.0
C      1  0.4352320000000  0.4639580000000  0.4981140000000 1.0
C      1  0.4965720000000  0.4234250000000  0.5934140000000 1.0
C      1  0.5932750000000  0.4808300000000  0.4200440000000 1.0
C      1  0.5001840000000  0.3950330000000  0.4255150000000 1.0
C      1  0.4109640000000  0.5234990000000  0.4805950000000 1.0
C      1  0.5448890000000  0.4707570000000  0.5751560000000 1.0
C      1  0.4397270000000  0.5139460000000  0.6199980000000 1.0
C      1  0.6005110000000  0.5266690000000  0.4373040000000 1.0
C      1  0.5557830000000  0.5142780000000  0.4961350000000 1.0
C      1  0.4808210000000  0.3992410000000  0.4463500000000 1.0
C      1  0.4611840000000  0.4947590000000  0.4720930000000 1.0
C      1  0.4523100000000  0.5818860000000  0.5143930000000 1.0
C      1  0.5101050000000  0.5130540000000  0.5707990000000 1.0
C      1  0.5911580000000  0.4038080000000  0.4833400000000 1.0
C      1  0.5116120000000  0.4883070000000  0.6144850000000 1.0
C      1  0.3855790000000  0.5803070000000  0.5093720000000 1.0
C      1  0.4173490000000  0.5388360000000  0.5042700000000 1.0
C      1  0.5525070000000  0.4222480000000  0.5350250000000 1.0
C      1  0.5070920000000  0.5018650000000  0.4871930000000 1.0
C      1  0.4999410000000  0.4624780000000  0.4324230000000 1.0
C      1  0.5355580000000  0.4683800000000  0.5475220000000 1.0
C      1  0.5707740000000  0.6065460000000  0.5205730000000 1.0
C      1  0.4425500000000  0.4281710000000  0.4460460000000 1.0
C      1  0.4703390000000  0.4259070000000  0.4453650000000 1.0
C      1  0.4322510000000  0.5009460000000  0.5337960000000 1.0
C      1  0.5180490000000  0.6049490000000  0.5738360000000 1.0
C      1  0.4644520000000  0.3832680000000  0.4636360000000 1.0
C      1  0.3895510000000  0.4747540000000  0.4904850000000 1.0
C      1  0.5905480000000  0.5087570000000  0.4163440000000 1.0
C      1  0.4782390000000  0.5361560000000  0.5965680000000 1.0
C      1  0.4438900000000  0.4465470000000  0.5721270000000 1.0
C      1  0.4592230000000  0.4895470000000  0.5749270000000 1.0
C      1  0.4105360000000  0.5587280000000  0.5687400000000 1.0
C      1  0.5410890000000  0.5581910000000  0.4144870000000 1.0
C      1  0.6106520000000  0.4517920000000  0.5025810000000 1.0
C      1  0.4454180000000  0.5801570000000  0.4445620000000 1.0
C      1  0.5911610000000  0.5732200000000  0.4534530000000 1.0
C      1  0.4336820000000  0.5872580000000  0.5335210000000 1.0
C      1  0.4176130000000  0.5370410000000  0.4566210000000 1.0
C      1  0.4120890000000  0.5032930000000  0.5782690000000 1.0
C      1  0.6327090000000  0.4524760000000  0.4277150000000 1.0
C      1  0.4668150000000  0.4665070000000  0.6151070000000 1.0
C      1  0.5027060000000  0.5291840000000  0.4712070000000 1.0
C      1  0.5476840000000  0.5611420000000  0.4964450000000 1.0
C      1  0.5396700000000  0.4511710000000  0.3819470000000 1.0
C      1  0.4697360000000  0.5683470000000  0.4984630000000 1.0
C      1  0.5246830000000  0.5116300000000  0.3917650000000 1.0
C      1  0.5781470000000  0.3933390000000  0.5061300000000 1.0
C      1  0.4721430000000  0.4773090000000  0.5276220000000 1.0
C      1  0.4321480000000  0.5699620000000  0.6107180000000 1.0
C      1  0.4698540000000  0.6093000000000  0.5763770000000 1.0
C      1  0.4312640000000  0.4194530000000  0.4704400000000 1.0
C      1  0.4825360000000  0.5017690000000  0.5372230000000 1.0
C      1  0.6190310000000  0.4862680000000  0.4608280000000 1.0
C      1  0.5738960000000  0.5534710000000  0.5607360000000 1.0
C      1  0.5267460000000  0.5159270000000  0.5478960000000 1.0
C      1  0.4221060000000  0.4443330000000  0.4819210000000 1.0
C      1  0.5516460000000  0.5108940000000  0.3836140000000 1.0
C      1  0.4564710000000  0.5451880000000  0.5755860000000 1.0
C      1  0.4846210000000  0.4832140000000  0.4838190000000 1.0
C      1  0.4045460000000  0.5638990000000  0.4997140000000 1.0
C      1  0.5295440000000  0.5988530000000  0.4634220000000 1.0
C      1  0.4891420000000  0.3938910000000  0.5556310000000 1.0
C      1  0.4321110000000  0.5292500000000  0.5271940000000 1.0
C      1  0.6155400000000  0.4720260000000  0.4359750000000 1.0
C      1  0.5674770000000  0.5488240000000  0.4128800000000 1.0
C      1  0.5927810000000  0.5878480000000  0.4760830000000 1.0
C      1  0.5421500000000  0.5856370000000  0.4845420000000 1.0
C      1  0.5357920000000  0.5523750000000  0.5908170000000 1.0
C      1  0.5713470000000  0.4642270000000  0.4145640000000 1.0
C      1  0.4943130000000  0.5733120000000  0.4045350000000 1.0
C      1  0.4915460000000  0.5759530000000  0.5478580000000 1.0
C      1  0.4651470000000  0.4348440000000  0.5574900000000 1.0
C      1  0.5466560000000  0.5541800000000  0.5235160000000 1.0
C      1  0.3900010000000  0.5117380000000  0.5618490000000 1.0
C      1  0.5298340000000  0.5575070000000  0.4404000000000 1.0
C      1  0.5540250000000  0.3927560000000  0.4437160000000 1.0
C      1  0.4786800000000  0.5307570000000  0.5344440000000 1.0
C      1  0.5146840000000  0.4417280000000  0.6006670000000 1.0
C      1  0.4067150000000  0.4466210000000  0.5345980000000 1.0
C      1  0.5313900000000  0.4356510000000  0.4527390000000 1.0
C      1  0.5523830000000  0.4060030000000  0.5103290000000 1.0
C      1  0.3908720000000  0.4693890000000  0.5216970000000 1.0
C      1  0.5748770000000  0.4107610000000  0.5494440000000 1.0
C      1  0.3931690000000  0.5020790000000  0.4831910000000 1.0
END
