TITL C-599891-72-984 -73637.1294786649 125000 -1062.51288380121 0 0 173 (C1) n - 1
REM
REM in /home/nfs/bkarasulu/CARBON/AIRSS/Generating-Clusters/TERSOFF/Only-C1/FIRE-HFTN
REM
REM
REM
REM
REM
REM ./C.cell (11c1c37f851c82e70ff6c80c92926a4b)
REM AIRSS Version 0.9.1 bugfix July 2018 build 013d7b7c2542+ Fri, 06 Jul 2018 19:26:36 +0100
REM compiler GCC version 9.2.1 20190827 (Red Hat 9.2.1-1)
REM options -cpp -mtune=generic -march=x86-64 -g -O0 -fpre-include=/usr/include/finclude/math-vector-fortran.h
REM seed 1647198466 243233226 -608923371 -1039560289 743202302 -389488117 1439866443 31751663 888935751 488762907 900432949 346235857 1397434512 -1515557827 -1640371772 -627418276 1559332958 805848101 -2027238573 -2114796649 -2069025298 -1870380145 2090881987 1268553889 740298695 1010486147 -883024951 -126165034 -695764166 -730993306 1818300416 -305610483 -1500624817
REM
CELL 1.54180   50.00000   50.00000   50.00000   90.00000   90.00000   90.00000
LATT -1
SFAC C  
C      1  0.4702650000000  0.5445140000000  0.5226750000000 1.0
C      1  0.4588950000000  0.4516230000000  0.3959470000000 1.0
C      1  0.4451610000000  0.4894150000000  0.4779510000000 1.0
C      1  0.5517700000000  0.5669560000000  0.4428200000000 1.0
C      1  0.4865340000000  0.4866690000000  0.5235470000000 1.0
C      1  0.4674500000000  0.5947800000000  0.6002610000000 1.0
C      1  0.5203610000000  0.4907340000000  0.6237070000000 1.0
C      1  0.4960630000000  0.3855390000000  0.4521770000000 1.0
C      1  0.6022040000000  0.4647960000000  0.5125610000000 1.0
C      1  0.3943800000000  0.4844280000000  0.6426460000000 1.0
C      1  0.4598370000000  0.4751620000000  0.4594410000000 1.0
C      1  0.4878520000000  0.6046120000000  0.5511380000000 1.0
C      1  0.5748230000000  0.5571850000000  0.5044890000000 1.0
C      1  0.4418580000000  0.5617310000000  0.4552940000000 1.0
C      1  0.5575520000000  0.5814530000000  0.6141910000000 1.0
C      1  0.4895260000000  0.4589740000000  0.5979190000000 1.0
C      1  0.4903800000000  0.4708230000000  0.3353970000000 1.0
C      1  0.4717430000000  0.6125770000000  0.5274070000000 1.0
C      1  0.5079270000000  0.4354920000000  0.3845770000000 1.0
C      1  0.5485700000000  0.5088050000000  0.4466150000000 1.0
C      1  0.4452450000000  0.4118310000000  0.5463730000000 1.0
C      1  0.4647180000000  0.5745970000000  0.4443120000000 1.0
C      1  0.4041100000000  0.4924190000000  0.6184520000000 1.0
C      1  0.4462130000000  0.5336780000000  0.4572180000000 1.0
C      1  0.5420080000000  0.6395920000000  0.4494570000000 1.0
C      1  0.4943270000000  0.4213940000000  0.4261540000000 1.0
C      1  0.4978270000000  0.3773890000000  0.4986870000000 1.0
C      1  0.4073170000000  0.5195550000000  0.6120090000000 1.0
C      1  0.5115700000000  0.4417880000000  0.4666300000000 1.0
C      1  0.4332860000000  0.5967790000000  0.4876270000000 1.0
C      1  0.4474590000000  0.4585230000000  0.5690710000000 1.0
C      1  0.4504570000000  0.4280000000000  0.4105140000000 1.0
C      1  0.3843840000000  0.4848670000000  0.5091090000000 1.0
C      1  0.5892010000000  0.5557200000000  0.5721560000000 1.0
C      1  0.6154470000000  0.4534670000000  0.4314670000000 1.0
C      1  0.5090460000000  0.5775450000000  0.4288160000000 1.0
C      1  0.3893360000000  0.4499580000000  0.5378260000000 1.0
C      1  0.4586910000000  0.6083630000000  0.4790340000000 1.0
C      1  0.4162950000000  0.4211210000000  0.5017340000000 1.0
C      1  0.4644210000000  0.4984430000000  0.5930830000000 1.0
C      1  0.6351380000000  0.5691900000000  0.5228080000000 1.0
C      1  0.5421490000000  0.5241660000000  0.4695880000000 1.0
C      1  0.5012940000000  0.4459610000000  0.4401330000000 1.0
C      1  0.4936020000000  0.4957130000000  0.4291390000000 1.0
C      1  0.5278070000000  0.5774020000000  0.5042310000000 1.0
C      1  0.5335080000000  0.5131770000000  0.4953060000000 1.0
C      1  0.5329470000000  0.5877240000000  0.4385770000000 1.0
C      1  0.5635760000000  0.5247670000000  0.6026250000000 1.0
C      1  0.4546680000000  0.5241540000000  0.5336500000000 1.0
C      1  0.4728710000000  0.4116120000000  0.4109200000000 1.0
C      1  0.5166930000000  0.5992530000000  0.5508770000000 1.0
C      1  0.5115350000000  0.4704790000000  0.4268940000000 1.0
C      1  0.5987730000000  0.4166430000000  0.4634840000000 1.0
C      1  0.5555790000000  0.4766490000000  0.5144090000000 1.0
C      1  0.5962500000000  0.4188800000000  0.4937720000000 1.0
C      1  0.4201580000000  0.4676160000000  0.5725960000000 1.0
C      1  0.5781960000000  0.6155770000000  0.5333630000000 1.0
C      1  0.4218750000000  0.4729630000000  0.4248290000000 1.0
C      1  0.5854070000000  0.4183960000000  0.5562020000000 1.0
C      1  0.4906900000000  0.4741410000000  0.3625310000000 1.0
C      1  0.5462210000000  0.4788500000000  0.5414640000000 1.0
C      1  0.5309570000000  0.4333730000000  0.4019590000000 1.0
C      1  0.5831390000000  0.4854270000000  0.5128560000000 1.0
C      1  0.4859250000000  0.4282070000000  0.5075180000000 1.0
C      1  0.4070600000000  0.5208740000000  0.5280560000000 1.0
C      1  0.4454860000000  0.5966810000000  0.6163500000000 1.0
C      1  0.6303610000000  0.4464080000000  0.4780910000000 1.0
C      1  0.5096750000000  0.4685700000000  0.6130140000000 1.0
C      1  0.5841670000000  0.4924660000000  0.4162140000000 1.0
C      1  0.4762570000000  0.6162560000000  0.4998910000000 1.0
C      1  0.6183520000000  0.4367230000000  0.4537660000000 1.0
C      1  0.5035160000000  0.3667880000000  0.4727310000000 1.0
C      1  0.4008260000000  0.4424800000000  0.4903450000000 1.0
C      1  0.4003580000000  0.4872470000000  0.4639490000000 1.0
C      1  0.5419190000000  0.4003380000000  0.4789900000000 1.0
C      1  0.5456470000000  0.5331970000000  0.6228990000000 1.0
C      1  0.5363190000000  0.4587030000000  0.4161410000000 1.0
C      1  0.4755000000000  0.5188710000000  0.6061890000000 1.0
C      1  0.6083130000000  0.5419240000000  0.5563130000000 1.0
C      1  0.4685530000000  0.5323610000000  0.4761910000000 1.0
C      1  0.4743600000000  0.5136880000000  0.3819850000000 1.0
C      1  0.4443800000000  0.4983740000000  0.3897390000000 1.0
C      1  0.5309040000000  0.5971930000000  0.5253600000000 1.0
C      1  0.5677080000000  0.4604220000000  0.4585800000000 1.0
C      1  0.4889410000000  0.5316950000000  0.4252110000000 1.0
C      1  0.4287720000000  0.5303030000000  0.5435250000000 1.0
C      1  0.4143440000000  0.4971120000000  0.4402220000000 1.0
C      1  0.3850340000000  0.4560250000000  0.5098430000000 1.0
C      1  0.4964450000000  0.5327990000000  0.6188010000000 1.0
C      1  0.4480690000000  0.4761530000000  0.4091550000000 1.0
C      1  0.5029550000000  0.5661610000000  0.4959430000000 1.0
C      1  0.4575480000000  0.4252130000000  0.4588660000000 1.0
C      1  0.4813500000000  0.5479250000000  0.4969730000000 1.0
C      1  0.5310040000000  0.5213980000000  0.5240050000000 1.0
C      1  0.4020220000000  0.5272450000000  0.4995430000000 1.0
C      1  0.4114390000000  0.4739460000000  0.5986200000000 1.0
C      1  0.5600930000000  0.3886700000000  0.4945500000000 1.0
C      1  0.6020110000000  0.5138730000000  0.5497090000000 1.0
C      1  0.5578230000000  0.5901410000000  0.5867160000000 1.0
C      1  0.3922900000000  0.5019140000000  0.4870710000000 1.0
C      1  0.4017810000000  0.4721880000000  0.5517010000000 1.0
C      1  0.6128010000000  0.4421590000000  0.5004730000000 1.0
C      1  0.5116950000000  0.3713580000000  0.5218470000000 1.0
C      1  0.5776330000000  0.4041870000000  0.5101670000000 1.0
C      1  0.4672010000000  0.6020190000000  0.5730120000000 1.0
C      1  0.5273660000000  0.4995720000000  0.5436130000000 1.0
C      1  0.4742820000000  0.4026320000000  0.4662350000000 1.0
C      1  0.5312430000000  0.5977160000000  0.5768090000000 1.0
C      1  0.5419450000000  0.3995440000000  0.5457800000000 1.0
C      1  0.4944770000000  0.5605470000000  0.6216980000000 1.0
C      1  0.5667080000000  0.5395120000000  0.5790900000000 1.0
C      1  0.5949550000000  0.5395690000000  0.5128180000000 1.0
C      1  0.4556640000000  0.4387510000000  0.5502550000000 1.0
C      1  0.5585260000000  0.5039770000000  0.4202610000000 1.0
C      1  0.5138570000000  0.5994950000000  0.5992550000000 1.0
C      1  0.4780720000000  0.4388030000000  0.5326040000000 1.0
C      1  0.4606300000000  0.4980910000000  0.5234100000000 1.0
C      1  0.4179020000000  0.4489340000000  0.4409300000000 1.0
C      1  0.5907220000000  0.6025430000000  0.5531960000000 1.0
C      1  0.5209520000000  0.5190070000000  0.6245080000000 1.0
C      1  0.5479710000000  0.5522190000000  0.4669870000000 1.0
C      1  0.4413350000000  0.6073500000000  0.5616600000000 1.0
C      1  0.4241060000000  0.5410270000000  0.5688460000000 1.0
C      1  0.4970780000000  0.4993580000000  0.3743530000000 1.0
C      1  0.4675840000000  0.6011820000000  0.4534140000000 1.0
C      1  0.5452160000000  0.5171530000000  0.3981820000000 1.0
C      1  0.5121400000000  0.3995410000000  0.4323220000000 1.0
C      1  0.5573780000000  0.4578950000000  0.4347360000000 1.0
C      1  0.5512320000000  0.5653510000000  0.4919790000000 1.0
C      1  0.5497750000000  0.5605080000000  0.6295300000000 1.0
C      1  0.4668490000000  0.4711210000000  0.5861850000000 1.0
C      1  0.5620610000000  0.4015170000000  0.4272410000000 1.0
C      1  0.4672070000000  0.4837690000000  0.4331170000000 1.0
C      1  0.5316890000000  0.4239800000000  0.4729670000000 1.0
C      1  0.6149670000000  0.5526250000000  0.5299820000000 1.0
C      1  0.5684660000000  0.4076130000000  0.5374840000000 1.0
C      1  0.4845820000000  0.4522490000000  0.3801730000000 1.0
C      1  0.4671370000000  0.4501840000000  0.4701520000000 1.0
C      1  0.5234000000000  0.5071760000000  0.3827770000000 1.0
C      1  0.4383900000000  0.4294910000000  0.4370070000000 1.0
C      1  0.5028060000000  0.4746580000000  0.5019020000000 1.0
C      1  0.5362720000000  0.4083090000000  0.4180270000000 1.0
C      1  0.4078940000000  0.5526200000000  0.4884330000000 1.0
C      1  0.5917310000000  0.5113440000000  0.5220950000000 1.0
C      1  0.5312180000000  0.4837850000000  0.4977310000000 1.0
C      1  0.5823710000000  0.4035990000000  0.4446520000000 1.0
C      1  0.4917510000000  0.3909810000000  0.5592580000000 1.0
C      1  0.4881250000000  0.5599080000000  0.4348610000000 1.0
C      1  0.5543170000000  0.5439850000000  0.3973030000000 1.0
C      1  0.4708660000000  0.5328310000000  0.4032730000000 1.0
C      1  0.5819190000000  0.5837220000000  0.5720000000000 1.0
C      1  0.4827430000000  0.4021820000000  0.4952710000000 1.0
C      1  0.3957760000000  0.4952160000000  0.5347280000000 1.0
C      1  0.5441740000000  0.5452510000000  0.5635390000000 1.0
C      1  0.4040810000000  0.4569340000000  0.4654920000000 1.0
C      1  0.4430050000000  0.6114380000000  0.5339420000000 1.0
C      1  0.5632200000000  0.5580180000000  0.4186800000000 1.0
C      1  0.4923990000000  0.4499840000000  0.4875780000000 1.0
C      1  0.4323780000000  0.5193130000000  0.4365750000000 1.0
C      1  0.5535640000000  0.6140490000000  0.5228980000000 1.0
C      1  0.4426460000000  0.5237970000000  0.4100670000000 1.0
C      1  0.4921690000000  0.5857380000000  0.6099990000000 1.0
C      1  0.5345430000000  0.5447560000000  0.5387330000000 1.0
C      1  0.4248770000000  0.5720210000000  0.4760010000000 1.0
C      1  0.5162130000000  0.3869710000000  0.5449220000000 1.0
C      1  0.4151160000000  0.5371430000000  0.5935960000000 1.0
C      1  0.5378800000000  0.6144940000000  0.4437800000000 1.0
C      1  0.4646400000000  0.3930150000000  0.5561720000000 1.0
C      1  0.5009940000000  0.4917750000000  0.5471670000000 1.0
C      1  0.4279020000000  0.4098230000000  0.5236420000000 1.0
C      1  0.6039170000000  0.4746150000000  0.4196240000000 1.0
C      1  0.4252310000000  0.6054420000000  0.5132120000000 1.0
C      1  0.4430230000000  0.4886170000000  0.5043290000000 1.0
END
