TITL C-599896-8500-1225 -17749.0097890164 125000 -1070.31576604783 0 0 177 (C1) n - 1
REM
REM in /home/nfs/bkarasulu/CARBON/AIRSS/Generating-Clusters/TERSOFF/Only-C1/FIRE-HFTN
REM
REM
REM
REM
REM
REM ./C.cell (11c1c37f851c82e70ff6c80c92926a4b)
REM AIRSS Version 0.9.1 bugfix July 2018 build 013d7b7c2542+ Fri, 06 Jul 2018 19:26:36 +0100
REM compiler GCC version 9.2.1 20190827 (Red Hat 9.2.1-1)
REM options -cpp -mtune=generic -march=x86-64 -g -O0 -fpre-include=/usr/include/finclude/math-vector-fortran.h
REM seed 1454855889 -36216151 -497460061 1770494718 -1666566044 -467640413 5718366 580775944 172386967 245022856 -763371857 -1101466795 1200415436 -218595003 -420433080 -113686827 -944145428 -235615761 1401056545 -1982517769 -1753218277 -2130770098 31911368 -1171628705 1777943497 1360459567 -1076330004 -486057276 -498105801 1058771358 -283149512 -1285378982 -256696926
REM
CELL 1.54180   50.00000   50.00000   50.00000   90.00000   90.00000   90.00000
LATT -1
SFAC C  
C      1  0.5934360000000  0.4559280000000  0.5463200000000 1.0
C      1  0.5538540000000  0.4820070000000  0.5323580000000 1.0
C      1  0.4629780000000  0.5863190000000  0.4531420000000 1.0
C      1  0.3858470000000  0.4506520000000  0.4098160000000 1.0
C      1  0.5363990000000  0.5904620000000  0.5477050000000 1.0
C      1  0.5089340000000  0.5150880000000  0.4892070000000 1.0
C      1  0.5634930000000  0.5513330000000  0.4657480000000 1.0
C      1  0.5807980000000  0.6042910000000  0.4644500000000 1.0
C      1  0.5535160000000  0.5253950000000  0.4578220000000 1.0
C      1  0.4598320000000  0.5728580000000  0.4270700000000 1.0
C      1  0.5189850000000  0.6043430000000  0.5270510000000 1.0
C      1  0.4650770000000  0.5869120000000  0.5300700000000 1.0
C      1  0.4045420000000  0.5608870000000  0.5493350000000 1.0
C      1  0.5220040000000  0.5243920000000  0.5900270000000 1.0
C      1  0.5072850000000  0.5473640000000  0.5990100000000 1.0
C      1  0.4440440000000  0.4415490000000  0.4034230000000 1.0
C      1  0.5010230000000  0.6057810000000  0.4803500000000 1.0
C      1  0.5358180000000  0.5188160000000  0.4374180000000 1.0
C      1  0.5666900000000  0.5581680000000  0.5752550000000 1.0
C      1  0.4040260000000  0.4646170000000  0.3949720000000 1.0
C      1  0.4793240000000  0.4850930000000  0.3995930000000 1.0
C      1  0.5020370000000  0.4537140000000  0.4497490000000 1.0
C      1  0.3991850000000  0.4868070000000  0.5770050000000 1.0
C      1  0.5130640000000  0.3779970000000  0.4143850000000 1.0
C      1  0.5039740000000  0.4660540000000  0.5548330000000 1.0
C      1  0.4314710000000  0.4247370000000  0.4225240000000 1.0
C      1  0.3740210000000  0.5022250000000  0.4947750000000 1.0
C      1  0.4014530000000  0.4561670000000  0.5063480000000 1.0
C      1  0.4609280000000  0.5441560000000  0.5953090000000 1.0
C      1  0.5861500000000  0.6037280000000  0.4910100000000 1.0
C      1  0.4201140000000  0.5848410000000  0.5078150000000 1.0
C      1  0.4395990000000  0.4709720000000  0.5568480000000 1.0
C      1  0.5780820000000  0.5524270000000  0.4083120000000 1.0
C      1  0.4249220000000  0.4411440000000  0.5135750000000 1.0
C      1  0.6241510000000  0.4472720000000  0.5080800000000 1.0
C      1  0.5578760000000  0.4846720000000  0.5864390000000 1.0
C      1  0.4898470000000  0.6008160000000  0.5322560000000 1.0
C      1  0.4952900000000  0.4034250000000  0.4530350000000 1.0
C      1  0.5306510000000  0.4216590000000  0.4976560000000 1.0
C      1  0.4729350000000  0.3966030000000  0.4698790000000 1.0
C      1  0.5274230000000  0.5256710000000  0.5598280000000 1.0
C      1  0.5184310000000  0.4480570000000  0.4020730000000 1.0
C      1  0.3708950000000  0.5243810000000  0.5147190000000 1.0
C      1  0.5907810000000  0.5954230000000  0.5163520000000 1.0
C      1  0.5619870000000  0.4431400000000  0.4337040000000 1.0
C      1  0.5462650000000  0.4842480000000  0.4097080000000 1.0
C      1  0.5448510000000  0.4541390000000  0.4123980000000 1.0
C      1  0.6215440000000  0.4851660000000  0.4685700000000 1.0
C      1  0.4718440000000  0.4343560000000  0.4008020000000 1.0
C      1  0.3872850000000  0.4348890000000  0.4323430000000 1.0
C      1  0.5185260000000  0.5307110000000  0.4186070000000 1.0
C      1  0.4837100000000  0.5455760000000  0.6148800000000 1.0
C      1  0.5540680000000  0.4675360000000  0.6083230000000 1.0
C      1  0.4956570000000  0.5278930000000  0.5112060000000 1.0
C      1  0.5776250000000  0.4304600000000  0.5072360000000 1.0
C      1  0.3790450000000  0.5181870000000  0.4707290000000 1.0
C      1  0.4474840000000  0.5278820000000  0.5051950000000 1.0
C      1  0.5792180000000  0.5321740000000  0.5777000000000 1.0
C      1  0.5429830000000  0.4299180000000  0.5528640000000 1.0
C      1  0.4490940000000  0.5836690000000  0.5061840000000 1.0
C      1  0.5457520000000  0.5323810000000  0.5360680000000 1.0
C      1  0.4387650000000  0.5301540000000  0.6071210000000 1.0
C      1  0.5880150000000  0.5797310000000  0.5397490000000 1.0
C      1  0.4990600000000  0.5618990000000  0.5750230000000 1.0
C      1  0.6134090000000  0.5649720000000  0.4667460000000 1.0
C      1  0.4140660000000  0.4320440000000  0.4470320000000 1.0
C      1  0.4907270000000  0.5391010000000  0.4512530000000 1.0
C      1  0.5166980000000  0.6000850000000  0.4101780000000 1.0
C      1  0.4686590000000  0.4015570000000  0.4980960000000 1.0
C      1  0.4501240000000  0.5163300000000  0.6309570000000 1.0
C      1  0.5682560000000  0.5103140000000  0.5911200000000 1.0
C      1  0.5667300000000  0.4513330000000  0.4889050000000 1.0
C      1  0.4818110000000  0.4434670000000  0.5132930000000 1.0
C      1  0.4959610000000  0.5774810000000  0.4868800000000 1.0
C      1  0.4484750000000  0.4022070000000  0.4276140000000 1.0
C      1  0.4231800000000  0.5172670000000  0.5130700000000 1.0
C      1  0.5123270000000  0.4999640000000  0.6029870000000 1.0
C      1  0.5136820000000  0.3932350000000  0.5319450000000 1.0
C      1  0.6691900000000  0.4204610000000  0.5209300000000 1.0
C      1  0.5121750000000  0.4419830000000  0.5127330000000 1.0
C      1  0.6139560000000  0.5048290000000  0.4521700000000 1.0
C      1  0.5582170000000  0.5080840000000  0.5257510000000 1.0
C      1  0.4367450000000  0.4196900000000  0.4964690000000 1.0
C      1  0.4028930000000  0.5654300000000  0.5211570000000 1.0
C      1  0.4604620000000  0.5523580000000  0.4056050000000 1.0
C      1  0.4548370000000  0.5423700000000  0.4813530000000 1.0
C      1  0.5846340000000  0.5257360000000  0.4167410000000 1.0
C      1  0.5667860000000  0.4475590000000  0.5575620000000 1.0
C      1  0.4344470000000  0.5105390000000  0.4104630000000 1.0
C      1  0.5187830000000  0.4446660000000  0.5439770000000 1.0
C      1  0.3931430000000  0.4947110000000  0.5507610000000 1.0
C      1  0.6243980000000  0.4667950000000  0.4877150000000 1.0
C      1  0.4951280000000  0.3949390000000  0.4256630000000 1.0
C      1  0.5989140000000  0.5262080000000  0.4419040000000 1.0
C      1  0.4083160000000  0.5053140000000  0.5314980000000 1.0
C      1  0.5103950000000  0.5364950000000  0.4712600000000 1.0
C      1  0.4633600000000  0.4767510000000  0.4758160000000 1.0
C      1  0.3979280000000  0.5076120000000  0.5958860000000 1.0
C      1  0.5143080000000  0.4879470000000  0.4817480000000 1.0
C      1  0.4619850000000  0.4885880000000  0.5633730000000 1.0
C      1  0.4202320000000  0.4680190000000  0.5781700000000 1.0
C      1  0.4480160000000  0.3970450000000  0.4555430000000 1.0
C      1  0.3839320000000  0.4759200000000  0.4996400000000 1.0
C      1  0.4849890000000  0.4742100000000  0.5745540000000 1.0
C      1  0.5729350000000  0.5117740000000  0.5013470000000 1.0
C      1  0.4732470000000  0.5326710000000  0.6379700000000 1.0
C      1  0.5562910000000  0.5519730000000  0.5140340000000 1.0
C      1  0.4279780000000  0.4141140000000  0.4691940000000 1.0
C      1  0.5994510000000  0.5251280000000  0.5584320000000 1.0
C      1  0.4815350000000  0.6097340000000  0.4587440000000 1.0
C      1  0.3854830000000  0.5446440000000  0.4769420000000 1.0
C      1  0.4496480000000  0.4887110000000  0.3994220000000 1.0
C      1  0.4561770000000  0.4470010000000  0.6065210000000 1.0
C      1  0.4663040000000  0.5272550000000  0.4597300000000 1.0
C      1  0.5543390000000  0.4127040000000  0.5126210000000 1.0
C      1  0.4176280000000  0.4600930000000  0.4566690000000 1.0
C      1  0.5774790000000  0.5955130000000  0.4390030000000 1.0
C      1  0.4695180000000  0.5182550000000  0.5216240000000 1.0
C      1  0.5037060000000  0.5130310000000  0.5504390000000 1.0
C      1  0.4704000000000  0.4698090000000  0.6181540000000 1.0
C      1  0.5863580000000  0.4328710000000  0.4256250000000 1.0
C      1  0.5764510000000  0.5775380000000  0.4187020000000 1.0
C      1  0.4808100000000  0.5358340000000  0.3911650000000 1.0
C      1  0.4732710000000  0.4071160000000  0.4126880000000 1.0
C      1  0.4627710000000  0.4991470000000  0.4607090000000 1.0
C      1  0.5635960000000  0.5790340000000  0.5548170000000 1.0
C      1  0.4408110000000  0.4496820000000  0.5365730000000 1.0
C      1  0.4135540000000  0.5311270000000  0.5944550000000 1.0
C      1  0.5165670000000  0.5812610000000  0.5664270000000 1.0
C      1  0.5411600000000  0.4048300000000  0.5375210000000 1.0
C      1  0.3845200000000  0.5494610000000  0.5058020000000 1.0
C      1  0.5196680000000  0.6153830000000  0.5000730000000 1.0
C      1  0.6474930000000  0.4333920000000  0.5145120000000 1.0
C      1  0.4364630000000  0.5373240000000  0.4030820000000 1.0
C      1  0.5510850000000  0.4502810000000  0.6276270000000 1.0
C      1  0.4326460000000  0.4655810000000  0.3951910000000 1.0
C      1  0.5012140000000  0.4878810000000  0.5366030000000 1.0
C      1  0.6067720000000  0.5485630000000  0.5422490000000 1.0
C      1  0.5317180000000  0.4909540000000  0.4358320000000 1.0
C      1  0.4288860000000  0.4524880000000  0.6000110000000 1.0
C      1  0.5924040000000  0.5493000000000  0.4587080000000 1.0
C      1  0.5017040000000  0.5126480000000  0.3978000000000 1.0
C      1  0.4076450000000  0.5499810000000  0.5738070000000 1.0
C      1  0.4585370000000  0.5693710000000  0.5510420000000 1.0
C      1  0.6078240000000  0.5428450000000  0.5151980000000 1.0
C      1  0.5562720000000  0.4417890000000  0.4624390000000 1.0
C      1  0.4895010000000  0.3939020000000  0.5176100000000 1.0
C      1  0.4640610000000  0.5716120000000  0.4817950000000 1.0
C      1  0.5144620000000  0.4786860000000  0.4543760000000 1.0
C      1  0.4721900000000  0.4241020000000  0.5622890000000 1.0
C      1  0.5093050000000  0.4274580000000  0.4564520000000 1.0
C      1  0.4714700000000  0.5481130000000  0.5670360000000 1.0
C      1  0.4662980000000  0.4358460000000  0.5370170000000 1.0
C      1  0.5637410000000  0.5055330000000  0.4756220000000 1.0
C      1  0.4907020000000  0.4563790000000  0.3994950000000 1.0
C      1  0.5227940000000  0.4680810000000  0.5000190000000 1.0
C      1  0.4078250000000  0.6065390000000  0.4960260000000 1.0
C      1  0.4687490000000  0.4282700000000  0.5889140000000 1.0
C      1  0.5718090000000  0.5013150000000  0.4081440000000 1.0
C      1  0.4769210000000  0.4885650000000  0.5194480000000 1.0
C      1  0.5551580000000  0.4741660000000  0.5601550000000 1.0
C      1  0.5504440000000  0.4680000000000  0.5072210000000 1.0
C      1  0.5999850000000  0.4416490000000  0.5221420000000 1.0
C      1  0.4139060000000  0.4855780000000  0.4504230000000 1.0
C      1  0.5334240000000  0.4257510000000  0.4700030000000 1.0
C      1  0.5092870000000  0.5779240000000  0.4217550000000 1.0
C      1  0.4717530000000  0.4678810000000  0.5011210000000 1.0
C      1  0.4743500000000  0.5212740000000  0.5521300000000 1.0
C      1  0.5262790000000  0.4960990000000  0.3880890000000 1.0
C      1  0.5464670000000  0.5616630000000  0.4881840000000 1.0
C      1  0.4548220000000  0.4886330000000  0.6325900000000 1.0
C      1  0.5823760000000  0.5385170000000  0.5051090000000 1.0
C      1  0.5032840000000  0.5518420000000  0.4289810000000 1.0
C      1  0.5184000000000  0.5607650000000  0.4830880000000 1.0
C      1  0.4179620000000  0.5044560000000  0.4322490000000 1.0
C      1  0.6020790000000  0.4902040000000  0.5517760000000 1.0
C      1  0.4916410000000  0.4801790000000  0.6013660000000 1.0
END
