TITL C-599890-3321-255 2.6574545560121e-05 125000 -34.6375062347576 0 0 7 (Cs) n - 1
REM
REM in /home/nfs/bkarasulu/CARBON/AIRSS/Generating-Clusters/TERSOFF/Only-C1/FIRE-HFTN
REM
REM
REM
REM
REM
REM ./C.cell (11c1c37f851c82e70ff6c80c92926a4b)
REM AIRSS Version 0.9.1 bugfix July 2018 build 013d7b7c2542+ Fri, 06 Jul 2018 19:26:36 +0100
REM compiler GCC version 9.2.1 20190827 (Red Hat 9.2.1-1)
REM options -cpp -mtune=generic -march=x86-64 -g -O0 -fpre-include=/usr/include/finclude/math-vector-fortran.h
REM seed -1765925296 686419323 -1358924349 584596591 -1133106122 1370470031 278617749 185711598 -2006109531 -1502809659 -1017205325 468977077 -1336818208 -1471629536 -1400785691 -1536704111 1837315042 1092283573 736947201 -1480936152 64929818 882002777 1148444506 -372877155 1461344821 -497035942 -810473363 -1880097736 -1217001775 39378187 1079020568 1233190072 -300344321
REM
CELL 1.54180   50.00000   50.00000   50.00000   90.00000   90.00000   90.00000
LATT -1
SFAC C  
C      1  0.5060430000000  0.4867950000000  0.5089980000000 1.0
C      1  0.5195170000000  0.4796540000000  0.5317060000000 1.0
C      1  0.5010230000000  0.5137300000000  0.5034190000000 1.0
C      1  0.4971340000000  0.4672400000000  0.4911000000000 1.0
C      1  0.4961600000000  0.5391920000000  0.4979390000000 1.0
C      1  0.4913630000000  0.5642390000000  0.4925260000000 1.0
C      1  0.4887600000000  0.4491490000000  0.4743120000000 1.0
END
