TITL C-599897-7526-57 0.37894686217613 125000 -582.224354780899 0 0 96 (C1) n - 1
REM
REM in /home/nfs/bkarasulu/CARBON/AIRSS/Generating-Clusters/TERSOFF/Only-C1/FIRE-HFTN
REM
REM
REM
REM
REM
REM ./C.cell (11c1c37f851c82e70ff6c80c92926a4b)
REM AIRSS Version 0.9.1 bugfix July 2018 build 013d7b7c2542+ Fri, 06 Jul 2018 19:26:36 +0100
REM compiler GCC version 9.2.1 20190827 (Red Hat 9.2.1-1)
REM options -cpp -mtune=generic -march=x86-64 -g -O0 -fpre-include=/usr/include/finclude/math-vector-fortran.h
REM seed 618278719 -1418635325 -1615848706 -72344776 -933379351 -2069873462 2078869316 1411647257 -214854338 902571028 1842117623 149376282 -873374831 1867929752 -1820770647 1188273603 -1142482800 -523583365 -1342703640 -1543083300 1065089734 1065409382 -1969100013 1979986455 -1911092997 -94883903 -942727330 -363066887 -882407542 1020304303 -1528657773 -1381741351 708062268
REM
CELL 1.54180   50.00000   50.00000   50.00000   90.00000   90.00000   90.00000
LATT -1
SFAC C  
C      1  0.4692560000000  0.5137940000000  0.4717510000000 1.0
C      1  0.4684200000000  0.4755300000000  0.6055020000000 1.0
C      1  0.4282200000000  0.5302710000000  0.4296610000000 1.0
C      1  0.5787410000000  0.5289090000000  0.4286570000000 1.0
C      1  0.4660840000000  0.5464390000000  0.5226870000000 1.0
C      1  0.5316510000000  0.4296510000000  0.4583030000000 1.0
C      1  0.5988330000000  0.5130700000000  0.4414310000000 1.0
C      1  0.5937880000000  0.5007650000000  0.4662250000000 1.0
C      1  0.4904190000000  0.5521090000000  0.5590730000000 1.0
C      1  0.5120300000000  0.3849700000000  0.5107090000000 1.0
C      1  0.5423360000000  0.4071110000000  0.4736000000000 1.0
C      1  0.4977680000000  0.4441380000000  0.5812740000000 1.0
C      1  0.5844980000000  0.6094990000000  0.4266540000000 1.0
C      1  0.5720270000000  0.5035740000000  0.5406600000000 1.0
C      1  0.4835960000000  0.4689340000000  0.5831520000000 1.0
C      1  0.4893500000000  0.4340620000000  0.4310720000000 1.0
C      1  0.5257880000000  0.4885830000000  0.5344500000000 1.0
C      1  0.5329980000000  0.5004420000000  0.4780020000000 1.0
C      1  0.4857620000000  0.3956710000000  0.5174920000000 1.0
C      1  0.4425720000000  0.5237980000000  0.4757760000000 1.0
C      1  0.5155120000000  0.4899110000000  0.4345670000000 1.0
C      1  0.4350870000000  0.4918790000000  0.6426620000000 1.0
C      1  0.5149000000000  0.4629250000000  0.5263700000000 1.0
C      1  0.4878840000000  0.4834490000000  0.4337350000000 1.0
C      1  0.5549770000000  0.4958310000000  0.4956220000000 1.0
C      1  0.5839870000000  0.6355570000000  0.4272260000000 1.0
C      1  0.5844410000000  0.5829950000000  0.4263680000000 1.0
C      1  0.6231100000000  0.5096220000000  0.4292060000000 1.0
C      1  0.4274620000000  0.5945880000000  0.4947010000000 1.0
C      1  0.4909010000000  0.5260060000000  0.4850020000000 1.0
C      1  0.5202070000000  0.3925780000000  0.4844060000000 1.0
C      1  0.5923470000000  0.5088980000000  0.5560840000000 1.0
C      1  0.4828440000000  0.4095050000000  0.5417500000000 1.0
C      1  0.4482140000000  0.5410400000000  0.5746270000000 1.0
C      1  0.4231950000000  0.5295410000000  0.5692880000000 1.0
C      1  0.4704230000000  0.4775310000000  0.5371220000000 1.0
C      1  0.4627820000000  0.5508770000000  0.5985890000000 1.0
C      1  0.5342340000000  0.5444610000000  0.5611110000000 1.0
C      1  0.4060460000000  0.4581370000000  0.4451080000000 1.0
C      1  0.4267580000000  0.4189380000000  0.4733400000000 1.0
C      1  0.5139240000000  0.5854650000000  0.4519730000000 1.0
C      1  0.5939680000000  0.3934540000000  0.4793850000000 1.0
C      1  0.4446690000000  0.5403510000000  0.4087980000000 1.0
C      1  0.4849560000000  0.4862610000000  0.5602590000000 1.0
C      1  0.5263830000000  0.4442360000000  0.5874160000000 1.0
C      1  0.4657710000000  0.4666410000000  0.4722550000000 1.0
C      1  0.5429760000000  0.4554370000000  0.4598720000000 1.0
C      1  0.4641370000000  0.5589950000000  0.4123450000000 1.0
C      1  0.5824570000000  0.5565930000000  0.4270990000000 1.0
C      1  0.5689830000000  0.4001880000000  0.4762880000000 1.0
C      1  0.5690280000000  0.4395020000000  0.5605580000000 1.0
C      1  0.5037860000000  0.4227840000000  0.4521070000000 1.0
C      1  0.4261670000000  0.5053720000000  0.5243930000000 1.0
C      1  0.4128400000000  0.5071060000000  0.4276420000000 1.0
C      1  0.5089100000000  0.5302440000000  0.5576690000000 1.0
C      1  0.4641160000000  0.5455350000000  0.5507540000000 1.0
C      1  0.5769690000000  0.4841510000000  0.4812930000000 1.0
C      1  0.4723560000000  0.4894650000000  0.4571790000000 1.0
C      1  0.5287730000000  0.4804100000000  0.4578840000000 1.0
C      1  0.5314590000000  0.5709960000000  0.4662360000000 1.0
C      1  0.4972670000000  0.4290040000000  0.5557240000000 1.0
C      1  0.5215830000000  0.4403160000000  0.5424160000000 1.0
C      1  0.4739510000000  0.4020100000000  0.4913100000000 1.0
C      1  0.4452150000000  0.5680300000000  0.4558480000000 1.0
C      1  0.4275200000000  0.5161030000000  0.4983110000000 1.0
C      1  0.4725540000000  0.5780340000000  0.5935630000000 1.0
C      1  0.4340310000000  0.5418420000000  0.4555170000000 1.0
C      1  0.5421830000000  0.4414510000000  0.5632480000000 1.0
C      1  0.5509450000000  0.4966470000000  0.5237440000000 1.0
C      1  0.4140560000000  0.5180630000000  0.5465740000000 1.0
C      1  0.4673830000000  0.5727130000000  0.4366580000000 1.0
C      1  0.4460040000000  0.5888560000000  0.4758280000000 1.0
C      1  0.5554190000000  0.5176280000000  0.4177540000000 1.0
C      1  0.4873310000000  0.4642320000000  0.5182440000000 1.0
C      1  0.4901160000000  0.5446320000000  0.5077230000000 1.0
C      1  0.5189490000000  0.5245890000000  0.4780110000000 1.0
C      1  0.5314580000000  0.5057420000000  0.4178930000000 1.0
C      1  0.5138180000000  0.5404270000000  0.6070350000000 1.0
C      1  0.5348690000000  0.5464740000000  0.5899940000000 1.0
C      1  0.4864850000000  0.5375270000000  0.6099390000000 1.0
C      1  0.5358120000000  0.5577280000000  0.5353420000000 1.0
C      1  0.4865440000000  0.5902330000000  0.4495710000000 1.0
C      1  0.4763950000000  0.4561900000000  0.4942370000000 1.0
C      1  0.5185090000000  0.5554710000000  0.5120570000000 1.0
C      1  0.4951580000000  0.4033280000000  0.4716020000000 1.0
C      1  0.5695530000000  0.4591480000000  0.4697130000000 1.0
C      1  0.4517080000000  0.4829590000000  0.6246690000000 1.0
C      1  0.5303780000000  0.5504940000000  0.4853170000000 1.0
C      1  0.5078530000000  0.5025800000000  0.5528340000000 1.0
C      1  0.4059070000000  0.4821820000000  0.4337790000000 1.0
C      1  0.4909630000000  0.5773120000000  0.5729860000000 1.0
C      1  0.4822500000000  0.4583260000000  0.4217760000000 1.0
C      1  0.4129170000000  0.4365720000000  0.4590470000000 1.0
C      1  0.4711380000000  0.6023880000000  0.4711000000000 1.0
C      1  0.4473040000000  0.4070110000000  0.4852780000000 1.0
C      1  0.4443990000000  0.4849830000000  0.5309360000000 1.0
END
