TITL C-599892-9790-860 0.00290126403386706 125000 -657.783788922996 0 0 109 (C1) n - 1
REM
REM in /home/nfs/bkarasulu/CARBON/AIRSS/Generating-Clusters/TERSOFF/Only-C1/FIRE-HFTN
REM
REM
REM
REM
REM
REM ./C.cell (11c1c37f851c82e70ff6c80c92926a4b)
REM AIRSS Version 0.9.1 bugfix July 2018 build 013d7b7c2542+ Fri, 06 Jul 2018 19:26:36 +0100
REM compiler GCC version 9.2.1 20190827 (Red Hat 9.2.1-1)
REM options -cpp -mtune=generic -march=x86-64 -g -O0 -fpre-include=/usr/include/finclude/math-vector-fortran.h
REM seed -1974625958 -861991381 1162664998 -1035812987 -1644586016 1671012437 269443319 -1352870220 -798188198 2007620081 1676768042 1972036766 1131159670 1457352322 -1433485565 -285234981 1199513272 1099555253 1369158384 318795876 -1532959953 -587890183 -1348598471 1891727036 -1449148402 -570598476 1965155966 964161262 967650742 -1850297982 -642673572 -621743829 -1523056810
REM
CELL 1.54180   50.00000   50.00000   50.00000   90.00000   90.00000   90.00000
LATT -1
SFAC C  
C      1  0.4135700000000  0.5544580000000  0.4218210000000 1.0
C      1  0.4359480000000  0.5387440000000  0.4903950000000 1.0
C      1  0.5736280000000  0.5025900000000  0.5627210000000 1.0
C      1  0.5355690000000  0.5735200000000  0.4833480000000 1.0
C      1  0.4000730000000  0.5667400000000  0.4411880000000 1.0
C      1  0.5710970000000  0.5975800000000  0.4505760000000 1.0
C      1  0.5778520000000  0.4782330000000  0.5761780000000 1.0
C      1  0.4871910000000  0.3799060000000  0.5701230000000 1.0
C      1  0.5397290000000  0.5919730000000  0.5409730000000 1.0
C      1  0.4376200000000  0.4921520000000  0.5496700000000 1.0
C      1  0.3687230000000  0.5830330000000  0.5325850000000 1.0
C      1  0.4567800000000  0.5253620000000  0.3700850000000 1.0
C      1  0.5069970000000  0.4781110000000  0.4725850000000 1.0
C      1  0.4680670000000  0.5601220000000  0.4526950000000 1.0
C      1  0.5256060000000  0.5141240000000  0.4009560000000 1.0
C      1  0.4849770000000  0.4329500000000  0.5192810000000 1.0
C      1  0.5284710000000  0.4914300000000  0.5327380000000 1.0
C      1  0.5172860000000  0.4674260000000  0.5745900000000 1.0
C      1  0.5146460000000  0.4878470000000  0.5570960000000 1.0
C      1  0.5784390000000  0.4521230000000  0.4764480000000 1.0
C      1  0.4804290000000  0.5843250000000  0.4611080000000 1.0
C      1  0.4940930000000  0.5632860000000  0.5602280000000 1.0
C      1  0.4883650000000  0.5018610000000  0.5079510000000 1.0
C      1  0.5267790000000  0.4991550000000  0.4706890000000 1.0
C      1  0.5408930000000  0.5767530000000  0.5632400000000 1.0
C      1  0.4921670000000  0.5851600000000  0.5404640000000 1.0
C      1  0.4008710000000  0.5285620000000  0.5687660000000 1.0
C      1  0.5259990000000  0.4144960000000  0.5424570000000 1.0
C      1  0.4997760000000  0.4532290000000  0.4214060000000 1.0
C      1  0.5514620000000  0.5125410000000  0.4078630000000 1.0
C      1  0.4832290000000  0.3927030000000  0.5467880000000 1.0
C      1  0.4419690000000  0.5935530000000  0.5378520000000 1.0
C      1  0.4917320000000  0.5488160000000  0.5045300000000 1.0
C      1  0.4342190000000  0.5154890000000  0.5062880000000 1.0
C      1  0.4947750000000  0.4789840000000  0.4107480000000 1.0
C      1  0.4325500000000  0.5420120000000  0.4079670000000 1.0
C      1  0.4981610000000  0.4133430000000  0.5345110000000 1.0
C      1  0.4337770000000  0.4912450000000  0.4913410000000 1.0
C      1  0.4665990000000  0.5288840000000  0.5395650000000 1.0
C      1  0.5782330000000  0.4287660000000  0.4920980000000 1.0
C      1  0.5471270000000  0.4081910000000  0.5248190000000 1.0
C      1  0.4788910000000  0.5268690000000  0.4130630000000 1.0
C      1  0.5895270000000  0.5309760000000  0.4680990000000 1.0
C      1  0.4175250000000  0.4481770000000  0.4788270000000 1.0
C      1  0.5697950000000  0.5052550000000  0.4279170000000 1.0
C      1  0.5855800000000  0.5242880000000  0.4421570000000 1.0
C      1  0.5652690000000  0.3577530000000  0.4951220000000 1.0
C      1  0.5369420000000  0.4472680000000  0.5778730000000 1.0
C      1  0.4815810000000  0.4801330000000  0.4891200000000 1.0
C      1  0.4472050000000  0.5504630000000  0.4690890000000 1.0
C      1  0.5673340000000  0.3338480000000  0.5052940000000 1.0
C      1  0.5233670000000  0.5272520000000  0.4686390000000 1.0
C      1  0.4838800000000  0.5425150000000  0.4365350000000 1.0
C      1  0.5212610000000  0.5573550000000  0.5705500000000 1.0
C      1  0.5189900000000  0.5240850000000  0.6056250000000 1.0
C      1  0.5366240000000  0.5450860000000  0.4865380000000 1.0
C      1  0.4433140000000  0.5136160000000  0.5335800000000 1.0
C      1  0.4162330000000  0.5897750000000  0.5323210000000 1.0
C      1  0.4564220000000  0.4867030000000  0.4745650000000 1.0
C      1  0.5637380000000  0.4823470000000  0.4434540000000 1.0
C      1  0.3878720000000  0.5115050000000  0.5526010000000 1.0
C      1  0.5568550000000  0.5223050000000  0.5755340000000 1.0
C      1  0.5068420000000  0.3830790000000  0.5881760000000 1.0
C      1  0.5731920000000  0.5025930000000  0.5340680000000 1.0
C      1  0.3932360000000  0.5767520000000  0.4648720000000 1.0
C      1  0.5541750000000  0.5862140000000  0.4668090000000 1.0
C      1  0.5537780000000  0.5322290000000  0.5047280000000 1.0
C      1  0.4778370000000  0.4543300000000  0.5049230000000 1.0
C      1  0.5638590000000  0.4065130000000  0.5021530000000 1.0
C      1  0.5316060000000  0.4204780000000  0.5701440000000 1.0
C      1  0.5806380000000  0.5251540000000  0.4942780000000 1.0
C      1  0.5264630000000  0.4436990000000  0.4238140000000 1.0
C      1  0.5741230000000  0.4785670000000  0.4888150000000 1.0
C      1  0.4559880000000  0.5312740000000  0.3968190000000 1.0
C      1  0.4338880000000  0.4358090000000  0.4614290000000 1.0
C      1  0.5164370000000  0.5913970000000  0.5252490000000 1.0
C      1  0.3921550000000  0.5853450000000  0.5186380000000 1.0
C      1  0.4707090000000  0.5463340000000  0.5616730000000 1.0
C      1  0.5626150000000  0.3835820000000  0.4851180000000 1.0
C      1  0.5588060000000  0.3886870000000  0.4577650000000 1.0
C      1  0.5338070000000  0.4667430000000  0.5198600000000 1.0
C      1  0.4136040000000  0.4714330000000  0.4943640000000 1.0
C      1  0.4553990000000  0.4331510000000  0.4456040000000 1.0
C      1  0.5187320000000  0.4524230000000  0.4764530000000 1.0
C      1  0.5849460000000  0.4982170000000  0.5072300000000 1.0
C      1  0.5512020000000  0.4352240000000  0.4351290000000 1.0
C      1  0.5157780000000  0.5891580000000  0.4966010000000 1.0
C      1  0.5537080000000  0.4900740000000  0.4699510000000 1.0
C      1  0.5308750000000  0.4488060000000  0.5002530000000 1.0
C      1  0.4907250000000  0.5965920000000  0.4842910000000 1.0
C      1  0.4988430000000  0.5066560000000  0.4065740000000 1.0
C      1  0.5461100000000  0.5131990000000  0.5256610000000 1.0
C      1  0.5320170000000  0.5341770000000  0.5836790000000 1.0
C      1  0.4779180000000  0.4387540000000  0.4321750000000 1.0
C      1  0.5487340000000  0.3960080000000  0.6088340000000 1.0
C      1  0.4721320000000  0.6069870000000  0.5030310000000 1.0
C      1  0.3935270000000  0.4771120000000  0.5133550000000 1.0
C      1  0.5090210000000  0.5378390000000  0.4476810000000 1.0
C      1  0.3851390000000  0.4928340000000  0.5334880000000 1.0
C      1  0.3921060000000  0.5831440000000  0.4906540000000 1.0
C      1  0.5632260000000  0.4565360000000  0.5821640000000 1.0
C      1  0.4545950000000  0.4902380000000  0.4476100000000 1.0
C      1  0.4683080000000  0.5965950000000  0.5293000000000 1.0
C      1  0.5554890000000  0.4078430000000  0.4395190000000 1.0
C      1  0.5295290000000  0.3997520000000  0.5897930000000 1.0
C      1  0.4853710000000  0.5270160000000  0.5188640000000 1.0
C      1  0.4221130000000  0.5415180000000  0.5788900000000 1.0
C      1  0.5689200000000  0.4539380000000  0.4478150000000 1.0
C      1  0.4480990000000  0.5486500000000  0.5784740000000 1.0
END
