TITL C-599893-4344-77 -2247.04459578 125000 -1214.056554836 0 0 199 (C1) n - 1
REM
REM in /home/nfs/bkarasulu/CARBON/AIRSS/Generating-Clusters/TERSOFF/Only-C1/FIRE-HFTN
REM
REM
REM
REM
REM
REM ./C.cell (11c1c37f851c82e70ff6c80c92926a4b)
REM AIRSS Version 0.9.1 bugfix July 2018 build 013d7b7c2542+ Fri, 06 Jul 2018 19:26:36 +0100
REM compiler GCC version 9.2.1 20190827 (Red Hat 9.2.1-1)
REM options -cpp -mtune=generic -march=x86-64 -g -O0 -fpre-include=/usr/include/finclude/math-vector-fortran.h
REM seed 134530732 -182750164 722830805 1103124734 667391472 1991085301 1605083092 -918553430 1964223163 256859627 570084865 773338100 510666953 248760350 1413695354 530539325 1910021341 -609264494 1955174517 -70367258 -1314337951 1431156443 2061016840 -1018896991 -388826542 -1411502937 -259366272 1101672573 759184122 -1212578464 -1646151446 -592973689 1429284716
REM
CELL 1.54180   50.00000   50.00000   50.00000   90.00000   90.00000   90.00000
LATT -1
SFAC C  
C      1  0.5003930000000  0.3722230000000  0.4252460000000 1.0
C      1  0.5533950000000  0.5151520000000  0.6139340000000 1.0
C      1  0.4480460000000  0.4633590000000  0.5163170000000 1.0
C      1  0.4959260000000  0.4355270000000  0.4922960000000 1.0
C      1  0.4869810000000  0.3520130000000  0.4983570000000 1.0
C      1  0.5295020000000  0.4872920000000  0.3769210000000 1.0
C      1  0.4697880000000  0.4626240000000  0.5621400000000 1.0
C      1  0.4434960000000  0.5935530000000  0.5555520000000 1.0
C      1  0.4496440000000  0.4713800000000  0.5444620000000 1.0
C      1  0.5639140000000  0.3868530000000  0.6321720000000 1.0
C      1  0.4787440000000  0.5926580000000  0.4351660000000 1.0
C      1  0.4254300000000  0.4585670000000  0.4711750000000 1.0
C      1  0.5013810000000  0.5892350000000  0.4164260000000 1.0
C      1  0.5754470000000  0.4402920000000  0.4153570000000 1.0
C      1  0.5583800000000  0.4061160000000  0.4466480000000 1.0
C      1  0.4859470000000  0.3519170000000  0.4715080000000 1.0
C      1  0.5408130000000  0.5232970000000  0.5683760000000 1.0
C      1  0.6027620000000  0.6076540000000  0.5158890000000 1.0
C      1  0.5471730000000  0.4057590000000  0.6386120000000 1.0
C      1  0.5750290000000  0.4903670000000  0.4543880000000 1.0
C      1  0.4903040000000  0.6157250000000  0.5479740000000 1.0
C      1  0.4916060000000  0.5040440000000  0.5511320000000 1.0
C      1  0.5204120000000  0.4037600000000  0.5731920000000 1.0
C      1  0.5285110000000  0.4484450000000  0.5583810000000 1.0
C      1  0.5809180000000  0.4299050000000  0.5468850000000 1.0
C      1  0.6572060000000  0.4917390000000  0.4751410000000 1.0
C      1  0.4867440000000  0.6034010000000  0.4609080000000 1.0
C      1  0.4917470000000  0.4813550000000  0.5684200000000 1.0
C      1  0.5432310000000  0.6159780000000  0.5579080000000 1.0
C      1  0.4753880000000  0.4866110000000  0.4784980000000 1.0
C      1  0.5682800000000  0.3959230000000  0.5157280000000 1.0
C      1  0.4349770000000  0.5074710000000  0.4143640000000 1.0
C      1  0.5438820000000  0.4711950000000  0.5655560000000 1.0
C      1  0.4623740000000  0.4703660000000  0.3808330000000 1.0
C      1  0.5437890000000  0.4550630000000  0.5036810000000 1.0
C      1  0.5494830000000  0.5452370000000  0.4482590000000 1.0
C      1  0.4857700000000  0.5110110000000  0.6194060000000 1.0
C      1  0.6131680000000  0.5112240000000  0.4756800000000 1.0
C      1  0.5663810000000  0.4057670000000  0.5428400000000 1.0
C      1  0.5657030000000  0.4708540000000  0.5201780000000 1.0
C      1  0.5082550000000  0.5122410000000  0.6022920000000 1.0
C      1  0.5405670000000  0.5797760000000  0.4820910000000 1.0
C      1  0.5266750000000  0.5905100000000  0.5042100000000 1.0
C      1  0.4313280000000  0.5529950000000  0.4693600000000 1.0
C      1  0.4748240000000  0.5262360000000  0.5569550000000 1.0
C      1  0.5543590000000  0.5858080000000  0.3091990000000 1.0
C      1  0.5289000000000  0.4262470000000  0.6437630000000 1.0
C      1  0.5457740000000  0.5104400000000  0.3717810000000 1.0
C      1  0.5136810000000  0.5560490000000  0.5405220000000 1.0
C      1  0.3958960000000  0.5225610000000  0.4846860000000 1.0
C      1  0.5260540000000  0.4945080000000  0.5178320000000 1.0
C      1  0.4776560000000  0.4617140000000  0.6132480000000 1.0
C      1  0.4887670000000  0.5641520000000  0.4935430000000 1.0
C      1  0.4900120000000  0.5501150000000  0.5555200000000 1.0
C      1  0.5657810000000  0.4212520000000  0.4688700000000 1.0
C      1  0.4940750000000  0.3686520000000  0.5484900000000 1.0
C      1  0.4890770000000  0.6178510000000  0.5193730000000 1.0
C      1  0.5640430000000  0.4582100000000  0.3966070000000 1.0
C      1  0.5034580000000  0.4976740000000  0.3827100000000 1.0
C      1  0.5408130000000  0.5388420000000  0.3731420000000 1.0
C      1  0.5220930000000  0.3959960000000  0.4874220000000 1.0
C      1  0.5308730000000  0.5590810000000  0.4648550000000 1.0
C      1  0.5245090000000  0.6053140000000  0.4196220000000 1.0
C      1  0.4905040000000  0.3569890000000  0.5245180000000 1.0
C      1  0.4511110000000  0.5801880000000  0.4349460000000 1.0
C      1  0.5936350000000  0.4188960000000  0.4767310000000 1.0
C      1  0.3947740000000  0.4209660000000  0.5578470000000 1.0
C      1  0.4344110000000  0.4963980000000  0.5497010000000 1.0
C      1  0.4358590000000  0.5802490000000  0.4601690000000 1.0
C      1  0.5016990000000  0.4128430000000  0.4767420000000 1.0
C      1  0.5750710000000  0.5390730000000  0.4594500000000 1.0
C      1  0.3838670000000  0.5088140000000  0.5468900000000 1.0
C      1  0.4640420000000  0.5701300000000  0.6016690000000 1.0
C      1  0.5179720000000  0.4381520000000  0.3977900000000 1.0
C      1  0.3479130000000  0.5157040000000  0.4796900000000 1.0
C      1  0.4914460000000  0.5205080000000  0.5041360000000 1.0
C      1  0.3929720000000  0.4527430000000  0.4349420000000 1.0
C      1  0.4058810000000  0.5636950000000  0.5555130000000 1.0
C      1  0.4713270000000  0.4361890000000  0.5737900000000 1.0
C      1  0.5881650000000  0.5137540000000  0.4615190000000 1.0
C      1  0.6077460000000  0.5651310000000  0.5603750000000 1.0
C      1  0.4064120000000  0.4606390000000  0.5909980000000 1.0
C      1  0.5166580000000  0.4320740000000  0.5802000000000 1.0
C      1  0.3980300000000  0.4479840000000  0.5674030000000 1.0
C      1  0.4421150000000  0.5553870000000  0.5905940000000 1.0
C      1  0.4755810000000  0.4124600000000  0.5586270000000 1.0
C      1  0.4970810000000  0.5081370000000  0.4791550000000 1.0
C      1  0.4202150000000  0.4471120000000  0.4447180000000 1.0
C      1  0.4207560000000  0.4823160000000  0.4115350000000 1.0
C      1  0.4765080000000  0.5896380000000  0.4842080000000 1.0
C      1  0.4061820000000  0.5384120000000  0.3908660000000 1.0
C      1  0.5492550000000  0.4978420000000  0.5577380000000 1.0
C      1  0.5515280000000  0.3569760000000  0.4496870000000 1.0
C      1  0.3978050000000  0.4193890000000  0.5303000000000 1.0
C      1  0.5235380000000  0.4760170000000  0.4942400000000 1.0
C      1  0.5625990000000  0.6286740000000  0.5417620000000 1.0
C      1  0.4651410000000  0.4572440000000  0.4086320000000 1.0
C      1  0.4568470000000  0.5340360000000  0.4685660000000 1.0
C      1  0.5127110000000  0.6158550000000  0.5012730000000 1.0
C      1  0.3947770000000  0.5659920000000  0.5312540000000 1.0
C      1  0.5495120000000  0.6088660000000  0.4284920000000 1.0
C      1  0.4277390000000  0.5350340000000  0.4077980000000 1.0
C      1  0.4279320000000  0.4876030000000  0.4669030000000 1.0
C      1  0.4766030000000  0.5911150000000  0.5896780000000 1.0
C      1  0.4954380000000  0.3918640000000  0.5647370000000 1.0
C      1  0.5157520000000  0.6221290000000  0.5588710000000 1.0
C      1  0.5298260000000  0.4715770000000  0.6113950000000 1.0
C      1  0.5860960000000  0.5863930000000  0.4579800000000 1.0
C      1  0.4772260000000  0.4774600000000  0.4273680000000 1.0
C      1  0.4892540000000  0.3582410000000  0.4455650000000 1.0
C      1  0.4954780000000  0.4623160000000  0.4860790000000 1.0
C      1  0.4664930000000  0.4896910000000  0.6159690000000 1.0
C      1  0.5241680000000  0.4416170000000  0.5301670000000 1.0
C      1  0.5457390000000  0.3977000000000  0.5610240000000 1.0
C      1  0.5444850000000  0.3818100000000  0.4412130000000 1.0
C      1  0.3975070000000  0.5652310000000  0.5046570000000 1.0
C      1  0.5847340000000  0.5609440000000  0.5464340000000 1.0
C      1  0.6010510000000  0.5567780000000  0.4988370000000 1.0
C      1  0.4542010000000  0.5020780000000  0.4596370000000 1.0
C      1  0.5233550000000  0.3882350000000  0.4215810000000 1.0
C      1  0.4488800000000  0.5221810000000  0.5457070000000 1.0
C      1  0.5362780000000  0.4609760000000  0.3882970000000 1.0
C      1  0.4573270000000  0.4862110000000  0.5028010000000 1.0
C      1  0.5333220000000  0.5246020000000  0.5960730000000 1.0
C      1  0.5517480000000  0.4885360000000  0.6194420000000 1.0
C      1  0.5046630000000  0.4854900000000  0.4275810000000 1.0
C      1  0.4857440000000  0.4087880000000  0.4551120000000 1.0
C      1  0.3695770000000  0.5132010000000  0.5231180000000 1.0
C      1  0.4819070000000  0.5262210000000  0.4224440000000 1.0
C      1  0.5590010000000  0.5663150000000  0.5567130000000 1.0
C      1  0.4308730000000  0.6050420000000  0.5325420000000 1.0
C      1  0.3933790000000  0.4741680000000  0.4171960000000 1.0
C      1  0.6080590000000  0.4383540000000  0.4599390000000 1.0
C      1  0.4778690000000  0.4184180000000  0.5314450000000 1.0
C      1  0.5061670000000  0.6215620000000  0.4730240000000 1.0
C      1  0.3701920000000  0.5171450000000  0.4953030000000 1.0
C      1  0.4895840000000  0.4393660000000  0.4029160000000 1.0
C      1  0.5512240000000  0.5907680000000  0.5675000000000 1.0
C      1  0.4393290000000  0.6074340000000  0.5057600000000 1.0
C      1  0.5306590000000  0.5514120000000  0.3971480000000 1.0
C      1  0.6114350000000  0.5838550000000  0.5069080000000 1.0
C      1  0.4378090000000  0.5077900000000  0.5044920000000 1.0
C      1  0.5310130000000  0.4147130000000  0.4092430000000 1.0
C      1  0.5566470000000  0.4204500000000  0.4220450000000 1.0
C      1  0.5459490000000  0.5546310000000  0.3506720000000 1.0
C      1  0.5716970000000  0.6023550000000  0.4419690000000 1.0
C      1  0.4285960000000  0.6002800000000  0.4798610000000 1.0
C      1  0.4061850000000  0.4914340000000  0.5460370000000 1.0
C      1  0.4260890000000  0.4511550000000  0.5008960000000 1.0
C      1  0.6195640000000  0.5336550000000  0.4922300000000 1.0
C      1  0.4044310000000  0.4452240000000  0.5187670000000 1.0
C      1  0.4700900000000  0.6020470000000  0.5640680000000 1.0
C      1  0.4908330000000  0.4405630000000  0.5952900000000 1.0
C      1  0.4604020000000  0.5035960000000  0.4301230000000 1.0
C      1  0.5831300000000  0.5467260000000  0.5215530000000 1.0
C      1  0.4001800000000  0.4636890000000  0.5422990000000 1.0
C      1  0.4477830000000  0.5308860000000  0.5180890000000 1.0
C      1  0.5633300000000  0.4676140000000  0.4611810000000 1.0
C      1  0.4407420000000  0.5594730000000  0.4170100000000 1.0
C      1  0.5121530000000  0.4248250000000  0.6660670000000 1.0
C      1  0.5027980000000  0.5076320000000  0.4094180000000 1.0
C      1  0.5224790000000  0.4966640000000  0.4722940000000 1.0
C      1  0.5502090000000  0.5703070000000  0.3297440000000 1.0
C      1  0.5450130000000  0.5455320000000  0.4207310000000 1.0
C      1  0.6299770000000  0.4879760000000  0.4740060000000 1.0
C      1  0.5828480000000  0.4543280000000  0.5354850000000 1.0
C      1  0.4703870000000  0.5410320000000  0.5003990000000 1.0
C      1  0.5541210000000  0.4986930000000  0.5279860000000 1.0
C      1  0.5551180000000  0.4459010000000  0.4774410000000 1.0
C      1  0.4367200000000  0.4569810000000  0.4205250000000 1.0
C      1  0.4300310000000  0.5704340000000  0.5683520000000 1.0
C      1  0.4200100000000  0.4805370000000  0.6028920000000 1.0
C      1  0.3744750000000  0.5187110000000  0.5712190000000 1.0
C      1  0.4376040000000  0.5279300000000  0.5993440000000 1.0
C      1  0.3654610000000  0.5262370000000  0.5944850000000 1.0
C      1  0.4824020000000  0.5479050000000  0.4018320000000 1.0
C      1  0.4997550000000  0.4311620000000  0.5198530000000 1.0
C      1  0.6205760000000  0.4613650000000  0.4708560000000 1.0
C      1  0.5049610000000  0.5650330000000  0.4010350000000 1.0
C      1  0.4958110000000  0.4239470000000  0.6863490000000 1.0
C      1  0.5394700000000  0.5461150000000  0.5508410000000 1.0
C      1  0.4799890000000  0.4881370000000  0.3705970000000 1.0
C      1  0.5030820000000  0.5071520000000  0.5258380000000 1.0
C      1  0.5272720000000  0.4481300000000  0.6264750000000 1.0
C      1  0.5986700000000  0.4408350000000  0.4322950000000 1.0
C      1  0.4064510000000  0.5488200000000  0.4835790000000 1.0
C      1  0.4159390000000  0.5037670000000  0.4869650000000 1.0
C      1  0.5877680000000  0.5617130000000  0.4716440000000 1.0
C      1  0.5846210000000  0.6237670000000  0.5272260000000 1.0
C      1  0.5246250000000  0.4872720000000  0.4462520000000 1.0
C      1  0.4672960000000  0.6070660000000  0.5045090000000 1.0
C      1  0.5098830000000  0.4842850000000  0.5920980000000 1.0
C      1  0.5921760000000  0.4025480000000  0.5002980000000 1.0
C      1  0.4405830000000  0.4996370000000  0.6067850000000 1.0
C      1  0.5439290000000  0.3898660000000  0.5020810000000 1.0
C      1  0.4830900000000  0.5409860000000  0.4502180000000 1.0
C      1  0.5635290000000  0.5264600000000  0.5222830000000 1.0
C      1  0.5099410000000  0.5695000000000  0.5156290000000 1.0
C      1  0.5028290000000  0.5540610000000  0.4667260000000 1.0
END
