TITL C-599895-9959-111 5169.90841769683 125000 -729.005167461224 0 0 122 (C1) n - 1
REM
REM in /home/nfs/bkarasulu/CARBON/AIRSS/Generating-Clusters/TERSOFF/Only-C1/FIRE-HFTN
REM
REM
REM
REM
REM
REM ./C.cell (11c1c37f851c82e70ff6c80c92926a4b)
REM AIRSS Version 0.9.1 bugfix July 2018 build 013d7b7c2542+ Fri, 06 Jul 2018 19:26:36 +0100
REM compiler GCC version 9.2.1 20190827 (Red Hat 9.2.1-1)
REM options -cpp -mtune=generic -march=x86-64 -g -O0 -fpre-include=/usr/include/finclude/math-vector-fortran.h
REM seed 2145212746 1419447483 -943706754 -1855776273 -1051634897 245317555 -1828723545 -1570700775 196522606 1205409761 -849686097 174923167 -1755265168 -776462600 718311985 -1294944228 650555571 818226584 1100404231 -2080567678 270167565 -1623238492 -1847330170 1309804924 -1074076572 -1016413117 1374613800 1576026506 -853459879 1877995877 -1923857287 -664556927 -1672741551
REM
CELL 1.54180   50.00000   50.00000   50.00000   90.00000   90.00000   90.00000
LATT -1
SFAC C  
C      1  0.5957290000000  0.4761680000000  0.5103040000000 1.0
C      1  0.4599520000000  0.4670270000000  0.5877610000000 1.0
C      1  0.4408360000000  0.5054190000000  0.4339940000000 1.0
C      1  0.4020180000000  0.5043980000000  0.5156030000000 1.0
C      1  0.5281690000000  0.4183810000000  0.4251990000000 1.0
C      1  0.5343070000000  0.4874870000000  0.4407680000000 1.0
C      1  0.4503680000000  0.5012530000000  0.5200070000000 1.0
C      1  0.5195370000000  0.4587610000000  0.5769670000000 1.0
C      1  0.5726040000000  0.5913380000000  0.5052140000000 1.0
C      1  0.4556420000000  0.4549450000000  0.4322070000000 1.0
C      1  0.4319060000000  0.5154570000000  0.5784480000000 1.0
C      1  0.4869490000000  0.4908880000000  0.4414340000000 1.0
C      1  0.4625800000000  0.5157600000000  0.4748530000000 1.0
C      1  0.4454390000000  0.5697010000000  0.4386970000000 1.0
C      1  0.4557870000000  0.4231540000000  0.5684830000000 1.0
C      1  0.4758860000000  0.4223300000000  0.5137330000000 1.0
C      1  0.4158300000000  0.5061670000000  0.4493470000000 1.0
C      1  0.5615920000000  0.5427150000000  0.4917370000000 1.0
C      1  0.5123210000000  0.5016120000000  0.4506870000000 1.0
C      1  0.5922940000000  0.5062510000000  0.5501290000000 1.0
C      1  0.5277870000000  0.3956860000000  0.5547800000000 1.0
C      1  0.5024070000000  0.4172810000000  0.5229380000000 1.0
C      1  0.4915040000000  0.4705720000000  0.5312290000000 1.0
C      1  0.5374630000000  0.5060750000000  0.5925960000000 1.0
C      1  0.4735080000000  0.5973370000000  0.4087570000000 1.0
C      1  0.5154660000000  0.5148110000000  0.4026830000000 1.0
C      1  0.5266780000000  0.5083100000000  0.5663620000000 1.0
C      1  0.4942230000000  0.5628740000000  0.5777660000000 1.0
C      1  0.4350600000000  0.4518210000000  0.4488520000000 1.0
C      1  0.4979910000000  0.4680610000000  0.5595050000000 1.0
C      1  0.5468880000000  0.4083130000000  0.5376510000000 1.0
C      1  0.5541090000000  0.4675090000000  0.5447550000000 1.0
C      1  0.5461290000000  0.4749460000000  0.3950400000000 1.0
C      1  0.5595440000000  0.4883590000000  0.5874460000000 1.0
C      1  0.5829660000000  0.4998480000000  0.5762040000000 1.0
C      1  0.4537420000000  0.3994490000000  0.4545040000000 1.0
C      1  0.4459520000000  0.5387900000000  0.5844250000000 1.0
C      1  0.5793520000000  0.4515370000000  0.5111270000000 1.0
C      1  0.5943140000000  0.4923820000000  0.4654480000000 1.0
C      1  0.5208220000000  0.5609050000000  0.5655600000000 1.0
C      1  0.4698030000000  0.5570580000000  0.5313120000000 1.0
C      1  0.5804940000000  0.5262110000000  0.5331010000000 1.0
C      1  0.5349760000000  0.4944440000000  0.4122050000000 1.0
C      1  0.4510370000000  0.4980710000000  0.4923400000000 1.0
C      1  0.5343870000000  0.4498600000000  0.3893930000000 1.0
C      1  0.4340690000000  0.4482360000000  0.4982170000000 1.0
C      1  0.5011860000000  0.4039920000000  0.5494350000000 1.0
C      1  0.4882060000000  0.4628090000000  0.3987170000000 1.0
C      1  0.4903750000000  0.5533930000000  0.4235210000000 1.0
C      1  0.4078450000000  0.5344570000000  0.4455220000000 1.0
C      1  0.4775010000000  0.4078260000000  0.5640970000000 1.0
C      1  0.5069780000000  0.4518670000000  0.3831650000000 1.0
C      1  0.4268180000000  0.4561950000000  0.5255620000000 1.0
C      1  0.4256910000000  0.5148070000000  0.5272210000000 1.0
C      1  0.5139380000000  0.5966670000000  0.4765600000000 1.0
C      1  0.4919100000000  0.4298030000000  0.4635350000000 1.0
C      1  0.4907650000000  0.5559090000000  0.4734910000000 1.0
C      1  0.4695970000000  0.5409890000000  0.4845810000000 1.0
C      1  0.5777600000000  0.6165200000000  0.5009380000000 1.0
C      1  0.5431980000000  0.4722980000000  0.4909430000000 1.0
C      1  0.5205650000000  0.5282990000000  0.4574810000000 1.0
C      1  0.5783720000000  0.5214250000000  0.5034310000000 1.0
C      1  0.4786920000000  0.4838970000000  0.5750030000000 1.0
C      1  0.4428830000000  0.5815730000000  0.4648610000000 1.0
C      1  0.5702730000000  0.4207400000000  0.5470390000000 1.0
C      1  0.4920020000000  0.6105220000000  0.4864150000000 1.0
C      1  0.4776390000000  0.6197130000000  0.3960550000000 1.0
C      1  0.5502200000000  0.4764730000000  0.4616920000000 1.0
C      1  0.4934880000000  0.5190350000000  0.6027180000000 1.0
C      1  0.5406350000000  0.4880200000000  0.5218830000000 1.0
C      1  0.4419810000000  0.5264640000000  0.4139480000000 1.0
C      1  0.4285790000000  0.4648710000000  0.5534580000000 1.0
C      1  0.4657480000000  0.4191530000000  0.4690470000000 1.0
C      1  0.4916450000000  0.5319650000000  0.4040490000000 1.0
C      1  0.4811180000000  0.5126950000000  0.5775080000000 1.0
C      1  0.5775970000000  0.4731080000000  0.4538070000000 1.0
C      1  0.5867030000000  0.4527360000000  0.4382630000000 1.0
C      1  0.4284470000000  0.5483320000000  0.4292380000000 1.0
C      1  0.5010550000000  0.5473440000000  0.4483130000000 1.0
C      1  0.4239820000000  0.4612860000000  0.4731390000000 1.0
C      1  0.4092730000000  0.4864260000000  0.4697090000000 1.0
C      1  0.5912090000000  0.4983410000000  0.4925150000000 1.0
C      1  0.5739650000000  0.4472820000000  0.5391590000000 1.0
C      1  0.5678800000000  0.5692880000000  0.5623600000000 1.0
C      1  0.4954070000000  0.5169630000000  0.5311310000000 1.0
C      1  0.4800260000000  0.5340200000000  0.5473320000000 1.0
C      1  0.4450120000000  0.4490050000000  0.5714030000000 1.0
C      1  0.4553210000000  0.5551820000000  0.5051440000000 1.0
C      1  0.5166300000000  0.5047270000000  0.6119660000000 1.0
C      1  0.5096400000000  0.4200000000000  0.4442750000000 1.0
C      1  0.5163250000000  0.5675950000000  0.4866310000000 1.0
C      1  0.5659810000000  0.5650580000000  0.5106080000000 1.0
C      1  0.5462850000000  0.4674960000000  0.5714910000000 1.0
C      1  0.5126260000000  0.4781990000000  0.6218420000000 1.0
C      1  0.4996340000000  0.4503450000000  0.4814330000000 1.0
C      1  0.4645880000000  0.5256000000000  0.3965960000000 1.0
C      1  0.5640780000000  0.5517960000000  0.5383180000000 1.0
C      1  0.4678440000000  0.5562100000000  0.5843870000000 1.0
C      1  0.4777530000000  0.4950670000000  0.5272660000000 1.0
C      1  0.4557600000000  0.4284440000000  0.4946080000000 1.0
C      1  0.5246000000000  0.5156190000000  0.5378190000000 1.0
C      1  0.4228160000000  0.5397390000000  0.5382070000000 1.0
C      1  0.5135240000000  0.4566590000000  0.6049750000000 1.0
C      1  0.4995680000000  0.4599890000000  0.5065020000000 1.0
C      1  0.4698650000000  0.5738020000000  0.4232820000000 1.0
C      1  0.3850740000000  0.5459830000000  0.4549960000000 1.0
C      1  0.5327650000000  0.4234820000000  0.5153790000000 1.0
C      1  0.5444200000000  0.5745210000000  0.5762250000000 1.0
C      1  0.4644330000000  0.5052530000000  0.4494410000000 1.0
C      1  0.4509310000000  0.5821680000000  0.4924430000000 1.0
C      1  0.5427960000000  0.4259250000000  0.4022920000000 1.0
C      1  0.5123660000000  0.5727460000000  0.5159020000000 1.0
C      1  0.4731180000000  0.5978640000000  0.5041910000000 1.0
C      1  0.6057990000000  0.4856260000000  0.5355220000000 1.0
C      1  0.4864380000000  0.5806320000000  0.5250820000000 1.0
C      1  0.5366030000000  0.5439860000000  0.4779640000000 1.0
C      1  0.3941780000000  0.4947550000000  0.4919290000000 1.0
C      1  0.4790920000000  0.4687290000000  0.4244090000000 1.0
C      1  0.4241070000000  0.4917750000000  0.5659520000000 1.0
C      1  0.5634910000000  0.4109370000000  0.3927330000000 1.0
C      1  0.5335300000000  0.5446920000000  0.5420360000000 1.0
C      1  0.5514360000000  0.4449380000000  0.5001400000000 1.0
END
