TITL C-599892-9790-1385 -0.000126659171407238 125000 -853.821684785941 0 0 137 (C1) n - 1
REM
REM in /home/nfs/bkarasulu/CARBON/AIRSS/Generating-Clusters/TERSOFF/Only-C1/FIRE-HFTN
REM
REM
REM
REM
REM
REM ./C.cell (11c1c37f851c82e70ff6c80c92926a4b)
REM AIRSS Version 0.9.1 bugfix July 2018 build 013d7b7c2542+ Fri, 06 Jul 2018 19:26:36 +0100
REM compiler GCC version 9.2.1 20190827 (Red Hat 9.2.1-1)
REM options -cpp -mtune=generic -march=x86-64 -g -O0 -fpre-include=/usr/include/finclude/math-vector-fortran.h
REM seed -599630369 -968283469 374313036 1257263566 1373035218 -920654270 55860724 -2030562721 -496975593 1632938262 975905002 786311199 135797815 687373625 711710952 1465033456 1123705789 -2041388740 570042063 -1146288264 160516269 -2040601157 1264732703 980091374 -420377155 1582221635 1296387145 1749152866 1197768648 -1515248863 -677680543 -468153852 408481044
REM
CELL 1.54180   50.00000   50.00000   50.00000   90.00000   90.00000   90.00000
LATT -1
SFAC C  
C      1  0.4731320000000  0.4512930000000  0.5753420000000 1.0
C      1  0.5020230000000  0.4280380000000  0.5184020000000 1.0
C      1  0.5742080000000  0.4707910000000  0.4910740000000 1.0
C      1  0.5314590000000  0.5443530000000  0.4461080000000 1.0
C      1  0.4347080000000  0.4605010000000  0.4655250000000 1.0
C      1  0.5544130000000  0.5793250000000  0.4762110000000 1.0
C      1  0.4036590000000  0.4936370000000  0.5419950000000 1.0
C      1  0.5051290000000  0.6118080000000  0.5295680000000 1.0
C      1  0.5256930000000  0.4495040000000  0.5779960000000 1.0
C      1  0.5058120000000  0.4593980000000  0.4765240000000 1.0
C      1  0.4220590000000  0.5489990000000  0.5528600000000 1.0
C      1  0.4089020000000  0.4708990000000  0.5614040000000 1.0
C      1  0.3958670000000  0.5427150000000  0.4940510000000 1.0
C      1  0.4694330000000  0.5437420000000  0.5191740000000 1.0
C      1  0.5798370000000  0.5772190000000  0.5769540000000 1.0
C      1  0.4624420000000  0.5432290000000  0.4672060000000 1.0
C      1  0.4880490000000  0.5771120000000  0.4909740000000 1.0
C      1  0.5329310000000  0.4294220000000  0.5594280000000 1.0
C      1  0.3961260000000  0.4483910000000  0.5213750000000 1.0
C      1  0.4769110000000  0.5185870000000  0.3833890000000 1.0
C      1  0.4346970000000  0.4314740000000  0.4630350000000 1.0
C      1  0.4175340000000  0.5195390000000  0.5543540000000 1.0
C      1  0.4604930000000  0.5132880000000  0.5851750000000 1.0
C      1  0.4731480000000  0.6551540000000  0.5256750000000 1.0
C      1  0.5667690000000  0.5633790000000  0.5965270000000 1.0
C      1  0.6059700000000  0.5250180000000  0.5406210000000 1.0
C      1  0.5175880000000  0.4984180000000  0.6040700000000 1.0
C      1  0.4812440000000  0.5157170000000  0.4318950000000 1.0
C      1  0.5664290000000  0.4606450000000  0.4444730000000 1.0
C      1  0.4637540000000  0.5604420000000  0.4928010000000 1.0
C      1  0.4815850000000  0.4139950000000  0.4415410000000 1.0
C      1  0.4583480000000  0.4800110000000  0.4054200000000 1.0
C      1  0.4700070000000  0.4894800000000  0.6003540000000 1.0
C      1  0.4365020000000  0.5731960000000  0.4950230000000 1.0
C      1  0.5692410000000  0.4582740000000  0.5610600000000 1.0
C      1  0.5069620000000  0.5240840000000  0.6092320000000 1.0
C      1  0.4289340000000  0.4786630000000  0.5794600000000 1.0
C      1  0.5573560000000  0.5261750000000  0.5466010000000 1.0
C      1  0.4004570000000  0.5070880000000  0.4244100000000 1.0
C      1  0.6093910000000  0.4759970000000  0.5316040000000 1.0
C      1  0.4727210000000  0.5040100000000  0.4070670000000 1.0
C      1  0.5785100000000  0.4895250000000  0.3904230000000 1.0
C      1  0.5785780000000  0.5079060000000  0.3681310000000 1.0
C      1  0.4985130000000  0.5917330000000  0.5493500000000 1.0
C      1  0.4444140000000  0.4316690000000  0.4169450000000 1.0
C      1  0.4526980000000  0.4211280000000  0.4424880000000 1.0
C      1  0.5611980000000  0.4154270000000  0.5236090000000 1.0
C      1  0.4006040000000  0.4870580000000  0.4420380000000 1.0
C      1  0.4742740000000  0.5504750000000  0.5466620000000 1.0
C      1  0.5276970000000  0.6091730000000  0.5115320000000 1.0
C      1  0.5951260000000  0.5243950000000  0.4784580000000 1.0
C      1  0.4706360000000  0.5418540000000  0.4398600000000 1.0
C      1  0.5935220000000  0.4706090000000  0.5545130000000 1.0
C      1  0.5194380000000  0.3918050000000  0.4997780000000 1.0
C      1  0.5832810000000  0.5406810000000  0.5451780000000 1.0
C      1  0.5446700000000  0.5985370000000  0.4929640000000 1.0
C      1  0.6121580000000  0.5035490000000  0.5230150000000 1.0
C      1  0.5627830000000  0.5300060000000  0.3780830000000 1.0
C      1  0.5497010000000  0.5207440000000  0.5741440000000 1.0
C      1  0.4049370000000  0.5161960000000  0.4937910000000 1.0
C      1  0.4095610000000  0.4761230000000  0.4666090000000 1.0
C      1  0.4994870000000  0.5405630000000  0.5872600000000 1.0
C      1  0.4476410000000  0.4556090000000  0.4052020000000 1.0
C      1  0.4105950000000  0.5654690000000  0.4947290000000 1.0
C      1  0.5074540000000  0.4524300000000  0.5048850000000 1.0
C      1  0.5605240000000  0.4331100000000  0.5482890000000 1.0
C      1  0.3954780000000  0.4774840000000  0.5168320000000 1.0
C      1  0.5877530000000  0.4469320000000  0.4974150000000 1.0
C      1  0.5241830000000  0.5167770000000  0.4601500000000 1.0
C      1  0.5039400000000  0.4015520000000  0.4560810000000 1.0
C      1  0.4671760000000  0.5765450000000  0.5537020000000 1.0
C      1  0.5473740000000  0.4696660000000  0.5773780000000 1.0
C      1  0.5698890000000  0.5291660000000  0.4673020000000 1.0
C      1  0.4971980000000  0.5014720000000  0.4513710000000 1.0
C      1  0.4741180000000  0.4582600000000  0.5477960000000 1.0
C      1  0.4288160000000  0.5485480000000  0.4125380000000 1.0
C      1  0.5623200000000  0.4881530000000  0.4386630000000 1.0
C      1  0.5546630000000  0.5541600000000  0.4627980000000 1.0
C      1  0.5904270000000  0.5051590000000  0.3439850000000 1.0
C      1  0.6108260000000  0.5112470000000  0.4957950000000 1.0
C      1  0.4449430000000  0.5220630000000  0.4715360000000 1.0
C      1  0.4528680000000  0.4668930000000  0.5898000000000 1.0
C      1  0.5184280000000  0.5218970000000  0.4895150000000 1.0
C      1  0.4156100000000  0.4199760000000  0.4805980000000 1.0
C      1  0.4937450000000  0.4788600000000  0.5428120000000 1.0
C      1  0.5221600000000  0.4511120000000  0.4548450000000 1.0
C      1  0.5351450000000  0.5445100000000  0.4177970000000 1.0
C      1  0.5120240000000  0.5672450000000  0.4979210000000 1.0
C      1  0.4969320000000  0.4793530000000  0.6032580000000 1.0
C      1  0.4533440000000  0.5547880000000  0.4215820000000 1.0
C      1  0.5638360000000  0.4996260000000  0.4130500000000 1.0
C      1  0.5216050000000  0.5766580000000  0.5591130000000 1.0
C      1  0.5516630000000  0.4195570000000  0.4744050000000 1.0
C      1  0.5136650000000  0.4729180000000  0.5237740000000 1.0
C      1  0.6104660000000  0.4536280000000  0.5133570000000 1.0
C      1  0.5586320000000  0.4867520000000  0.5054430000000 1.0
C      1  0.5031230000000  0.5604730000000  0.3812350000000 1.0
C      1  0.5366010000000  0.3991260000000  0.5226980000000 1.0
C      1  0.4587450000000  0.4705110000000  0.4773040000000 1.0
C      1  0.4890970000000  0.6346460000000  0.5277090000000 1.0
C      1  0.4647980000000  0.4032060000000  0.5081460000000 1.0
C      1  0.4501370000000  0.4998130000000  0.5122840000000 1.0
C      1  0.5488570000000  0.4425430000000  0.4572510000000 1.0
C      1  0.4927120000000  0.4036990000000  0.5053400000000 1.0
C      1  0.4339580000000  0.5075410000000  0.5759460000000 1.0
C      1  0.4958040000000  0.5093810000000  0.4993890000000 1.0
C      1  0.5115340000000  0.4494090000000  0.4286980000000 1.0
C      1  0.4547240000000  0.4726790000000  0.5059200000000 1.0
C      1  0.4747190000000  0.5145550000000  0.5187760000000 1.0
C      1  0.4008620000000  0.4290020000000  0.5015010000000 1.0
C      1  0.4013670000000  0.4461290000000  0.5495720000000 1.0
C      1  0.5527020000000  0.5259730000000  0.4051970000000 1.0
C      1  0.5448030000000  0.5700360000000  0.5424910000000 1.0
C      1  0.5263420000000  0.5440590000000  0.5049740000000 1.0
C      1  0.4858410000000  0.5058890000000  0.5457300000000 1.0
C      1  0.4575850000000  0.4517140000000  0.5253070000000 1.0
C      1  0.4864110000000  0.5412600000000  0.3729740000000 1.0
C      1  0.5532410000000  0.5058060000000  0.4589740000000 1.0
C      1  0.5378190000000  0.4859310000000  0.5216400000000 1.0
C      1  0.4945390000000  0.4299320000000  0.4211860000000 1.0
C      1  0.3976850000000  0.4885960000000  0.4908310000000 1.0
C      1  0.4331240000000  0.5140810000000  0.4949950000000 1.0
C      1  0.5456150000000  0.5461420000000  0.5887700000000 1.0
C      1  0.5208590000000  0.5620400000000  0.4012060000000 1.0
C      1  0.5184680000000  0.4165470000000  0.5393390000000 1.0
C      1  0.4853850000000  0.4780360000000  0.4672420000000 1.0
C      1  0.5406140000000  0.4961240000000  0.5861450000000 1.0
C      1  0.5202520000000  0.5585900000000  0.5811550000000 1.0
C      1  0.4998450000000  0.4546290000000  0.5884070000000 1.0
C      1  0.5741220000000  0.5685960000000  0.5503870000000 1.0
C      1  0.4518500000000  0.4246080000000  0.5189970000000 1.0
C      1  0.5702210000000  0.4239000000000  0.4975760000000 1.0
C      1  0.5405500000000  0.5435190000000  0.5292510000000 1.0
C      1  0.5277290000000  0.4009740000000  0.4737590000000 1.0
C      1  0.4805820000000  0.5282460000000  0.5667360000000 1.0
C      1  0.4378520000000  0.5724850000000  0.5564290000000 1.0
C      1  0.4097800000000  0.5298320000000  0.4140240000000 1.0
END
