TITL C-599897-7526-361 6.94290454167626 125000 -1128.06360042937 0 0 183 (C1) n - 1
REM
REM in /home/nfs/bkarasulu/CARBON/AIRSS/Generating-Clusters/TERSOFF/Only-C1/FIRE-HFTN
REM
REM
REM
REM
REM
REM ./C.cell (11c1c37f851c82e70ff6c80c92926a4b)
REM AIRSS Version 0.9.1 bugfix July 2018 build 013d7b7c2542+ Fri, 06 Jul 2018 19:26:36 +0100
REM compiler GCC version 9.2.1 20190827 (Red Hat 9.2.1-1)
REM options -cpp -mtune=generic -march=x86-64 -g -O0 -fpre-include=/usr/include/finclude/math-vector-fortran.h
REM seed -2029102542 500759752 805034523 -1800420951 -1131853303 1820625325 -1917682243 1543598289 2071434417 -137156883 1109278875 -814197936 -1744428022 -2144338658 707834652 -1092877021 -1780836567 145114136 1762239611 -181708258 -989825649 -1064047472 1098399639 428185105 861458697 172069217 -7213140 1976517810 -675904992 -128263679 -1980387188 213062319 -2093124840
REM
CELL 1.54180   50.00000   50.00000   50.00000   90.00000   90.00000   90.00000
LATT -1
SFAC C  
C      1  0.5485820000000  0.5410520000000  0.4169360000000 1.0
C      1  0.5956630000000  0.4863450000000  0.5453020000000 1.0
C      1  0.5055400000000  0.5065610000000  0.5665950000000 1.0
C      1  0.5777000000000  0.4901180000000  0.5686580000000 1.0
C      1  0.4350230000000  0.4079650000000  0.5034520000000 1.0
C      1  0.5620360000000  0.3748850000000  0.5105710000000 1.0
C      1  0.6083690000000  0.4606750000000  0.5405440000000 1.0
C      1  0.4263070000000  0.4463370000000  0.4774160000000 1.0
C      1  0.5035530000000  0.4273350000000  0.4607220000000 1.0
C      1  0.6186720000000  0.6359120000000  0.4833820000000 1.0
C      1  0.4462270000000  0.4636090000000  0.4883550000000 1.0
C      1  0.5506050000000  0.4776670000000  0.5761720000000 1.0
C      1  0.5805090000000  0.4787880000000  0.4321520000000 1.0
C      1  0.5358560000000  0.4001050000000  0.5918460000000 1.0
C      1  0.4776840000000  0.4269440000000  0.5902990000000 1.0
C      1  0.4620440000000  0.6234030000000  0.4758480000000 1.0
C      1  0.4794540000000  0.4879610000000  0.5691580000000 1.0
C      1  0.6029080000000  0.4209210000000  0.5137710000000 1.0
C      1  0.5903640000000  0.5047010000000  0.5226980000000 1.0
C      1  0.5684080000000  0.4556890000000  0.4431590000000 1.0
C      1  0.4893740000000  0.4527700000000  0.4658290000000 1.0
C      1  0.4139020000000  0.4936950000000  0.5855290000000 1.0
C      1  0.4361600000000  0.5544010000000  0.5310390000000 1.0
C      1  0.5651920000000  0.4085840000000  0.5437620000000 1.0
C      1  0.4923230000000  0.4482090000000  0.4016100000000 1.0
C      1  0.4244220000000  0.5233560000000  0.4570990000000 1.0
C      1  0.5894940000000  0.6278200000000  0.5211450000000 1.0
C      1  0.5108030000000  0.6325210000000  0.4127750000000 1.0
C      1  0.3893680000000  0.5189570000000  0.4233330000000 1.0
C      1  0.5504640000000  0.4454680000000  0.5765470000000 1.0
C      1  0.5526760000000  0.4802460000000  0.5229830000000 1.0
C      1  0.4286990000000  0.5972920000000  0.5166100000000 1.0
C      1  0.3681770000000  0.5149510000000  0.4811220000000 1.0
C      1  0.5761490000000  0.6192950000000  0.5425620000000 1.0
C      1  0.5580940000000  0.6026860000000  0.5560830000000 1.0
C      1  0.4773430000000  0.3887320000000  0.4929490000000 1.0
C      1  0.5527070000000  0.5199300000000  0.4591500000000 1.0
C      1  0.4956610000000  0.4068330000000  0.4421290000000 1.0
C      1  0.4268800000000  0.5334120000000  0.4837750000000 1.0
C      1  0.4386410000000  0.4986340000000  0.5432530000000 1.0
C      1  0.5230190000000  0.3530260000000  0.5918720000000 1.0
C      1  0.3972030000000  0.4844420000000  0.4562560000000 1.0
C      1  0.5234740000000  0.6066800000000  0.5207230000000 1.0
C      1  0.5165380000000  0.3313360000000  0.6047820000000 1.0
C      1  0.4699640000000  0.4123380000000  0.4329650000000 1.0
C      1  0.5832530000000  0.4159140000000  0.4904900000000 1.0
C      1  0.4407960000000  0.4572610000000  0.5860330000000 1.0
C      1  0.5419460000000  0.3917500000000  0.4426960000000 1.0
C      1  0.5213840000000  0.4296030000000  0.5364610000000 1.0
C      1  0.4926990000000  0.4903010000000  0.4972350000000 1.0
C      1  0.6101390000000  0.4856730000000  0.4775550000000 1.0
C      1  0.3808150000000  0.5164060000000  0.5424740000000 1.0
C      1  0.5952040000000  0.4221190000000  0.4629590000000 1.0
C      1  0.5645410000000  0.5323960000000  0.5931250000000 1.0
C      1  0.5376190000000  0.5966560000000  0.4576190000000 1.0
C      1  0.6000200000000  0.4894780000000  0.4504670000000 1.0
C      1  0.5396000000000  0.5205520000000  0.6015060000000 1.0
C      1  0.4574580000000  0.5520040000000  0.3798680000000 1.0
C      1  0.6187030000000  0.4592760000000  0.4861890000000 1.0
C      1  0.4382840000000  0.5513890000000  0.5025910000000 1.0
C      1  0.4350670000000  0.5877660000000  0.4574100000000 1.0
C      1  0.4732680000000  0.6182240000000  0.5016790000000 1.0
C      1  0.5363640000000  0.5226070000000  0.5199270000000 1.0
C      1  0.5298380000000  0.6016210000000  0.5487380000000 1.0
C      1  0.3838990000000  0.5329080000000  0.4961250000000 1.0
C      1  0.5132470000000  0.6315360000000  0.4796390000000 1.0
C      1  0.5547210000000  0.3833030000000  0.5363950000000 1.0
C      1  0.4701990000000  0.5055550000000  0.4920920000000 1.0
C      1  0.4422040000000  0.4097160000000  0.5313760000000 1.0
C      1  0.5679780000000  0.5597600000000  0.5875530000000 1.0
C      1  0.4944700000000  0.3946630000000  0.5149040000000 1.0
C      1  0.5086540000000  0.4732980000000  0.5094230000000 1.0
C      1  0.4992920000000  0.6162680000000  0.4333260000000 1.0
C      1  0.4496250000000  0.4106250000000  0.4544370000000 1.0
C      1  0.4065270000000  0.5840740000000  0.5015720000000 1.0
C      1  0.5256000000000  0.4800450000000  0.5296960000000 1.0
C      1  0.5267140000000  0.5148920000000  0.4696130000000 1.0
C      1  0.5299790000000  0.4982520000000  0.5848600000000 1.0
C      1  0.4113490000000  0.5883270000000  0.4734210000000 1.0
C      1  0.5673280000000  0.5830430000000  0.5743570000000 1.0
C      1  0.4580790000000  0.5039080000000  0.4183590000000 1.0
C      1  0.5627780000000  0.5345460000000  0.4389130000000 1.0
C      1  0.5645490000000  0.3921090000000  0.4884520000000 1.0
C      1  0.5358970000000  0.6445750000000  0.4182440000000 1.0
C      1  0.5425570000000  0.3969270000000  0.4708240000000 1.0
C      1  0.5238790000000  0.5343000000000  0.6203040000000 1.0
C      1  0.3890180000000  0.5452680000000  0.5383800000000 1.0
C      1  0.4697830000000  0.4382080000000  0.4182910000000 1.0
C      1  0.4721410000000  0.4509790000000  0.4890040000000 1.0
C      1  0.5717390000000  0.6256320000000  0.4764510000000 1.0
C      1  0.6182830000000  0.4388360000000  0.4660180000000 1.0
C      1  0.4658040000000  0.5461280000000  0.4624610000000 1.0
C      1  0.5308460000000  0.4285010000000  0.5934890000000 1.0
C      1  0.3842030000000  0.4933250000000  0.4317280000000 1.0
C      1  0.4989050000000  0.5441450000000  0.4967570000000 1.0
C      1  0.4756820000000  0.5260010000000  0.4161290000000 1.0
C      1  0.4690940000000  0.5518880000000  0.4048500000000 1.0
C      1  0.5148990000000  0.3876880000000  0.4342220000000 1.0
C      1  0.4276500000000  0.5107360000000  0.5680170000000 1.0
C      1  0.4280780000000  0.5012100000000  0.5162370000000 1.0
C      1  0.3919760000000  0.4397550000000  0.5400090000000 1.0
C      1  0.5832780000000  0.5135320000000  0.5839610000000 1.0
C      1  0.5018370000000  0.5206560000000  0.4262760000000 1.0
C      1  0.3950460000000  0.4308570000000  0.5148210000000 1.0
C      1  0.5226110000000  0.5288520000000  0.4952270000000 1.0
C      1  0.4766200000000  0.5319990000000  0.4837530000000 1.0
C      1  0.5923160000000  0.4163690000000  0.5405410000000 1.0
C      1  0.4982100000000  0.6363940000000  0.3888440000000 1.0
C      1  0.4640930000000  0.4527520000000  0.5361460000000 1.0
C      1  0.5145780000000  0.6133510000000  0.4569090000000 1.0
C      1  0.4945170000000  0.5671620000000  0.5118010000000 1.0
C      1  0.4989850000000  0.4224150000000  0.5211480000000 1.0
C      1  0.4464040000000  0.4904470000000  0.4971270000000 1.0
C      1  0.4471010000000  0.5627670000000  0.4535400000000 1.0
C      1  0.5196900000000  0.5065260000000  0.5394150000000 1.0
C      1  0.3801190000000  0.4882180000000  0.4802720000000 1.0
C      1  0.5466250000000  0.4609700000000  0.4600350000000 1.0
C      1  0.5560350000000  0.6013800000000  0.4787880000000 1.0
C      1  0.4625260000000  0.4807150000000  0.5457670000000 1.0
C      1  0.5056490000000  0.5817780000000  0.6162190000000 1.0
C      1  0.4219630000000  0.5377720000000  0.5718920000000 1.0
C      1  0.5762570000000  0.4282110000000  0.4416170000000 1.0
C      1  0.5461390000000  0.4298300000000  0.5495740000000 1.0
C      1  0.4348840000000  0.4362580000000  0.4519550000000 1.0
C      1  0.4873720000000  0.4791860000000  0.4522410000000 1.0
C      1  0.5670720000000  0.4581770000000  0.5161640000000 1.0
C      1  0.5380920000000  0.4736460000000  0.4035220000000 1.0
C      1  0.5323820000000  0.6524070000000  0.4786370000000 1.0
C      1  0.5266220000000  0.4208530000000  0.4754240000000 1.0
C      1  0.5030760000000  0.4340200000000  0.5961610000000 1.0
C      1  0.5072830000000  0.3764230000000  0.5324060000000 1.0
C      1  0.5158070000000  0.5575190000000  0.5650880000000 1.0
C      1  0.3808630000000  0.4795240000000  0.5080280000000 1.0
C      1  0.5939990000000  0.6300060000000  0.4934530000000 1.0
C      1  0.5220310000000  0.4494080000000  0.4053230000000 1.0
C      1  0.4581530000000  0.6004430000000  0.5179300000000 1.0
C      1  0.4547140000000  0.6082280000000  0.4529680000000 1.0
C      1  0.4078970000000  0.5343550000000  0.4363430000000 1.0
C      1  0.5303150000000  0.3756510000000  0.5490560000000 1.0
C      1  0.3861110000000  0.5572010000000  0.5116110000000 1.0
C      1  0.5445950000000  0.5960430000000  0.5040170000000 1.0
C      1  0.4743640000000  0.5787540000000  0.5277460000000 1.0
C      1  0.4977450000000  0.5360450000000  0.5683820000000 1.0
C      1  0.5547400000000  0.6504730000000  0.4365660000000 1.0
C      1  0.4799560000000  0.4424570000000  0.5146190000000 1.0
C      1  0.4530850000000  0.3993430000000  0.4821040000000 1.0
C      1  0.5386280000000  0.4263380000000  0.4094800000000 1.0
C      1  0.4625630000000  0.4774790000000  0.5910750000000 1.0
C      1  0.5122000000000  0.5577050000000  0.6261080000000 1.0
C      1  0.3957710000000  0.4645760000000  0.5532850000000 1.0
C      1  0.4138490000000  0.4666450000000  0.5768190000000 1.0
C      1  0.5420960000000  0.4430990000000  0.4807280000000 1.0
C      1  0.5296910000000  0.3761600000000  0.5777610000000 1.0
C      1  0.5023880000000  0.6206540000000  0.5042500000000 1.0
C      1  0.6149450000000  0.4489740000000  0.5132940000000 1.0
C      1  0.4671320000000  0.4882730000000  0.3364270000000 1.0
C      1  0.4838050000000  0.4591970000000  0.3768780000000 1.0
C      1  0.4524450000000  0.4827820000000  0.4389810000000 1.0
C      1  0.5991840000000  0.4386080000000  0.5581170000000 1.0
C      1  0.4746470000000  0.6018400000000  0.4323310000000 1.0
C      1  0.4529000000000  0.4326930000000  0.5773940000000 1.0
C      1  0.5149550000000  0.5858830000000  0.5672490000000 1.0
C      1  0.4604740000000  0.5603700000000  0.5435940000000 1.0
C      1  0.4754980000000  0.4731750000000  0.3559630000000 1.0
C      1  0.5622980000000  0.4851010000000  0.4103590000000 1.0
C      1  0.5568740000000  0.6473470000000  0.4645930000000 1.0
C      1  0.4513000000000  0.4300650000000  0.5492390000000 1.0
C      1  0.5063870000000  0.5948200000000  0.5926420000000 1.0
C      1  0.4736810000000  0.5774290000000  0.4171380000000 1.0
C      1  0.6055860000000  0.5039880000000  0.4987950000000 1.0
C      1  0.4264040000000  0.4938090000000  0.4539050000000 1.0
C      1  0.5811410000000  0.4408150000000  0.5803430000000 1.0
C      1  0.4714600000000  0.5441330000000  0.5632960000000 1.0
C      1  0.4144620000000  0.5516150000000  0.5490330000000 1.0
C      1  0.5056780000000  0.5035050000000  0.4501940000000 1.0
C      1  0.5620470000000  0.5077810000000  0.5194220000000 1.0
C      1  0.4153510000000  0.4273680000000  0.4958740000000 1.0
C      1  0.3846140000000  0.4873020000000  0.5365290000000 1.0
C      1  0.5637000000000  0.4389180000000  0.4971840000000 1.0
C      1  0.4484080000000  0.4536010000000  0.4319900000000 1.0
C      1  0.5560130000000  0.4122050000000  0.4277250000000 1.0
C      1  0.5232230000000  0.5332360000000  0.4129290000000 1.0
C      1  0.4095890000000  0.5186170000000  0.5017890000000 1.0
END
