TITL C-599893-4344-691 -3.39365920659996e-06 125000 -657.174622429917 0 0 106 (C1) n - 1
REM
REM in /home/nfs/bkarasulu/CARBON/AIRSS/Generating-Clusters/TERSOFF/Only-C1/FIRE-HFTN
REM
REM
REM
REM
REM
REM ./C.cell (11c1c37f851c82e70ff6c80c92926a4b)
REM AIRSS Version 0.9.1 bugfix July 2018 build 013d7b7c2542+ Fri, 06 Jul 2018 19:26:36 +0100
REM compiler GCC version 9.2.1 20190827 (Red Hat 9.2.1-1)
REM options -cpp -mtune=generic -march=x86-64 -g -O0 -fpre-include=/usr/include/finclude/math-vector-fortran.h
REM seed -1388982423 -41238255 -1097888726 290369492 1099975317 -1688953195 2083601337 -1157591698 260677723 887873767 -1236698913 1036524085 258025934 1527933163 146795368 1219437231 -1047750500 -651326145 -1106165408 523786986 -808104389 -860954720 -1162957636 -1889925724 -1321169511 1557550694 990883292 -1972640027 647894924 413292169 1974216707 288679440 -1377610908
REM
CELL 1.54180   50.00000   50.00000   50.00000   90.00000   90.00000   90.00000
LATT -1
SFAC C  
C      1  0.5872680000000  0.4879840000000  0.4669160000000 1.0
C      1  0.4961760000000  0.5234620000000  0.4573000000000 1.0
C      1  0.5267940000000  0.5732030000000  0.4472550000000 1.0
C      1  0.5713600000000  0.3989080000000  0.5273640000000 1.0
C      1  0.5022970000000  0.4743190000000  0.4443590000000 1.0
C      1  0.5767640000000  0.4004050000000  0.4999320000000 1.0
C      1  0.5376640000000  0.4138560000000  0.4675790000000 1.0
C      1  0.5467830000000  0.4791700000000  0.4977450000000 1.0
C      1  0.5756750000000  0.4420260000000  0.4795090000000 1.0
C      1  0.5178570000000  0.5439470000000  0.5072670000000 1.0
C      1  0.4333190000000  0.5317930000000  0.4304580000000 1.0
C      1  0.4447200000000  0.5462220000000  0.4727390000000 1.0
C      1  0.5699050000000  0.4179130000000  0.5461880000000 1.0
C      1  0.5074040000000  0.4521760000000  0.4993210000000 1.0
C      1  0.4530650000000  0.4094400000000  0.4747830000000 1.0
C      1  0.5727980000000  0.5106890000000  0.5197490000000 1.0
C      1  0.5252180000000  0.4683530000000  0.5133550000000 1.0
C      1  0.4366330000000  0.4533900000000  0.5493030000000 1.0
C      1  0.5498650000000  0.5065430000000  0.5033810000000 1.0
C      1  0.5228410000000  0.4270410000000  0.4497610000000 1.0
C      1  0.5237030000000  0.5708230000000  0.5143690000000 1.0
C      1  0.5545510000000  0.5703440000000  0.4525230000000 1.0
C      1  0.5687950000000  0.4439670000000  0.5515920000000 1.0
C      1  0.4164020000000  0.5147760000000  0.4433750000000 1.0
C      1  0.4776560000000  0.5149900000000  0.4985860000000 1.0
C      1  0.3963630000000  0.5009730000000  0.5583000000000 1.0
C      1  0.5093850000000  0.4517420000000  0.5730570000000 1.0
C      1  0.4439010000000  0.4139580000000  0.5021340000000 1.0
C      1  0.5386390000000  0.5042730000000  0.4511500000000 1.0
C      1  0.4842600000000  0.4910310000000  0.4852510000000 1.0
C      1  0.5135430000000  0.4504130000000  0.4410890000000 1.0
C      1  0.5214990000000  0.5245930000000  0.5887400000000 1.0
C      1  0.4532970000000  0.5451280000000  0.4450170000000 1.0
C      1  0.5801840000000  0.5589260000000  0.5194050000000 1.0
C      1  0.5841740000000  0.5358280000000  0.4764070000000 1.0
C      1  0.4726350000000  0.4916660000000  0.4143480000000 1.0
C      1  0.4351350000000  0.4697930000000  0.5032400000000 1.0
C      1  0.4894690000000  0.4953940000000  0.4579600000000 1.0
C      1  0.4486930000000  0.4265330000000  0.4521530000000 1.0
C      1  0.6221780000000  0.4533560000000  0.4713440000000 1.0
C      1  0.4499090000000  0.5467590000000  0.5582400000000 1.0
C      1  0.5586000000000  0.5419970000000  0.5648100000000 1.0
C      1  0.6042000000000  0.4338880000000  0.4800470000000 1.0
C      1  0.4882920000000  0.4956310000000  0.5447530000000 1.0
C      1  0.5744490000000  0.5633670000000  0.4712780000000 1.0
C      1  0.4169530000000  0.4269090000000  0.5037270000000 1.0
C      1  0.5095830000000  0.5895460000000  0.4984410000000 1.0
C      1  0.4177270000000  0.4517690000000  0.5224710000000 1.0
C      1  0.5680480000000  0.4694070000000  0.4802540000000 1.0
C      1  0.5234280000000  0.5718280000000  0.5642120000000 1.0
C      1  0.5862280000000  0.5327890000000  0.5069570000000 1.0
C      1  0.5092450000000  0.5566190000000  0.4281790000000 1.0
C      1  0.3938250000000  0.4950640000000  0.5306010000000 1.0
C      1  0.5333660000000  0.5266210000000  0.4921450000000 1.0
C      1  0.5598850000000  0.5132290000000  0.5660390000000 1.0
C      1  0.4617620000000  0.4371840000000  0.5467770000000 1.0
C      1  0.4332890000000  0.5601390000000  0.5160690000000 1.0
C      1  0.4312650000000  0.4703710000000  0.4466410000000 1.0
C      1  0.4193750000000  0.4958760000000  0.5744690000000 1.0
C      1  0.4936030000000  0.5105770000000  0.4088180000000 1.0
C      1  0.4832760000000  0.5758630000000  0.4636050000000 1.0
C      1  0.3921680000000  0.4668860000000  0.5257360000000 1.0
C      1  0.4208980000000  0.4928680000000  0.4608030000000 1.0
C      1  0.4265880000000  0.5309480000000  0.5207880000000 1.0
C      1  0.4590520000000  0.4967550000000  0.5482090000000 1.0
C      1  0.5704330000000  0.4966150000000  0.5450370000000 1.0
C      1  0.5329680000000  0.5493350000000  0.5793230000000 1.0
C      1  0.5598520000000  0.4180370000000  0.4836720000000 1.0
C      1  0.4284230000000  0.5174350000000  0.5910460000000 1.0
C      1  0.5164040000000  0.5318530000000  0.4124840000000 1.0
C      1  0.4613020000000  0.4308510000000  0.5183850000000 1.0
C      1  0.4214220000000  0.4918730000000  0.4902030000000 1.0
C      1  0.5455760000000  0.5257290000000  0.4131500000000 1.0
C      1  0.5347930000000  0.5010920000000  0.5781470000000 1.0
C      1  0.5234730000000  0.5220390000000  0.4663830000000 1.0
C      1  0.4855910000000  0.4407700000000  0.5632680000000 1.0
C      1  0.4412060000000  0.5407240000000  0.5844980000000 1.0
C      1  0.4652430000000  0.5847150000000  0.4848490000000 1.0
C      1  0.4074250000000  0.4340670000000  0.4770540000000 1.0
C      1  0.4835220000000  0.4647910000000  0.4930820000000 1.0
C      1  0.4696730000000  0.5881200000000  0.5327680000000 1.0
C      1  0.4948010000000  0.5233050000000  0.5419380000000 1.0
C      1  0.5583320000000  0.4696650000000  0.5513820000000 1.0
C      1  0.4099880000000  0.5096870000000  0.5107650000000 1.0
C      1  0.5106940000000  0.5846890000000  0.4689990000000 1.0
C      1  0.5780800000000  0.5769840000000  0.4967140000000 1.0
C      1  0.4466560000000  0.5226150000000  0.5411940000000 1.0
C      1  0.5372110000000  0.5744280000000  0.5388910000000 1.0
C      1  0.4247040000000  0.4435090000000  0.4562590000000 1.0
C      1  0.5602850000000  0.5149150000000  0.4360740000000 1.0
C      1  0.4815200000000  0.5933890000000  0.5074030000000 1.0
C      1  0.5629400000000  0.5599830000000  0.5419600000000 1.0
C      1  0.4495120000000  0.5691160000000  0.5394240000000 1.0
C      1  0.4556570000000  0.4701200000000  0.4283430000000 1.0
C      1  0.6037290000000  0.4076250000000  0.4914660000000 1.0
C      1  0.5286050000000  0.4741450000000  0.5630940000000 1.0
C      1  0.6138900000000  0.4782700000000  0.4649560000000 1.0
C      1  0.4941120000000  0.5316030000000  0.5154370000000 1.0
C      1  0.4544350000000  0.5250790000000  0.4877090000000 1.0
C      1  0.4637750000000  0.4415140000000  0.4319470000000 1.0
C      1  0.5813860000000  0.5145330000000  0.4568350000000 1.0
C      1  0.4396900000000  0.4796500000000  0.5609640000000 1.0
C      1  0.4420120000000  0.5686840000000  0.4896520000000 1.0
C      1  0.4601610000000  0.4558620000000  0.5033580000000 1.0
C      1  0.5129480000000  0.4805550000000  0.5374150000000 1.0
C      1  0.4836930000000  0.5497960000000  0.4461070000000 1.0
END
