TITL C-599892-9790-1239 0.647199262341357 125000 -78.9872496132825 0 0 15 (C1) n - 1
REM
REM in /home/nfs/bkarasulu/CARBON/AIRSS/Generating-Clusters/TERSOFF/Only-C1/FIRE-HFTN
REM
REM
REM
REM
REM
REM ./C.cell (11c1c37f851c82e70ff6c80c92926a4b)
REM AIRSS Version 0.9.1 bugfix July 2018 build 013d7b7c2542+ Fri, 06 Jul 2018 19:26:36 +0100
REM compiler GCC version 9.2.1 20190827 (Red Hat 9.2.1-1)
REM options -cpp -mtune=generic -march=x86-64 -g -O0 -fpre-include=/usr/include/finclude/math-vector-fortran.h
REM seed 1767774680 949158547 -849857216 22635947 -1588805234 1830734306 2061518420 -1499938907 613167779 457987218 -676194199 -1505911593 1296243122 -909871431 -579267925 1868116834 1779865144 -176314448 1849638037 1261839928 798669959 1678122724 -422210667 1339601254 793271262 80753169 -2030608834 -1044185652 2039740619 -1066127279 -1118429059 315277583 -592173631
REM
CELL 1.54180   50.00000   50.00000   50.00000   90.00000   90.00000   90.00000
LATT -1
SFAC C  
C      1  0.5054120000000  0.4810450000000  0.5074350000000 1.0
C      1  0.4899540000000  0.5313520000000  0.5012870000000 1.0
C      1  0.5660720000000  0.4197090000000  0.4612820000000 1.0
C      1  0.4739610000000  0.5829860000000  0.4947420000000 1.0
C      1  0.4822040000000  0.5564930000000  0.4982110000000 1.0
C      1  0.5489790000000  0.4311240000000  0.4773180000000 1.0
C      1  0.4760640000000  0.6009260000000  0.5152830000000 1.0
C      1  0.5316050000000  0.4426900000000  0.4936360000000 1.0
C      1  0.5153530000000  0.4394540000000  0.5568470000000 1.0
C      1  0.4977000000000  0.5061950000000  0.5043410000000 1.0
C      1  0.4795100000000  0.4250270000000  0.5289110000000 1.0
C      1  0.5025240000000  0.4393980000000  0.5326490000000 1.0
C      1  0.4635420000000  0.5909330000000  0.4700360000000 1.0
C      1  0.4538570000000  0.5981710000000  0.4469480000000 1.0
C      1  0.5132640000000  0.4544960000000  0.5110720000000 1.0
END
