TITL C-599896-8500-1130 228927.785517923 125000 -1110.91181468584 0 0 180 (C1) n - 1
REM
REM in /home/nfs/bkarasulu/CARBON/AIRSS/Generating-Clusters/TERSOFF/Only-C1/FIRE-HFTN
REM
REM
REM
REM
REM
REM ./C.cell (11c1c37f851c82e70ff6c80c92926a4b)
REM AIRSS Version 0.9.1 bugfix July 2018 build 013d7b7c2542+ Fri, 06 Jul 2018 19:26:36 +0100
REM compiler GCC version 9.2.1 20190827 (Red Hat 9.2.1-1)
REM options -cpp -mtune=generic -march=x86-64 -g -O0 -fpre-include=/usr/include/finclude/math-vector-fortran.h
REM seed -1944965030 1200238484 -1814930194 -545764423 1992518799 1367425399 -260873891 2137336677 -751439681 517396868 -2096448250 -1915241040 -1043793289 -1899622594 1881868374 -927028902 -1055893630 -212772748 -1916314165 -294252721 -1079096362 1597369617 1215835632 -764838573 -462518664 370321402 -1524065857 -1268789750 1775633364 -905680682 818991406 854582977 599672713
REM
CELL 1.54180   50.00000   50.00000   50.00000   90.00000   90.00000   90.00000
LATT -1
SFAC C  
C      1  0.4331810000000  0.4037010000000  0.5079700000000 1.0
C      1  0.5057330000000  0.4053580000000  0.4524360000000 1.0
C      1  0.5830620000000  0.4658600000000  0.4867970000000 1.0
C      1  0.5083820000000  0.5877920000000  0.5028840000000 1.0
C      1  0.6000410000000  0.5065690000000  0.5020590000000 1.0
C      1  0.3967840000000  0.5222630000000  0.5653950000000 1.0
C      1  0.5303010000000  0.4187340000000  0.5753410000000 1.0
C      1  0.4578730000000  0.4119880000000  0.5210220000000 1.0
C      1  0.4482240000000  0.4038520000000  0.4294930000000 1.0
C      1  0.4245070000000  0.5120310000000  0.4722060000000 1.0
C      1  0.5011370000000  0.5353690000000  0.4017740000000 1.0
C      1  0.5855150000000  0.4578910000000  0.4188750000000 1.0
C      1  0.4880540000000  0.5442570000000  0.4490780000000 1.0
C      1  0.5111660000000  0.6304470000000  0.4147870000000 1.0
C      1  0.5153330000000  0.4951360000000  0.5708080000000 1.0
C      1  0.5436330000000  0.4821260000000  0.6927280000000 1.0
C      1  0.6281080000000  0.4601160000000  0.5754150000000 1.0
C      1  0.5039160000000  0.5634530000000  0.4620080000000 1.0
C      1  0.4854150000000  0.4568780000000  0.6193280000000 1.0
C      1  0.4854320000000  0.4427800000000  0.4272300000000 1.0
C      1  0.5468940000000  0.5797350000000  0.4740350000000 1.0
C      1  0.5664950000000  0.4341700000000  0.6392200000000 1.0
C      1  0.3696430000000  0.5186590000000  0.5649590000000 1.0
C      1  0.4961480000000  0.5651370000000  0.5706550000000 1.0
C      1  0.4109870000000  0.4824370000000  0.3558860000000 1.0
C      1  0.4248790000000  0.4662210000000  0.5000400000000 1.0
C      1  0.4381560000000  0.4556570000000  0.5242610000000 1.0
C      1  0.5765940000000  0.4565090000000  0.5911460000000 1.0
C      1  0.3859430000000  0.4511730000000  0.4716070000000 1.0
C      1  0.5556220000000  0.4659010000000  0.5743450000000 1.0
C      1  0.5040680000000  0.3966130000000  0.5233380000000 1.0
C      1  0.4471000000000  0.4954350000000  0.5459850000000 1.0
C      1  0.4095060000000  0.5385510000000  0.5459840000000 1.0
C      1  0.5064950000000  0.5103840000000  0.4967590000000 1.0
C      1  0.4432560000000  0.4392140000000  0.5851500000000 1.0
C      1  0.5316670000000  0.4082720000000  0.5280130000000 1.0
C      1  0.4255770000000  0.5622090000000  0.4594480000000 1.0
C      1  0.4520320000000  0.5351570000000  0.4230640000000 1.0
C      1  0.5188860000000  0.6264110000000  0.4415900000000 1.0
C      1  0.5797980000000  0.4483420000000  0.4638960000000 1.0
C      1  0.4897220000000  0.4896320000000  0.4165990000000 1.0
C      1  0.4689600000000  0.6198540000000  0.4629590000000 1.0
C      1  0.4788180000000  0.4002890000000  0.5370740000000 1.0
C      1  0.4352430000000  0.5575610000000  0.4320380000000 1.0
C      1  0.4694860000000  0.5063520000000  0.5589310000000 1.0
C      1  0.5494630000000  0.5464920000000  0.5277480000000 1.0
C      1  0.4346160000000  0.6014540000000  0.5314190000000 1.0
C      1  0.5010850000000  0.5552100000000  0.5967280000000 1.0
C      1  0.5713280000000  0.5313230000000  0.5796320000000 1.0
C      1  0.5882390000000  0.5346050000000  0.4420400000000 1.0
C      1  0.4666900000000  0.5542040000000  0.4911270000000 1.0
C      1  0.5529390000000  0.5071450000000  0.6475420000000 1.0
C      1  0.4972480000000  0.6243210000000  0.4604870000000 1.0
C      1  0.4309080000000  0.4373750000000  0.4618440000000 1.0
C      1  0.5103510000000  0.4510640000000  0.4676840000000 1.0
C      1  0.5342250000000  0.4932660000000  0.4817630000000 1.0
C      1  0.4355900000000  0.4096250000000  0.4557390000000 1.0
C      1  0.4393430000000  0.5497110000000  0.5024710000000 1.0
C      1  0.6267710000000  0.5196710000000  0.5462180000000 1.0
C      1  0.4450040000000  0.5079320000000  0.4294790000000 1.0
C      1  0.5852290000000  0.4874850000000  0.4188320000000 1.0
C      1  0.3982080000000  0.4956060000000  0.4344000000000 1.0
C      1  0.5414530000000  0.4903670000000  0.5817290000000 1.0
C      1  0.5561440000000  0.5120230000000  0.5939260000000 1.0
C      1  0.5990340000000  0.5065700000000  0.4374060000000 1.0
C      1  0.5163500000000  0.4966190000000  0.5413640000000 1.0
C      1  0.5536330000000  0.4702880000000  0.5264140000000 1.0
C      1  0.5988070000000  0.4487620000000  0.4414440000000 1.0
C      1  0.5267590000000  0.4743260000000  0.4581010000000 1.0
C      1  0.4380610000000  0.5064200000000  0.5215590000000 1.0
C      1  0.4525940000000  0.6068530000000  0.4838090000000 1.0
C      1  0.5072910000000  0.4697630000000  0.3783850000000 1.0
C      1  0.4748380000000  0.4058070000000  0.5648740000000 1.0
C      1  0.4809880000000  0.5399310000000  0.4219780000000 1.0
C      1  0.4797970000000  0.6114810000000  0.5276710000000 1.0
C      1  0.5512330000000  0.4524090000000  0.5484310000000 1.0
C      1  0.3908130000000  0.5349460000000  0.4933060000000 1.0
C      1  0.5745080000000  0.5213450000000  0.4974520000000 1.0
C      1  0.4632230000000  0.4592430000000  0.4337080000000 1.0
C      1  0.5020720000000  0.4327440000000  0.4475590000000 1.0
C      1  0.5012550000000  0.5929900000000  0.5295740000000 1.0
C      1  0.4301260000000  0.4621480000000  0.5753700000000 1.0
C      1  0.5469220000000  0.6226160000000  0.4455380000000 1.0
C      1  0.5573340000000  0.5193270000000  0.5224710000000 1.0
C      1  0.5446200000000  0.5356850000000  0.4557680000000 1.0
C      1  0.4828140000000  0.5097920000000  0.4836890000000 1.0
C      1  0.4599900000000  0.4853460000000  0.3744650000000 1.0
C      1  0.4884690000000  0.4992400000000  0.5796570000000 1.0
C      1  0.4866530000000  0.5063210000000  0.6071040000000 1.0
C      1  0.5371620000000  0.4336020000000  0.3985860000000 1.0
C      1  0.5340520000000  0.5943200000000  0.4938520000000 1.0
C      1  0.5587510000000  0.4326820000000  0.4173160000000 1.0
C      1  0.3804540000000  0.4609430000000  0.5221130000000 1.0
C      1  0.4356090000000  0.4848310000000  0.3641080000000 1.0
C      1  0.5925160000000  0.5452730000000  0.5667710000000 1.0
C      1  0.5224600000000  0.5490640000000  0.5336110000000 1.0
C      1  0.5333670000000  0.3972420000000  0.4565930000000 1.0
C      1  0.6031090000000  0.4589210000000  0.5826720000000 1.0
C      1  0.6343960000000  0.5373830000000  0.5908790000000 1.0
C      1  0.5143420000000  0.4245690000000  0.5959540000000 1.0
C      1  0.4865890000000  0.4285610000000  0.4022290000000 1.0
C      1  0.5728220000000  0.5833520000000  0.4620000000000 1.0
C      1  0.4908460000000  0.5721730000000  0.4869650000000 1.0
C      1  0.5109120000000  0.5723000000000  0.5472070000000 1.0
C      1  0.4435000000000  0.6064760000000  0.4194980000000 1.0
C      1  0.4477620000000  0.5653040000000  0.5682210000000 1.0
C      1  0.5558000000000  0.4119700000000  0.4460650000000 1.0
C      1  0.5558590000000  0.5132490000000  0.6219230000000 1.0
C      1  0.5612330000000  0.4978490000000  0.4096420000000 1.0
C      1  0.5375070000000  0.4826660000000  0.4095180000000 1.0
C      1  0.4357600000000  0.5532110000000  0.5906120000000 1.0
C      1  0.6129720000000  0.4939750000000  0.4587590000000 1.0
C      1  0.4617510000000  0.4402380000000  0.5215190000000 1.0
C      1  0.5313870000000  0.5593620000000  0.4625570000000 1.0
C      1  0.5536900000000  0.4608410000000  0.4528610000000 1.0
C      1  0.5487090000000  0.4005330000000  0.5054360000000 1.0
C      1  0.5708340000000  0.4453020000000  0.6160600000000 1.0
C      1  0.4682580000000  0.4641870000000  0.4784880000000 1.0
C      1  0.5888640000000  0.5641900000000  0.5455170000000 1.0
C      1  0.3772220000000  0.4870100000000  0.5144370000000 1.0
C      1  0.4641440000000  0.4871300000000  0.4285020000000 1.0
C      1  0.4342790000000  0.3947580000000  0.4803870000000 1.0
C      1  0.5045610000000  0.6271090000000  0.3893360000000 1.0
C      1  0.5106680000000  0.4412040000000  0.3881870000000 1.0
C      1  0.4651010000000  0.4086230000000  0.4073860000000 1.0
C      1  0.3907050000000  0.4355240000000  0.5232910000000 1.0
C      1  0.6187280000000  0.5341370000000  0.5688340000000 1.0
C      1  0.5484880000000  0.4958950000000  0.6711270000000 1.0
C      1  0.5258260000000  0.4919010000000  0.3840300000000 1.0
C      1  0.4251090000000  0.5305640000000  0.6035990000000 1.0
C      1  0.4353090000000  0.4948270000000  0.4941140000000 1.0
C      1  0.5525470000000  0.5162730000000  0.4756180000000 1.0
C      1  0.4842160000000  0.4835330000000  0.6235610000000 1.0
C      1  0.4677800000000  0.4250200000000  0.5850250000000 1.0
C      1  0.4893630000000  0.3924810000000  0.4724930000000 1.0
C      1  0.5389570000000  0.4260770000000  0.5493740000000 1.0
C      1  0.4369770000000  0.4694820000000  0.5490170000000 1.0
C      1  0.4532440000000  0.4530570000000  0.4582930000000 1.0
C      1  0.5513660000000  0.5254940000000  0.4076540000000 1.0
C      1  0.5883760000000  0.5592310000000  0.4673450000000 1.0
C      1  0.4265790000000  0.5275510000000  0.6306930000000 1.0
C      1  0.4121480000000  0.5111940000000  0.5870400000000 1.0
C      1  0.5165210000000  0.4839260000000  0.4299350000000 1.0
C      1  0.4722050000000  0.5538380000000  0.5589890000000 1.0
C      1  0.4738420000000  0.5332090000000  0.4716700000000 1.0
C      1  0.4981500000000  0.6200540000000  0.3650700000000 1.0
C      1  0.5722460000000  0.4103810000000  0.4940030000000 1.0
C      1  0.4335050000000  0.5876410000000  0.4723210000000 1.0
C      1  0.6184010000000  0.5115220000000  0.5223500000000 1.0
C      1  0.5051050000000  0.5226800000000  0.5278100000000 1.0
C      1  0.5046210000000  0.3859670000000  0.4959220000000 1.0
C      1  0.4549980000000  0.6094060000000  0.5131800000000 1.0
C      1  0.4186270000000  0.5405330000000  0.4804220000000 1.0
C      1  0.5606130000000  0.5369990000000  0.4320420000000 1.0
C      1  0.5252260000000  0.5223360000000  0.3914970000000 1.0
C      1  0.4634510000000  0.4901560000000  0.4858760000000 1.0
C      1  0.4356400000000  0.5810390000000  0.4161050000000 1.0
C      1  0.5730010000000  0.4201620000000  0.4675030000000 1.0
C      1  0.4877640000000  0.4521420000000  0.5165650000000 1.0
C      1  0.4217100000000  0.5042280000000  0.4451580000000 1.0
C      1  0.4171110000000  0.4832220000000  0.5893600000000 1.0
C      1  0.4082920000000  0.4151180000000  0.5181550000000 1.0
C      1  0.5325330000000  0.3875710000000  0.4852530000000 1.0
C      1  0.5698500000000  0.6079290000000  0.4478520000000 1.0
C      1  0.4551230000000  0.6219650000000  0.4380410000000 1.0
C      1  0.6031310000000  0.4856360000000  0.4839080000000 1.0
C      1  0.4941450000000  0.5334460000000  0.6116390000000 1.0
C      1  0.5447930000000  0.4965820000000  0.5326390000000 1.0
C      1  0.4123020000000  0.4505780000000  0.4788140000000 1.0
C      1  0.4788050000000  0.5295220000000  0.5448170000000 1.0
C      1  0.5582770000000  0.4712230000000  0.4992500000000 1.0
C      1  0.3796250000000  0.5122410000000  0.5042310000000 1.0
C      1  0.4835750000000  0.4818160000000  0.3885210000000 1.0
C      1  0.4922700000000  0.4536650000000  0.4886160000000 1.0
C      1  0.4888450000000  0.4346900000000  0.6021090000000 1.0
C      1  0.4361140000000  0.5871000000000  0.5543240000000 1.0
C      1  0.5011650000000  0.4713790000000  0.5321690000000 1.0
C      1  0.5739410000000  0.5614890000000  0.5214870000000 1.0
C      1  0.4266240000000  0.5488040000000  0.5278550000000 1.0
C      1  0.5841020000000  0.5508270000000  0.4951440000000 1.0
END
