TITL C-599895-9959-716 677.025229519316 125000 -1046.74097698275 0 0 172 (C1) n - 1
REM
REM in /home/nfs/bkarasulu/CARBON/AIRSS/Generating-Clusters/TERSOFF/Only-C1/FIRE-HFTN
REM
REM
REM
REM
REM
REM ./C.cell (11c1c37f851c82e70ff6c80c92926a4b)
REM AIRSS Version 0.9.1 bugfix July 2018 build 013d7b7c2542+ Fri, 06 Jul 2018 19:26:36 +0100
REM compiler GCC version 9.2.1 20190827 (Red Hat 9.2.1-1)
REM options -cpp -mtune=generic -march=x86-64 -g -O0 -fpre-include=/usr/include/finclude/math-vector-fortran.h
REM seed -22565025 2016955713 1623510272 1195721826 -2094589836 -336288559 -1281602026 -110460221 -912996711 1649944289 1289131035 96085431 802592262 -44225553 -1580862706 -1129657819 -537879600 -527615889 -1590858089 471066105 1060949876 1824603754 1048804137 -1168883939 -1581702831 309228401 -972850629 -1159074009 -1085134549 1569654681 1589878561 1893732795 1368993172
REM
CELL 1.54180   50.00000   50.00000   50.00000   90.00000   90.00000   90.00000
LATT -1
SFAC C  
C      1  0.4779570000000  0.4214600000000  0.5963020000000 1.0
C      1  0.4097810000000  0.4174930000000  0.4738320000000 1.0
C      1  0.3969010000000  0.4527820000000  0.5098560000000 1.0
C      1  0.4387760000000  0.5844990000000  0.4336020000000 1.0
C      1  0.4414760000000  0.4299340000000  0.4376820000000 1.0
C      1  0.4664310000000  0.4994490000000  0.5685910000000 1.0
C      1  0.5040760000000  0.4400260000000  0.5090340000000 1.0
C      1  0.4478550000000  0.4995990000000  0.4203100000000 1.0
C      1  0.5432320000000  0.4080730000000  0.4674860000000 1.0
C      1  0.4389940000000  0.5750820000000  0.5150270000000 1.0
C      1  0.4980950000000  0.3805270000000  0.4578240000000 1.0
C      1  0.5222880000000  0.4610510000000  0.5045890000000 1.0
C      1  0.6016540000000  0.5244630000000  0.5252640000000 1.0
C      1  0.5117480000000  0.4831660000000  0.4870470000000 1.0
C      1  0.5158400000000  0.5966020000000  0.4309360000000 1.0
C      1  0.5275760000000  0.5343070000000  0.5141540000000 1.0
C      1  0.4779940000000  0.4732180000000  0.3954580000000 1.0
C      1  0.5314530000000  0.5838380000000  0.5839240000000 1.0
C      1  0.4669210000000  0.5002250000000  0.4716820000000 1.0
C      1  0.4623990000000  0.4319830000000  0.4181400000000 1.0
C      1  0.5365380000000  0.4435530000000  0.5514310000000 1.0
C      1  0.4824050000000  0.4792960000000  0.4837880000000 1.0
C      1  0.5735790000000  0.4136500000000  0.4291230000000 1.0
C      1  0.4813850000000  0.4484870000000  0.5235650000000 1.0
C      1  0.4654410000000  0.4607230000000  0.5010190000000 1.0
C      1  0.3876150000000  0.5191550000000  0.4425670000000 1.0
C      1  0.4953820000000  0.5281450000000  0.6172620000000 1.0
C      1  0.4557770000000  0.4027150000000  0.5143090000000 1.0
C      1  0.4281540000000  0.5815540000000  0.4617570000000 1.0
C      1  0.5930220000000  0.5501570000000  0.4772600000000 1.0
C      1  0.5354460000000  0.4989440000000  0.4146470000000 1.0
C      1  0.5161290000000  0.5132840000000  0.5683210000000 1.0
C      1  0.5769620000000  0.5862210000000  0.5295870000000 1.0
C      1  0.3863960000000  0.4926130000000  0.4379900000000 1.0
C      1  0.4231530000000  0.5045850000000  0.4076070000000 1.0
C      1  0.4133640000000  0.5141190000000  0.4819920000000 1.0
C      1  0.4779360000000  0.5916810000000  0.4655420000000 1.0
C      1  0.4298200000000  0.5506840000000  0.5019910000000 1.0
C      1  0.4739880000000  0.5708380000000  0.4007870000000 1.0
C      1  0.5952200000000  0.4011680000000  0.5384850000000 1.0
C      1  0.5350780000000  0.4071700000000  0.5134770000000 1.0
C      1  0.5191910000000  0.3929460000000  0.4725590000000 1.0
C      1  0.5720260000000  0.5076690000000  0.4981330000000 1.0
C      1  0.4584130000000  0.5476850000000  0.3933990000000 1.0
C      1  0.5005490000000  0.3635170000000  0.4070280000000 1.0
C      1  0.5791620000000  0.4319520000000  0.5014840000000 1.0
C      1  0.4042820000000  0.5324910000000  0.4611210000000 1.0
C      1  0.4294000000000  0.4740610000000  0.4579960000000 1.0
C      1  0.5400530000000  0.5971120000000  0.4456880000000 1.0
C      1  0.4531690000000  0.5463700000000  0.4823980000000 1.0
C      1  0.4589940000000  0.4404340000000  0.4810190000000 1.0
C      1  0.4151380000000  0.5270240000000  0.3951360000000 1.0
C      1  0.5122370000000  0.5134490000000  0.4716500000000 1.0
C      1  0.5018260000000  0.5640760000000  0.3964620000000 1.0
C      1  0.4911870000000  0.6121530000000  0.5069640000000 1.0
C      1  0.5146180000000  0.4824790000000  0.6137790000000 1.0
C      1  0.4207050000000  0.5119530000000  0.5746780000000 1.0
C      1  0.4401830000000  0.4755600000000  0.5086250000000 1.0
C      1  0.4470360000000  0.5804120000000  0.5995050000000 1.0
C      1  0.5840800000000  0.3886590000000  0.4253970000000 1.0
C      1  0.4237460000000  0.4218580000000  0.5475340000000 1.0
C      1  0.4504110000000  0.4942600000000  0.4479200000000 1.0
C      1  0.4872400000000  0.6013300000000  0.5333110000000 1.0
C      1  0.4701420000000  0.5688370000000  0.6053420000000 1.0
C      1  0.5563340000000  0.4723840000000  0.5847020000000 1.0
C      1  0.6113850000000  0.4965940000000  0.5268390000000 1.0
C      1  0.4726480000000  0.5628480000000  0.4678150000000 1.0
C      1  0.5823970000000  0.5116530000000  0.5669170000000 1.0
C      1  0.4083870000000  0.4885410000000  0.5802300000000 1.0
C      1  0.6014830000000  0.4691810000000  0.5254420000000 1.0
C      1  0.5553930000000  0.4168770000000  0.4927840000000 1.0
C      1  0.5947120000000  0.4584360000000  0.4971940000000 1.0
C      1  0.4990700000000  0.3708580000000  0.4319890000000 1.0
C      1  0.4030350000000  0.4703950000000  0.4427380000000 1.0
C      1  0.4138320000000  0.4382060000000  0.5664430000000 1.0
C      1  0.5787340000000  0.5262480000000  0.4311030000000 1.0
C      1  0.4941160000000  0.5552930000000  0.6087750000000 1.0
C      1  0.4827590000000  0.4561570000000  0.5510030000000 1.0
C      1  0.5602030000000  0.5792860000000  0.5804680000000 1.0
C      1  0.4527240000000  0.5356710000000  0.5404970000000 1.0
C      1  0.5270130000000  0.4689470000000  0.5915330000000 1.0
C      1  0.4980370000000  0.5248990000000  0.4501490000000 1.0
C      1  0.4798370000000  0.3926720000000  0.5015910000000 1.0
C      1  0.5461700000000  0.4880230000000  0.5368780000000 1.0
C      1  0.5368380000000  0.4164010000000  0.5398720000000 1.0
C      1  0.5177080000000  0.5104080000000  0.6186350000000 1.0
C      1  0.5846840000000  0.5392320000000  0.6082820000000 1.0
C      1  0.4113870000000  0.4280940000000  0.5009240000000 1.0
C      1  0.4658580000000  0.5195370000000  0.5196080000000 1.0
C      1  0.5677240000000  0.5618000000000  0.6025900000000 1.0
C      1  0.5086680000000  0.5597040000000  0.5193320000000 1.0
C      1  0.4137470000000  0.4225180000000  0.4450390000000 1.0
C      1  0.5109500000000  0.5084260000000  0.5148700000000 1.0
C      1  0.3923430000000  0.4787610000000  0.5191910000000 1.0
C      1  0.4244190000000  0.4868410000000  0.4851790000000 1.0
C      1  0.4302430000000  0.5505060000000  0.3967900000000 1.0
C      1  0.5686790000000  0.5907260000000  0.5028610000000 1.0
C      1  0.5204240000000  0.5584870000000  0.4735140000000 1.0
C      1  0.5794280000000  0.5288380000000  0.5435830000000 1.0
C      1  0.5106130000000  0.4507560000000  0.4215550000000 1.0
C      1  0.6005950000000  0.4565110000000  0.4106320000000 1.0
C      1  0.5711290000000  0.4970190000000  0.5888250000000 1.0
C      1  0.5622330000000  0.5851820000000  0.4555490000000 1.0
C      1  0.5462010000000  0.6094680000000  0.5003330000000 1.0
C      1  0.3964800000000  0.4434800000000  0.4357420000000 1.0
C      1  0.5267920000000  0.4283650000000  0.4266000000000 1.0
C      1  0.5426310000000  0.5237920000000  0.6195080000000 1.0
C      1  0.4456970000000  0.5195320000000  0.5639280000000 1.0
C      1  0.5314780000000  0.4771760000000  0.4576380000000 1.0
C      1  0.3805620000000  0.5742290000000  0.4683220000000 1.0
C      1  0.3980070000000  0.5061260000000  0.5231340000000 1.0
C      1  0.5419430000000  0.5526040000000  0.6151750000000 1.0
C      1  0.5334210000000  0.4647190000000  0.5304380000000 1.0
C      1  0.5121810000000  0.4487030000000  0.5709060000000 1.0
C      1  0.5393810000000  0.3845060000000  0.5966070000000 1.0
C      1  0.5105060000000  0.3962630000000  0.5012110000000 1.0
C      1  0.4399520000000  0.4746930000000  0.5373340000000 1.0
C      1  0.4223020000000  0.5721600000000  0.4133480000000 1.0
C      1  0.5193990000000  0.5668960000000  0.6039060000000 1.0
C      1  0.6045550000000  0.5416730000000  0.5026810000000 1.0
C      1  0.4627980000000  0.5210400000000  0.4908540000000 1.0
C      1  0.5877270000000  0.4363550000000  0.4209930000000 1.0
C      1  0.4606200000000  0.4734470000000  0.5577510000000 1.0
C      1  0.6021560000000  0.4765990000000  0.4756980000000 1.0
C      1  0.5661690000000  0.4931380000000  0.5189400000000 1.0
C      1  0.4894460000000  0.5086690000000  0.5300500000000 1.0
C      1  0.4969080000000  0.5518540000000  0.4575690000000 1.0
C      1  0.5294820000000  0.5216050000000  0.3973120000000 1.0
C      1  0.4691150000000  0.6059110000000  0.4884640000000 1.0
C      1  0.5642870000000  0.4531720000000  0.5635130000000 1.0
C      1  0.5334660000000  0.5328400000000  0.4830260000000 1.0
C      1  0.5872640000000  0.4504940000000  0.5449560000000 1.0
C      1  0.4910380000000  0.5080180000000  0.5583980000000 1.0
C      1  0.5763010000000  0.5752540000000  0.4785200000000 1.0
C      1  0.5191460000000  0.5837600000000  0.4056970000000 1.0
C      1  0.5732030000000  0.5844640000000  0.5561480000000 1.0
C      1  0.5949980000000  0.5283730000000  0.4556050000000 1.0
C      1  0.4877240000000  0.5983630000000  0.4396090000000 1.0
C      1  0.4840760000000  0.4498300000000  0.4104400000000 1.0
C      1  0.5046250000000  0.5349480000000  0.3934050000000 1.0
C      1  0.5530240000000  0.5375350000000  0.3919100000000 1.0
C      1  0.4772760000000  0.5246630000000  0.3925030000000 1.0
C      1  0.4459380000000  0.4489530000000  0.4582800000000 1.0
C      1  0.5593490000000  0.5046860000000  0.4316330000000 1.0
C      1  0.4052410000000  0.5622040000000  0.4635820000000 1.0
C      1  0.5222020000000  0.4758020000000  0.4296900000000 1.0
C      1  0.4579100000000  0.5636910000000  0.5352040000000 1.0
C      1  0.5565210000000  0.5156220000000  0.4773780000000 1.0
C      1  0.5385320000000  0.5104480000000  0.5525150000000 1.0
C      1  0.5221820000000  0.4028260000000  0.5896880000000 1.0
C      1  0.4963210000000  0.4691850000000  0.6303960000000 1.0
C      1  0.4242820000000  0.5906830000000  0.5919990000000 1.0
C      1  0.4303990000000  0.4160620000000  0.5203590000000 1.0
C      1  0.4661230000000  0.5885430000000  0.4222710000000 1.0
C      1  0.4753340000000  0.4528660000000  0.6328000000000 1.0
C      1  0.4695080000000  0.4991460000000  0.4019620000000 1.0
C      1  0.4753810000000  0.3798090000000  0.4753960000000 1.0
C      1  0.5688670000000  0.5143120000000  0.6112920000000 1.0
C      1  0.5480550000000  0.4167730000000  0.4410730000000 1.0
C      1  0.5157200000000  0.5753950000000  0.4954970000000 1.0
C      1  0.6052980000000  0.5016260000000  0.4644360000000 1.0
C      1  0.4072290000000  0.4617920000000  0.5775310000000 1.0
C      1  0.4422180000000  0.5939930000000  0.4922600000000 1.0
C      1  0.5183750000000  0.6036620000000  0.4983850000000 1.0
C      1  0.5870760000000  0.4255210000000  0.5294380000000 1.0
C      1  0.5747570000000  0.5418940000000  0.4079020000000 1.0
C      1  0.4120810000000  0.5272400000000  0.5076440000000 1.0
C      1  0.5501410000000  0.5326410000000  0.5365650000000 1.0
C      1  0.4857800000000  0.5724380000000  0.5342880000000 1.0
C      1  0.4661590000000  0.4327990000000  0.6175470000000 1.0
C      1  0.5036220000000  0.4232550000000  0.5848820000000 1.0
C      1  0.5530930000000  0.4956950000000  0.4576430000000 1.0
END
