TITL C-599893-4344-547 1.43024646719069e-05 125000 -937.029117740377 0 0 150 (C1) n - 1
REM
REM in /home/nfs/bkarasulu/CARBON/AIRSS/Generating-Clusters/TERSOFF/Only-C1/FIRE-HFTN
REM
REM
REM
REM
REM
REM ./C.cell (11c1c37f851c82e70ff6c80c92926a4b)
REM AIRSS Version 0.9.1 bugfix July 2018 build 013d7b7c2542+ Fri, 06 Jul 2018 19:26:36 +0100
REM compiler GCC version 9.2.1 20190827 (Red Hat 9.2.1-1)
REM options -cpp -mtune=generic -march=x86-64 -g -O0 -fpre-include=/usr/include/finclude/math-vector-fortran.h
REM seed -1770150439 -1348677811 993465782 719450798 80325223 2011902265 179197104 898276508 412428956 804921155 2004090151 -148220971 2117675878 2050924265 -773382688 -1089853081 -2095778706 -221616040 -209103095 -1099406834 -159110822 -1516005487 1559358894 -1840555338 654856048 -936232869 -661056513 -99875645 -1473925051 1178911358 161843495 -1074624656 -1937898249
REM
CELL 1.54180   50.00000   50.00000   50.00000   90.00000   90.00000   90.00000
LATT -1
SFAC C  
C      1  0.5109190000000  0.5640240000000  0.4900650000000 1.0
C      1  0.5948960000000  0.4335480000000  0.4740990000000 1.0
C      1  0.4355350000000  0.5538270000000  0.5579510000000 1.0
C      1  0.5583480000000  0.4638200000000  0.4492650000000 1.0
C      1  0.5265640000000  0.5488770000000  0.5869550000000 1.0
C      1  0.4341590000000  0.4780330000000  0.5308890000000 1.0
C      1  0.5839330000000  0.4093020000000  0.5143190000000 1.0
C      1  0.5581720000000  0.5986260000000  0.4765000000000 1.0
C      1  0.4063090000000  0.4733290000000  0.5251270000000 1.0
C      1  0.4779770000000  0.4771980000000  0.6097570000000 1.0
C      1  0.3879010000000  0.5839670000000  0.5075940000000 1.0
C      1  0.4531060000000  0.4008790000000  0.4781160000000 1.0
C      1  0.4915980000000  0.5046620000000  0.5062630000000 1.0
C      1  0.5042660000000  0.4220350000000  0.5767140000000 1.0
C      1  0.4016520000000  0.4995250000000  0.3919940000000 1.0
C      1  0.5708260000000  0.4760250000000  0.5150420000000 1.0
C      1  0.5596330000000  0.4511410000000  0.5053290000000 1.0
C      1  0.5667840000000  0.5524190000000  0.4615450000000 1.0
C      1  0.5009690000000  0.4602370000000  0.6090180000000 1.0
C      1  0.5341650000000  0.4754970000000  0.4116650000000 1.0
C      1  0.6168420000000  0.4831400000000  0.5320550000000 1.0
C      1  0.4822710000000  0.5019680000000  0.6231000000000 1.0
C      1  0.5373620000000  0.5220370000000  0.5789510000000 1.0
C      1  0.5097730000000  0.4613980000000  0.4188430000000 1.0
C      1  0.5798310000000  0.5932900000000  0.4942690000000 1.0
C      1  0.4932630000000  0.5523420000000  0.4708540000000 1.0
C      1  0.5431780000000  0.5247780000000  0.5509230000000 1.0
C      1  0.4945780000000  0.4572730000000  0.5462430000000 1.0
C      1  0.4245880000000  0.4560990000000  0.3848650000000 1.0
C      1  0.4344110000000  0.4288640000000  0.4278580000000 1.0
C      1  0.5401610000000  0.4985520000000  0.4847880000000 1.0
C      1  0.5794010000000  0.4316830000000  0.4981020000000 1.0
C      1  0.4685780000000  0.5849360000000  0.5811540000000 1.0
C      1  0.4719470000000  0.5644310000000  0.4583070000000 1.0
C      1  0.6375940000000  0.4518400000000  0.4872850000000 1.0
C      1  0.4597660000000  0.5591180000000  0.5731170000000 1.0
C      1  0.5222190000000  0.5410380000000  0.5050580000000 1.0
C      1  0.5680910000000  0.4037910000000  0.4411650000000 1.0
C      1  0.5538090000000  0.5778720000000  0.4558150000000 1.0
C      1  0.5151320000000  0.5148820000000  0.4877840000000 1.0
C      1  0.5000860000000  0.5412310000000  0.5960120000000 1.0
C      1  0.5666500000000  0.5392340000000  0.5445920000000 1.0
C      1  0.4622520000000  0.4951530000000  0.5659240000000 1.0
C      1  0.4800250000000  0.5389630000000  0.5756160000000 1.0
C      1  0.4233870000000  0.5746800000000  0.5410570000000 1.0
C      1  0.5382070000000  0.5041810000000  0.4109280000000 1.0
C      1  0.5214680000000  0.5290380000000  0.5324460000000 1.0
C      1  0.3920790000000  0.4939820000000  0.5126270000000 1.0
C      1  0.4356220000000  0.5999870000000  0.5348710000000 1.0
C      1  0.4448870000000  0.4147450000000  0.5011370000000 1.0
C      1  0.3886030000000  0.5943020000000  0.4828400000000 1.0
C      1  0.5766240000000  0.5688460000000  0.5081320000000 1.0
C      1  0.5596740000000  0.3654110000000  0.5179460000000 1.0
C      1  0.5390810000000  0.5714250000000  0.5760350000000 1.0
C      1  0.4601860000000  0.4907470000000  0.3910000000000 1.0
C      1  0.5657230000000  0.5661160000000  0.5347710000000 1.0
C      1  0.5009180000000  0.6018160000000  0.5477950000000 1.0
C      1  0.4025070000000  0.4738290000000  0.3836090000000 1.0
C      1  0.3931460000000  0.4501200000000  0.5331680000000 1.0
C      1  0.5567480000000  0.4621940000000  0.4224150000000 1.0
C      1  0.5834360000000  0.4611500000000  0.5592740000000 1.0
C      1  0.4245250000000  0.4434800000000  0.4496670000000 1.0
C      1  0.5638700000000  0.5002740000000  0.5011890000000 1.0
C      1  0.5902010000000  0.5145590000000  0.4401630000000 1.0
C      1  0.5429660000000  0.4790030000000  0.4650720000000 1.0
C      1  0.4893130000000  0.6008210000000  0.5736680000000 1.0
C      1  0.4598260000000  0.5178960000000  0.4330260000000 1.0
C      1  0.4589340000000  0.5507460000000  0.5132620000000 1.0
C      1  0.5344670000000  0.4592340000000  0.5756550000000 1.0
C      1  0.5116880000000  0.3824020000000  0.5108010000000 1.0
C      1  0.5685200000000  0.5323570000000  0.4408670000000 1.0
C      1  0.4382080000000  0.4110780000000  0.5526060000000 1.0
C      1  0.4466050000000  0.5181770000000  0.4814430000000 1.0
C      1  0.5355140000000  0.6071030000000  0.4916760000000 1.0
C      1  0.5240320000000  0.4741530000000  0.5973330000000 1.0
C      1  0.4671320000000  0.5015930000000  0.4918500000000 1.0
C      1  0.5062630000000  0.3939800000000  0.4855720000000 1.0
C      1  0.5464790000000  0.5294590000000  0.4226740000000 1.0
C      1  0.4597850000000  0.4162830000000  0.4308210000000 1.0
C      1  0.5032820000000  0.5167420000000  0.6113650000000 1.0
C      1  0.4423690000000  0.4430550000000  0.4978650000000 1.0
C      1  0.5615240000000  0.4550360000000  0.5726820000000 1.0
C      1  0.4966770000000  0.5135520000000  0.5345220000000 1.0
C      1  0.4045170000000  0.5658630000000  0.5212110000000 1.0
C      1  0.4252210000000  0.5484360000000  0.4494310000000 1.0
C      1  0.4999040000000  0.5253060000000  0.4629750000000 1.0
C      1  0.5788510000000  0.3838260000000  0.5200280000000 1.0
C      1  0.4778870000000  0.5667870000000  0.5226750000000 1.0
C      1  0.4684490000000  0.6077620000000  0.4689570000000 1.0
C      1  0.5255870000000  0.5025610000000  0.5975550000000 1.0
C      1  0.4678520000000  0.5102670000000  0.6446070000000 1.0
C      1  0.3930340000000  0.5199020000000  0.5066000000000 1.0
C      1  0.5001020000000  0.3900620000000  0.5354510000000 1.0
C      1  0.5335360000000  0.3647420000000  0.5126050000000 1.0
C      1  0.6162530000000  0.4519150000000  0.4700840000000 1.0
C      1  0.5009690000000  0.5411220000000  0.4181290000000 1.0
C      1  0.6259480000000  0.5026230000000  0.5160740000000 1.0
C      1  0.4391880000000  0.4290320000000  0.5722930000000 1.0
C      1  0.4241670000000  0.4340490000000  0.4022030000000 1.0
C      1  0.4831050000000  0.4571620000000  0.5206680000000 1.0
C      1  0.4608240000000  0.4757690000000  0.5869950000000 1.0
C      1  0.4108180000000  0.5413560000000  0.5080850000000 1.0
C      1  0.5123600000000  0.5925280000000  0.4858370000000 1.0
C      1  0.4293480000000  0.4515570000000  0.4745940000000 1.0
C      1  0.5747780000000  0.5470290000000  0.4889110000000 1.0
C      1  0.4379090000000  0.5373110000000  0.5006330000000 1.0
C      1  0.5289270000000  0.6026220000000  0.5408970000000 1.0
C      1  0.3773370000000  0.4303110000000  0.5392590000000 1.0
C      1  0.5053890000000  0.4328460000000  0.4206030000000 1.0
C      1  0.4695510000000  0.4051930000000  0.4555680000000 1.0
C      1  0.5313700000000  0.4475260000000  0.5022740000000 1.0
C      1  0.4286640000000  0.5258110000000  0.5534920000000 1.0
C      1  0.6104720000000  0.5174720000000  0.5001000000000 1.0
C      1  0.4799040000000  0.4235580000000  0.4120980000000 1.0
C      1  0.4816800000000  0.5149900000000  0.5591270000000 1.0
C      1  0.5884320000000  0.4151970000000  0.4538950000000 1.0
C      1  0.4043950000000  0.5913910000000  0.4614050000000 1.0
C      1  0.5139710000000  0.4450160000000  0.5621020000000 1.0
C      1  0.5828410000000  0.5212020000000  0.4965860000000 1.0
C      1  0.4593470000000  0.6185820000000  0.4937130000000 1.0
C      1  0.4988320000000  0.4319330000000  0.6031800000000 1.0
C      1  0.4210670000000  0.5150650000000  0.4025170000000 1.0
C      1  0.4818640000000  0.5940090000000  0.5281020000000 1.0
C      1  0.4455260000000  0.4524060000000  0.5833950000000 1.0
C      1  0.4534110000000  0.5856500000000  0.4582300000000 1.0
C      1  0.4541300000000  0.4606880000000  0.5172130000000 1.0
C      1  0.5907590000000  0.4736050000000  0.5355700000000 1.0
C      1  0.4878530000000  0.5235160000000  0.4364510000000 1.0
C      1  0.4903760000000  0.4758510000000  0.4319110000000 1.0
C      1  0.5468160000000  0.5824110000000  0.5507190000000 1.0
C      1  0.5162510000000  0.4147650000000  0.4403850000000 1.0
C      1  0.4390920000000  0.4991160000000  0.5499200000000 1.0
C      1  0.4406060000000  0.4045490000000  0.5268200000000 1.0
C      1  0.4994990000000  0.3996260000000  0.5605850000000 1.0
C      1  0.5318150000000  0.5767230000000  0.4363430000000 1.0
C      1  0.4497840000000  0.4683580000000  0.3800030000000 1.0
C      1  0.4269240000000  0.5766910000000  0.4538410000000 1.0
C      1  0.4586570000000  0.6090110000000  0.5204750000000 1.0
C      1  0.4484130000000  0.5098090000000  0.4083070000000 1.0
C      1  0.5418480000000  0.4042100000000  0.4373770000000 1.0
C      1  0.4417770000000  0.5254370000000  0.4541310000000 1.0
C      1  0.6056640000000  0.4934560000000  0.4451180000000 1.0
C      1  0.5272590000000  0.5512260000000  0.4223760000000 1.0
C      1  0.5107910000000  0.5965070000000  0.4394190000000 1.0
C      1  0.5043370000000  0.4512390000000  0.5020680000000 1.0
C      1  0.4981040000000  0.4042550000000  0.4604260000000 1.0
C      1  0.5368140000000  0.6170020000000  0.5179340000000 1.0
C      1  0.4970060000000  0.6036440000000  0.4638820000000 1.0
C      1  0.6304460000000  0.4581390000000  0.4244130000000 1.0
C      1  0.6173980000000  0.4679820000000  0.4464580000000 1.0
END
