TITL C-599893-4344-934 0.000388788924368679 125000 -281.908592591049 0 0 46 (C1) n - 1
REM
REM in /home/nfs/bkarasulu/CARBON/AIRSS/Generating-Clusters/TERSOFF/Only-C1/FIRE-HFTN
REM
REM
REM
REM
REM
REM ./C.cell (11c1c37f851c82e70ff6c80c92926a4b)
REM AIRSS Version 0.9.1 bugfix July 2018 build 013d7b7c2542+ Fri, 06 Jul 2018 19:26:36 +0100
REM compiler GCC version 9.2.1 20190827 (Red Hat 9.2.1-1)
REM options -cpp -mtune=generic -march=x86-64 -g -O0 -fpre-include=/usr/include/finclude/math-vector-fortran.h
REM seed 1219110133 -1996591208 -1252283581 -1184735262 1777496260 -2065946459 1459820623 1595689068 -1993722940 93593229 -2135319774 -1701072281 -253027951 1773491801 1768740935 1161442260 224744716 -755537488 -1191967249 -813587522 -803366161 1769127108 1974658526 131697413 691622823 -343119187 -476990254 1871244586 -1966974291 -994836782 1626055730 957317516 -709106838
REM
CELL 1.54180   50.00000   50.00000   50.00000   90.00000   90.00000   90.00000
LATT -1
SFAC C  
C      1  0.4913040000000  0.4644790000000  0.4901550000000 1.0
C      1  0.5758330000000  0.5507670000000  0.5241040000000 1.0
C      1  0.5080110000000  0.3705060000000  0.4907410000000 1.0
C      1  0.5913390000000  0.5384800000000  0.5058620000000 1.0
C      1  0.4439690000000  0.5374750000000  0.5349200000000 1.0
C      1  0.4865580000000  0.5198200000000  0.5490540000000 1.0
C      1  0.5732980000000  0.5494500000000  0.4192170000000 1.0
C      1  0.4994200000000  0.3935640000000  0.4993260000000 1.0
C      1  0.5215570000000  0.5567760000000  0.4170330000000 1.0
C      1  0.4517030000000  0.5025930000000  0.4883920000000 1.0
C      1  0.4579750000000  0.5206070000000  0.5532960000000 1.0
C      1  0.4335410000000  0.4444990000000  0.4700670000000 1.0
C      1  0.5164370000000  0.4712060000000  0.5016180000000 1.0
C      1  0.4808730000000  0.4378900000000  0.4895440000000 1.0
C      1  0.4901380000000  0.4251620000000  0.5352840000000 1.0
C      1  0.4605370000000  0.5432430000000  0.4628470000000 1.0
C      1  0.5263030000000  0.5397840000000  0.5286060000000 1.0
C      1  0.5282920000000  0.5172490000000  0.5114170000000 1.0
C      1  0.5930860000000  0.5407380000000  0.4347510000000 1.0
C      1  0.5895080000000  0.5223080000000  0.4826360000000 1.0
C      1  0.6005300000000  0.5304240000000  0.4582120000000 1.0
C      1  0.5415770000000  0.4637570000000  0.4908750000000 1.0
C      1  0.4208550000000  0.4669220000000  0.4776220000000 1.0
C      1  0.4994780000000  0.4946420000000  0.5435730000000 1.0
C      1  0.4440690000000  0.4935030000000  0.5915920000000 1.0
C      1  0.5478510000000  0.5548560000000  0.4137190000000 1.0
C      1  0.4572950000000  0.5461670000000  0.5115270000000 1.0
C      1  0.4241270000000  0.4881140000000  0.5474320000000 1.0
C      1  0.4184040000000  0.4875640000000  0.5213310000000 1.0
C      1  0.5668010000000  0.5051380000000  0.4816760000000 1.0
C      1  0.5506120000000  0.5530110000000  0.5333400000000 1.0
C      1  0.4994010000000  0.5434080000000  0.5367650000000 1.0
C      1  0.4901940000000  0.4183600000000  0.5080560000000 1.0
C      1  0.5636660000000  0.4770800000000  0.4823940000000 1.0
C      1  0.4276990000000  0.4882020000000  0.4948700000000 1.0
C      1  0.4422650000000  0.5002400000000  0.5652760000000 1.0
C      1  0.4759260000000  0.5511280000000  0.4426770000000 1.0
C      1  0.5157810000000  0.4932810000000  0.5199570000000 1.0
C      1  0.4743130000000  0.4862170000000  0.4839650000000 1.0
C      1  0.4574170000000  0.4332500000000  0.4746810000000 1.0
C      1  0.4944050000000  0.4707830000000  0.5572340000000 1.0
C      1  0.4970260000000  0.5555220000000  0.4271480000000 1.0
C      1  0.5426020000000  0.5184970000000  0.4876000000000 1.0
C      1  0.4544990000000  0.5311300000000  0.4873780000000 1.0
C      1  0.4823660000000  0.5576440000000  0.5187070000000 1.0
C      1  0.4911620000000  0.4445670000000  0.5535250000000 1.0
END
