TITL C-599892-9790-417 -7.52735195450835e-05 125000 -951.964888625864 0 0 155 (C1) n - 1
REM
REM in /home/nfs/bkarasulu/CARBON/AIRSS/Generating-Clusters/TERSOFF/Only-C1/FIRE-HFTN
REM
REM
REM
REM
REM
REM ./C.cell (11c1c37f851c82e70ff6c80c92926a4b)
REM AIRSS Version 0.9.1 bugfix July 2018 build 013d7b7c2542+ Fri, 06 Jul 2018 19:26:36 +0100
REM compiler GCC version 9.2.1 20190827 (Red Hat 9.2.1-1)
REM options -cpp -mtune=generic -march=x86-64 -g -O0 -fpre-include=/usr/include/finclude/math-vector-fortran.h
REM seed 213105999 -1770425979 -1131355578 105729230 19363273 1356614999 -2017823303 406013233 -255738182 1923886882 -365909934 -1755625823 -733718336 675248456 -1503333624 952768109 1415066273 1915372429 -1703056574 1799865825 -1101721058 -60151303 -998638300 -1759431131 269774477 1693355844 -1392808798 -331831331 -1750117198 -1918943375 -1872502572 299404749 812777707
REM
CELL 1.54180   50.00000   50.00000   50.00000   90.00000   90.00000   90.00000
LATT -1
SFAC C  
C      1  0.4625690000000  0.4270280000000  0.4881990000000 1.0
C      1  0.5153720000000  0.4923980000000  0.5512750000000 1.0
C      1  0.4572170000000  0.5274850000000  0.4492610000000 1.0
C      1  0.5105560000000  0.4568530000000  0.4792460000000 1.0
C      1  0.4862580000000  0.4808240000000  0.4652280000000 1.0
C      1  0.4535480000000  0.4500210000000  0.4017820000000 1.0
C      1  0.5041680000000  0.4071590000000  0.4778350000000 1.0
C      1  0.5434980000000  0.4470370000000  0.4308820000000 1.0
C      1  0.5141190000000  0.3855790000000  0.4612210000000 1.0
C      1  0.5499030000000  0.4145350000000  0.5803680000000 1.0
C      1  0.4688570000000  0.3830800000000  0.5064030000000 1.0
C      1  0.5252760000000  0.4646490000000  0.5018510000000 1.0
C      1  0.5911920000000  0.4919040000000  0.5250360000000 1.0
C      1  0.5734590000000  0.4236370000000  0.4600570000000 1.0
C      1  0.5661450000000  0.4540860000000  0.5274340000000 1.0
C      1  0.4348080000000  0.4874810000000  0.5128780000000 1.0
C      1  0.4173190000000  0.5829570000000  0.4858940000000 1.0
C      1  0.4836560000000  0.4879810000000  0.3729600000000 1.0
C      1  0.5472660000000  0.5485330000000  0.4455780000000 1.0
C      1  0.4247710000000  0.5448800000000  0.5649980000000 1.0
C      1  0.4939130000000  0.5082070000000  0.4753390000000 1.0
C      1  0.4985440000000  0.5580010000000  0.4656570000000 1.0
C      1  0.4196210000000  0.4889850000000  0.5587540000000 1.0
C      1  0.4384740000000  0.4289810000000  0.4714690000000 1.0
C      1  0.4933040000000  0.3821510000000  0.5744060000000 1.0
C      1  0.5710650000000  0.4272880000000  0.5689240000000 1.0
C      1  0.4940770000000  0.4239600000000  0.4015570000000 1.0
C      1  0.5231530000000  0.4203400000000  0.5878130000000 1.0
C      1  0.5709680000000  0.4770200000000  0.4546300000000 1.0
C      1  0.5263930000000  0.6226160000000  0.4778370000000 1.0
C      1  0.5638430000000  0.3985930000000  0.4632270000000 1.0
C      1  0.5272530000000  0.5533590000000  0.4703010000000 1.0
C      1  0.5115040000000  0.5708360000000  0.4217200000000 1.0
C      1  0.4781170000000  0.5350380000000  0.4724120000000 1.0
C      1  0.3840600000000  0.5487310000000  0.4945990000000 1.0
C      1  0.4095840000000  0.5560980000000  0.4885030000000 1.0
C      1  0.4683160000000  0.5321000000000  0.5735630000000 1.0
C      1  0.5997440000000  0.5082710000000  0.4834850000000 1.0
C      1  0.5273820000000  0.6160760000000  0.5059100000000 1.0
C      1  0.6060650000000  0.5759240000000  0.4853930000000 1.0
C      1  0.4956900000000  0.6064250000000  0.5693320000000 1.0
C      1  0.4980030000000  0.4090430000000  0.5789320000000 1.0
C      1  0.4565170000000  0.5419300000000  0.5268920000000 1.0
C      1  0.4352970000000  0.5714920000000  0.5710630000000 1.0
C      1  0.5525800000000  0.6010030000000  0.5104430000000 1.0
C      1  0.4757050000000  0.5065330000000  0.5738480000000 1.0
C      1  0.4992870000000  0.3889260000000  0.4363070000000 1.0
C      1  0.6188250000000  0.5270980000000  0.5345880000000 1.0
C      1  0.4742770000000  0.5471570000000  0.5502780000000 1.0
C      1  0.6072440000000  0.5389260000000  0.5573190000000 1.0
C      1  0.4720850000000  0.5475690000000  0.4073020000000 1.0
C      1  0.5422350000000  0.3823400000000  0.4623710000000 1.0
C      1  0.4248970000000  0.5034960000000  0.5344790000000 1.0
C      1  0.4598660000000  0.4697350000000  0.5219050000000 1.0
C      1  0.4529280000000  0.6074310000000  0.5068170000000 1.0
C      1  0.5621590000000  0.5966700000000  0.5376070000000 1.0
C      1  0.4495650000000  0.5753190000000  0.5955800000000 1.0
C      1  0.5812770000000  0.5518700000000  0.5659120000000 1.0
C      1  0.4796010000000  0.4050260000000  0.4916950000000 1.0
C      1  0.5408950000000  0.4711200000000  0.4146860000000 1.0
C      1  0.5400630000000  0.5108160000000  0.4855050000000 1.0
C      1  0.5612490000000  0.6171360000000  0.5558290000000 1.0
C      1  0.5371440000000  0.4551870000000  0.5261960000000 1.0
C      1  0.4248590000000  0.4065820000000  0.5214190000000 1.0
C      1  0.5113620000000  0.4907590000000  0.3755610000000 1.0
C      1  0.4667810000000  0.5237700000000  0.4230500000000 1.0
C      1  0.4877050000000  0.4531480000000  0.5931300000000 1.0
C      1  0.4274380000000  0.4766770000000  0.6282090000000 1.0
C      1  0.4802350000000  0.4921760000000  0.5250890000000 1.0
C      1  0.5176750000000  0.4490490000000  0.5933080000000 1.0
C      1  0.5598080000000  0.5333790000000  0.5757700000000 1.0
C      1  0.3908270000000  0.4453480000000  0.4821150000000 1.0
C      1  0.4256600000000  0.4348350000000  0.5195500000000 1.0
C      1  0.5816130000000  0.5765500000000  0.4715030000000 1.0
C      1  0.4937070000000  0.5764520000000  0.4442790000000 1.0
C      1  0.4572060000000  0.5405000000000  0.4975250000000 1.0
C      1  0.4585540000000  0.3616350000000  0.4412990000000 1.0
C      1  0.4316130000000  0.4769610000000  0.4839290000000 1.0
C      1  0.4600270000000  0.6043070000000  0.5340510000000 1.0
C      1  0.5628980000000  0.4758470000000  0.5737580000000 1.0
C      1  0.4866840000000  0.6114170000000  0.5428340000000 1.0
C      1  0.5343910000000  0.5380330000000  0.4926480000000 1.0
C      1  0.4245990000000  0.4766340000000  0.4359360000000 1.0
C      1  0.5714350000000  0.5075320000000  0.5378060000000 1.0
C      1  0.4527690000000  0.5989000000000  0.4576790000000 1.0
C      1  0.4556110000000  0.4088250000000  0.4283180000000 1.0
C      1  0.5311270000000  0.5370770000000  0.6142910000000 1.0
C      1  0.4576190000000  0.4348030000000  0.5588810000000 1.0
C      1  0.6043040000000  0.5642450000000  0.5094660000000 1.0
C      1  0.5628290000000  0.5950840000000  0.4825550000000 1.0
C      1  0.5802620000000  0.5561870000000  0.5218810000000 1.0
C      1  0.4782690000000  0.4300890000000  0.5772230000000 1.0
C      1  0.5672240000000  0.5313700000000  0.5231970000000 1.0
C      1  0.5734170000000  0.5715910000000  0.5450950000000 1.0
C      1  0.5131140000000  0.5360190000000  0.5114710000000 1.0
C      1  0.5745670000000  0.4531300000000  0.5563920000000 1.0
C      1  0.4705310000000  0.3855170000000  0.4357270000000 1.0
C      1  0.4399350000000  0.4286340000000  0.4430600000000 1.0
C      1  0.5262320000000  0.4667290000000  0.5504700000000 1.0
C      1  0.5125070000000  0.4325190000000  0.4665000000000 1.0
C      1  0.4429440000000  0.3870800000000  0.5171610000000 1.0
C      1  0.4320470000000  0.5201350000000  0.4610530000000 1.0
C      1  0.3657850000000  0.4442990000000  0.4750350000000 1.0
C      1  0.4238650000000  0.4927900000000  0.4596020000000 1.0
C      1  0.5132120000000  0.5573120000000  0.5283510000000 1.0
C      1  0.5220900000000  0.4310190000000  0.4392800000000 1.0
C      1  0.4888330000000  0.3564830000000  0.5738490000000 1.0
C      1  0.5226560000000  0.4699500000000  0.3926950000000 1.0
C      1  0.5088930000000  0.4122980000000  0.4222600000000 1.0
C      1  0.5544420000000  0.4924820000000  0.4318520000000 1.0
C      1  0.5810530000000  0.4704020000000  0.5081430000000 1.0
C      1  0.4669060000000  0.4706940000000  0.6015590000000 1.0
C      1  0.5141950000000  0.5621700000000  0.5768760000000 1.0
C      1  0.4369030000000  0.4530670000000  0.4259090000000 1.0
C      1  0.4302330000000  0.5371760000000  0.4844000000000 1.0
C      1  0.4405490000000  0.5986280000000  0.4830900000000 1.0
C      1  0.5642290000000  0.5048170000000  0.5657760000000 1.0
C      1  0.5358110000000  0.4647640000000  0.5779500000000 1.0
C      1  0.5270420000000  0.4924970000000  0.5034230000000 1.0
C      1  0.5352190000000  0.5446670000000  0.5878650000000 1.0
C      1  0.4823140000000  0.3595770000000  0.5096240000000 1.0
C      1  0.4882360000000  0.4958200000000  0.5519190000000 1.0
C      1  0.4193870000000  0.4472170000000  0.4887400000000 1.0
C      1  0.5750850000000  0.5513710000000  0.4582970000000 1.0
C      1  0.5005460000000  0.4501180000000  0.3922200000000 1.0
C      1  0.4882340000000  0.4819580000000  0.4361350000000 1.0
C      1  0.5840060000000  0.4826610000000  0.4802060000000 1.0
C      1  0.4740500000000  0.4644880000000  0.3868990000000 1.0
C      1  0.4404210000000  0.4818820000000  0.6044320000000 1.0
C      1  0.4753450000000  0.5793930000000  0.6029140000000 1.0
C      1  0.6102250000000  0.5099640000000  0.5119280000000 1.0
C      1  0.4207960000000  0.5260780000000  0.5866770000000 1.0
C      1  0.4988780000000  0.5848060000000  0.5878260000000 1.0
C      1  0.4313950000000  0.5317340000000  0.5390370000000 1.0
C      1  0.4582940000000  0.5715850000000  0.4146740000000 1.0
C      1  0.5005250000000  0.5570280000000  0.5521480000000 1.0
C      1  0.5000840000000  0.5069130000000  0.5064210000000 1.0
C      1  0.5131700000000  0.5222560000000  0.4160430000000 1.0
C      1  0.5368310000000  0.5187110000000  0.4360430000000 1.0
C      1  0.4451830000000  0.4478070000000  0.5371930000000 1.0
C      1  0.5917340000000  0.5292570000000  0.4658580000000 1.0
C      1  0.5474820000000  0.5984060000000  0.4367720000000 1.0
C      1  0.4685410000000  0.4528330000000  0.4982360000000 1.0
C      1  0.4674280000000  0.5854230000000  0.4380100000000 1.0
C      1  0.4893320000000  0.5057330000000  0.4213370000000 1.0
C      1  0.4259440000000  0.4978250000000  0.5850210000000 1.0
C      1  0.5020080000000  0.5483650000000  0.4070680000000 1.0
C      1  0.5390950000000  0.5725670000000  0.4283610000000 1.0
C      1  0.5062190000000  0.6187030000000  0.5238340000000 1.0
C      1  0.4416250000000  0.5907120000000  0.5510160000000 1.0
C      1  0.5658840000000  0.4483690000000  0.4488960000000 1.0
C      1  0.4620810000000  0.4713460000000  0.4770190000000 1.0
C      1  0.5465730000000  0.6091410000000  0.4626730000000 1.0
C      1  0.5225860000000  0.5095390000000  0.4618280000000 1.0
C      1  0.4654360000000  0.4224430000000  0.4048150000000 1.0
END
