TITL C-599894-471-697 1095.55956468572 125000 -613.920822114591 0 0 102 (C1) n - 1
REM
REM in /home/nfs/bkarasulu/CARBON/AIRSS/Generating-Clusters/TERSOFF/Only-C1/FIRE-HFTN
REM
REM
REM
REM
REM
REM ./C.cell (11c1c37f851c82e70ff6c80c92926a4b)
REM AIRSS Version 0.9.1 bugfix July 2018 build 013d7b7c2542+ Fri, 06 Jul 2018 19:26:36 +0100
REM compiler GCC version 9.2.1 20190827 (Red Hat 9.2.1-1)
REM options -cpp -mtune=generic -march=x86-64 -g -O0 -fpre-include=/usr/include/finclude/math-vector-fortran.h
REM seed -1968517681 328792016 1102749601 -1845356343 777573867 -512098517 -1089168648 -1866288348 -560369964 873061522 -1975905552 1040817496 980332463 -2067881193 -34592190 1876139100 -156908432 -226656619 -1902091648 140040962 -761778275 -384665594 -1504905707 358658080 -13674443 31290860 1442665547 2104234397 2138803599 556067063 -1252961650 -1237490063 -1764119570
REM
CELL 1.54180   50.00000   50.00000   50.00000   90.00000   90.00000   90.00000
LATT -1
SFAC C  
C      1  0.5155480000000  0.4746710000000  0.5603120000000 1.0
C      1  0.4536370000000  0.5319660000000  0.4270270000000 1.0
C      1  0.5268980000000  0.5820770000000  0.3963250000000 1.0
C      1  0.5519270000000  0.5951380000000  0.5280000000000 1.0
C      1  0.4207400000000  0.5437520000000  0.4584580000000 1.0
C      1  0.5350970000000  0.4787540000000  0.4197180000000 1.0
C      1  0.4527110000000  0.4437890000000  0.5944280000000 1.0
C      1  0.4384030000000  0.5505700000000  0.5448960000000 1.0
C      1  0.5125450000000  0.5763670000000  0.3717460000000 1.0
C      1  0.4215500000000  0.5149070000000  0.4569950000000 1.0
C      1  0.4927960000000  0.5235680000000  0.5207740000000 1.0
C      1  0.5184990000000  0.5112790000000  0.5294880000000 1.0
C      1  0.5314900000000  0.5330650000000  0.4772520000000 1.0
C      1  0.4746440000000  0.4889380000000  0.5482000000000 1.0
C      1  0.5573220000000  0.4213170000000  0.5599730000000 1.0
C      1  0.4767350000000  0.6032760000000  0.4937010000000 1.0
C      1  0.4337850000000  0.4631510000000  0.5241740000000 1.0
C      1  0.5079500000000  0.3742040000000  0.5126660000000 1.0
C      1  0.4435940000000  0.5270860000000  0.5606880000000 1.0
C      1  0.5761790000000  0.4469960000000  0.4725640000000 1.0
C      1  0.4939420000000  0.5468220000000  0.4029080000000 1.0
C      1  0.4112570000000  0.4420220000000  0.6531260000000 1.0
C      1  0.5628610000000  0.5890030000000  0.5038950000000 1.0
C      1  0.4813650000000  0.5279170000000  0.4762920000000 1.0
C      1  0.5105530000000  0.5703860000000  0.4992060000000 1.0
C      1  0.5487590000000  0.5176270000000  0.4948660000000 1.0
C      1  0.5757070000000  0.4174840000000  0.5411260000000 1.0
C      1  0.5058770000000  0.4438180000000  0.4034900000000 1.0
C      1  0.5008540000000  0.4447220000000  0.4797150000000 1.0
C      1  0.4016910000000  0.5586010000000  0.4708890000000 1.0
C      1  0.5080580000000  0.5204350000000  0.4678620000000 1.0
C      1  0.4830250000000  0.4705070000000  0.5191540000000 1.0
C      1  0.5726350000000  0.4745930000000  0.4776050000000 1.0
C      1  0.4418570000000  0.4725600000000  0.4753110000000 1.0
C      1  0.5134500000000  0.4284970000000  0.4604670000000 1.0
C      1  0.5578930000000  0.4901450000000  0.4955590000000 1.0
C      1  0.5614980000000  0.5383150000000  0.5383730000000 1.0
C      1  0.4884940000000  0.4997770000000  0.4164840000000 1.0
C      1  0.5302430000000  0.5944130000000  0.5444840000000 1.0
C      1  0.5146900000000  0.5633980000000  0.4151450000000 1.0
C      1  0.4261850000000  0.4988100000000  0.4800160000000 1.0
C      1  0.5741660000000  0.5426680000000  0.5613690000000 1.0
C      1  0.5585580000000  0.4948080000000  0.4207560000000 1.0
C      1  0.5102750000000  0.4728940000000  0.4783790000000 1.0
C      1  0.4688130000000  0.4856670000000  0.4766690000000 1.0
C      1  0.5123270000000  0.4922650000000  0.4301240000000 1.0
C      1  0.5291790000000  0.4503060000000  0.4185210000000 1.0
C      1  0.4963360000000  0.3888680000000  0.5314400000000 1.0
C      1  0.5022740000000  0.5894480000000  0.5400450000000 1.0
C      1  0.4956070000000  0.4948490000000  0.5669610000000 1.0
C      1  0.4865540000000  0.4330710000000  0.5609210000000 1.0
C      1  0.4490510000000  0.5015630000000  0.5492490000000 1.0
C      1  0.4743500000000  0.4455540000000  0.5042220000000 1.0
C      1  0.5877580000000  0.4311680000000  0.4926020000000 1.0
C      1  0.5428760000000  0.5259470000000  0.5220010000000 1.0
C      1  0.5365790000000  0.3548270000000  0.4731160000000 1.0
C      1  0.4569200000000  0.4393820000000  0.6663070000000 1.0
C      1  0.5347140000000  0.4346870000000  0.4420860000000 1.0
C      1  0.4379590000000  0.4630660000000  0.4475110000000 1.0
C      1  0.4370830000000  0.5082810000000  0.4327600000000 1.0
C      1  0.5608850000000  0.4349980000000  0.4523260000000 1.0
C      1  0.4696060000000  0.4782520000000  0.4123890000000 1.0
C      1  0.4569490000000  0.5707470000000  0.5447500000000 1.0
C      1  0.4378860000000  0.4416950000000  0.6467590000000 1.0
C      1  0.4451420000000  0.4814150000000  0.4268030000000 1.0
C      1  0.4604670000000  0.5361500000000  0.5819120000000 1.0
C      1  0.4438370000000  0.5540310000000  0.4437090000000 1.0
C      1  0.4967920000000  0.5933120000000  0.5105750000000 1.0
C      1  0.4887340000000  0.4082030000000  0.5478930000000 1.0
C      1  0.4683110000000  0.5216660000000  0.5023160000000 1.0
C      1  0.4788310000000  0.5267850000000  0.4148780000000 1.0
C      1  0.5570830000000  0.5734020000000  0.4808100000000 1.0
C      1  0.5734570000000  0.5613220000000  0.4607710000000 1.0
C      1  0.5242380000000  0.5231250000000  0.5962240000000 1.0
C      1  0.5701090000000  0.5174520000000  0.4302230000000 1.0
C      1  0.4868980000000  0.5454990000000  0.5732290000000 1.0
C      1  0.5115020000000  0.4470680000000  0.5657640000000 1.0
C      1  0.4457360000000  0.4437090000000  0.6199670000000 1.0
C      1  0.5867100000000  0.4208990000000  0.5171420000000 1.0
C      1  0.4905140000000  0.4850270000000  0.4956840000000 1.0
C      1  0.4401180000000  0.5092280000000  0.5038110000000 1.0
C      1  0.5702740000000  0.5393160000000  0.5876120000000 1.0
C      1  0.4937610000000  0.5563030000000  0.3754860000000 1.0
C      1  0.4558550000000  0.5777240000000  0.4527340000000 1.0
C      1  0.4598730000000  0.4417570000000  0.5674720000000 1.0
C      1  0.5347380000000  0.4316070000000  0.5696020000000 1.0
C      1  0.5009890000000  0.5501540000000  0.5160060000000 1.0
C      1  0.4454290000000  0.4528460000000  0.4991190000000 1.0
C      1  0.5281910000000  0.4847420000000  0.5368900000000 1.0
C      1  0.5031940000000  0.5212540000000  0.5777190000000 1.0
C      1  0.5482710000000  0.4760130000000  0.5190600000000 1.0
C      1  0.5219250000000  0.3634130000000  0.4928940000000 1.0
C      1  0.5492500000000  0.5305600000000  0.6016690000000 1.0
C      1  0.5754180000000  0.5404140000000  0.4435380000000 1.0
C      1  0.4404120000000  0.4480470000000  0.5475750000000 1.0
C      1  0.5126390000000  0.4938520000000  0.4580890000000 1.0
C      1  0.4810310000000  0.4544860000000  0.4022980000000 1.0
C      1  0.5466460000000  0.6000000000000  0.4008150000000 1.0
C      1  0.5311350000000  0.5615240000000  0.4819600000000 1.0
C      1  0.4639390000000  0.5952380000000  0.4713880000000 1.0
C      1  0.4845220000000  0.5701830000000  0.5548820000000 1.0
C      1  0.4343800000000  0.4925360000000  0.5268590000000 1.0
END
