TITL C-599892-9790-592 4.76540936848342 125000 -1063.43806661241 0 0 171 (C1) n - 1
REM
REM in /home/nfs/bkarasulu/CARBON/AIRSS/Generating-Clusters/TERSOFF/Only-C1/FIRE-HFTN
REM
REM
REM
REM
REM
REM ./C.cell (11c1c37f851c82e70ff6c80c92926a4b)
REM AIRSS Version 0.9.1 bugfix July 2018 build 013d7b7c2542+ Fri, 06 Jul 2018 19:26:36 +0100
REM compiler GCC version 9.2.1 20190827 (Red Hat 9.2.1-1)
REM options -cpp -mtune=generic -march=x86-64 -g -O0 -fpre-include=/usr/include/finclude/math-vector-fortran.h
REM seed 1929805402 -64629623 -1944534107 -1992367349 1860408123 73469372 -522457808 1138983176 -1812129391 -650560509 830096056 2090698218 -785559674 1120838808 -1828969710 -1038789116 -53409321 44892313 1159310065 1250974997 1085615119 -207499519 1738319651 2096219037 153427938 2127737912 1767213048 813291515 1945834435 -626957962 233375283 -520482326 1262323801
REM
CELL 1.54180   50.00000   50.00000   50.00000   90.00000   90.00000   90.00000
LATT -1
SFAC C  
C      1  0.5852760000000  0.5818630000000  0.4686980000000 1.0
C      1  0.4847450000000  0.5013160000000  0.4370360000000 1.0
C      1  0.6373130000000  0.5831020000000  0.5610220000000 1.0
C      1  0.6044940000000  0.5560770000000  0.5376510000000 1.0
C      1  0.5632600000000  0.4984860000000  0.5838350000000 1.0
C      1  0.5666710000000  0.5163960000000  0.4063380000000 1.0
C      1  0.4622260000000  0.5797790000000  0.4470030000000 1.0
C      1  0.5863570000000  0.4592680000000  0.5016820000000 1.0
C      1  0.4841430000000  0.4434890000000  0.5322000000000 1.0
C      1  0.6073900000000  0.4669680000000  0.4571850000000 1.0
C      1  0.4424260000000  0.6013370000000  0.4066590000000 1.0
C      1  0.6112550000000  0.5755040000000  0.5575390000000 1.0
C      1  0.6339220000000  0.4767670000000  0.4556920000000 1.0
C      1  0.4416590000000  0.5537880000000  0.5867340000000 1.0
C      1  0.5036760000000  0.4019970000000  0.5215300000000 1.0
C      1  0.5841480000000  0.5184610000000  0.3852950000000 1.0
C      1  0.5596160000000  0.5052970000000  0.5261510000000 1.0
C      1  0.5351060000000  0.5562630000000  0.5079450000000 1.0
C      1  0.4664660000000  0.5673220000000  0.5921200000000 1.0
C      1  0.4269290000000  0.5137250000000  0.5468180000000 1.0
C      1  0.4888390000000  0.5918250000000  0.5368440000000 1.0
C      1  0.4711200000000  0.4146230000000  0.5809250000000 1.0
C      1  0.5134800000000  0.3941930000000  0.5932140000000 1.0
C      1  0.5616780000000  0.4452950000000  0.5015310000000 1.0
C      1  0.5163140000000  0.3982020000000  0.4563330000000 1.0
C      1  0.4816390000000  0.5428640000000  0.4172930000000 1.0
C      1  0.4317590000000  0.6167100000000  0.4765300000000 1.0
C      1  0.5567860000000  0.5244820000000  0.5851260000000 1.0
C      1  0.3873250000000  0.4519720000000  0.5421020000000 1.0
C      1  0.5851910000000  0.3925290000000  0.4896780000000 1.0
C      1  0.5386340000000  0.4509540000000  0.6271170000000 1.0
C      1  0.5065690000000  0.5195410000000  0.4477530000000 1.0
C      1  0.4310630000000  0.5841290000000  0.3891270000000 1.0
C      1  0.4109260000000  0.4665340000000  0.4887970000000 1.0
C      1  0.5666970000000  0.4676040000000  0.4336880000000 1.0
C      1  0.4933040000000  0.5691190000000  0.5822170000000 1.0
C      1  0.4559080000000  0.6316780000000  0.4752790000000 1.0
C      1  0.5484940000000  0.5103480000000  0.4717110000000 1.0
C      1  0.4885580000000  0.5000770000000  0.5785090000000 1.0
C      1  0.5517270000000  0.4726750000000  0.5838880000000 1.0
C      1  0.5530670000000  0.5395980000000  0.4149480000000 1.0
C      1  0.3924040000000  0.5569080000000  0.5264650000000 1.0
C      1  0.4328950000000  0.4851910000000  0.4940580000000 1.0
C      1  0.3929120000000  0.5095900000000  0.4625320000000 1.0
C      1  0.4713360000000  0.3959800000000  0.5579360000000 1.0
C      1  0.5471200000000  0.4578730000000  0.4519010000000 1.0
C      1  0.4975080000000  0.5651350000000  0.4786980000000 1.0
C      1  0.4560700000000  0.5828050000000  0.4989620000000 1.0
C      1  0.4062420000000  0.4623550000000  0.4601400000000 1.0
C      1  0.4091490000000  0.4697430000000  0.5433440000000 1.0
C      1  0.4274720000000  0.5653680000000  0.5636100000000 1.0
C      1  0.4298290000000  0.5925200000000  0.4933090000000 1.0
C      1  0.5045240000000  0.4573110000000  0.4653800000000 1.0
C      1  0.4637070000000  0.4516860000000  0.4858030000000 1.0
C      1  0.5110150000000  0.4575730000000  0.4152520000000 1.0
C      1  0.4603550000000  0.4473920000000  0.5481400000000 1.0
C      1  0.5631240000000  0.4911410000000  0.4185190000000 1.0
C      1  0.5128990000000  0.4578870000000  0.6314350000000 1.0
C      1  0.6015120000000  0.5216500000000  0.4974650000000 1.0
C      1  0.5216790000000  0.5461450000000  0.5304350000000 1.0
C      1  0.5719280000000  0.5990050000000  0.5860410000000 1.0
C      1  0.4400410000000  0.5251770000000  0.5946370000000 1.0
C      1  0.6133620000000  0.4259360000000  0.5194390000000 1.0
C      1  0.5489230000000  0.4239740000000  0.5158760000000 1.0
C      1  0.4328070000000  0.4971910000000  0.4000640000000 1.0
C      1  0.5130420000000  0.5197110000000  0.5304400000000 1.0
C      1  0.4655280000000  0.4768780000000  0.6154460000000 1.0
C      1  0.4414890000000  0.5300070000000  0.5293090000000 1.0
C      1  0.5078000000000  0.5429600000000  0.4291220000000 1.0
C      1  0.4033940000000  0.4399930000000  0.4990620000000 1.0
C      1  0.4180610000000  0.4213380000000  0.4820480000000 1.0
C      1  0.5909040000000  0.5867000000000  0.5730910000000 1.0
C      1  0.5027920000000  0.6193900000000  0.4541240000000 1.0
C      1  0.5203680000000  0.4560410000000  0.4416220000000 1.0
C      1  0.6134780000000  0.5290240000000  0.5428750000000 1.0
C      1  0.5611820000000  0.5651110000000  0.5127740000000 1.0
C      1  0.5904440000000  0.4758630000000  0.4787450000000 1.0
C      1  0.3959990000000  0.5523800000000  0.4980470000000 1.0
C      1  0.4692860000000  0.4778960000000  0.4436680000000 1.0
C      1  0.4438530000000  0.5810800000000  0.5462960000000 1.0
C      1  0.3915930000000  0.5065520000000  0.5133150000000 1.0
C      1  0.5390460000000  0.5807900000000  0.4394950000000 1.0
C      1  0.4576240000000  0.4742100000000  0.5021390000000 1.0
C      1  0.4023790000000  0.5595630000000  0.5515440000000 1.0
C      1  0.4911380000000  0.5336670000000  0.6431350000000 1.0
C      1  0.4368140000000  0.5258520000000  0.4590240000000 1.0
C      1  0.4812180000000  0.5238770000000  0.6198580000000 1.0
C      1  0.4664940000000  0.5309390000000  0.5203770000000 1.0
C      1  0.4655090000000  0.4184050000000  0.4416010000000 1.0
C      1  0.5229820000000  0.4748530000000  0.5419770000000 1.0
C      1  0.6238150000000  0.5186890000000  0.4831090000000 1.0
C      1  0.5950650000000  0.4301250000000  0.4244030000000 1.0
C      1  0.4780240000000  0.4611170000000  0.4640140000000 1.0
C      1  0.4184950000000  0.5608260000000  0.3949830000000 1.0
C      1  0.4396520000000  0.5082800000000  0.5713430000000 1.0
C      1  0.4464370000000  0.4655560000000  0.4315330000000 1.0
C      1  0.5608290000000  0.3880970000000  0.4786050000000 1.0
C      1  0.4813010000000  0.6306490000000  0.4659340000000 1.0
C      1  0.4613980000000  0.4902320000000  0.5728230000000 1.0
C      1  0.5026080000000  0.4649430000000  0.5217530000000 1.0
C      1  0.5552900000000  0.3979720000000  0.4201180000000 1.0
C      1  0.4490540000000  0.3888840000000  0.5420360000000 1.0
C      1  0.4030040000000  0.5839470000000  0.4569250000000 1.0
C      1  0.5792900000000  0.4094740000000  0.4179670000000 1.0
C      1  0.5643970000000  0.5830070000000  0.4520390000000 1.0
C      1  0.4077020000000  0.5747000000000  0.4842500000000 1.0
C      1  0.5448710000000  0.4554430000000  0.4815620000000 1.0
C      1  0.5327960000000  0.3952050000000  0.4808290000000 1.0
C      1  0.6033750000000  0.4048130000000  0.5054920000000 1.0
C      1  0.5893910000000  0.5662810000000  0.5146770000000 1.0
C      1  0.4619640000000  0.4413210000000  0.5762580000000 1.0
C      1  0.4957760000000  0.4655990000000  0.3946550000000 1.0
C      1  0.4369060000000  0.5414460000000  0.4358600000000 1.0
C      1  0.4837490000000  0.4208910000000  0.5148670000000 1.0
C      1  0.3916510000000  0.5238510000000  0.4896170000000 1.0
C      1  0.6164820000000  0.4759240000000  0.5355510000000 1.0
C      1  0.5174990000000  0.3853980000000  0.5677080000000 1.0
C      1  0.4707890000000  0.4737270000000  0.3538060000000 1.0
C      1  0.4886120000000  0.4064430000000  0.4511610000000 1.0
C      1  0.5802870000000  0.5154660000000  0.5127530000000 1.0
C      1  0.5712810000000  0.4963170000000  0.4728590000000 1.0
C      1  0.5095000000000  0.5462120000000  0.5869750000000 1.0
C      1  0.4558990000000  0.5111150000000  0.6164170000000 1.0
C      1  0.5924880000000  0.4554270000000  0.4360360000000 1.0
C      1  0.4874600000000  0.5127610000000  0.5206500000000 1.0
C      1  0.5202200000000  0.6017610000000  0.4435580000000 1.0
C      1  0.4756680000000  0.4794880000000  0.3800760000000 1.0
C      1  0.4719160000000  0.5766630000000  0.4750000000000 1.0
C      1  0.4566550000000  0.4661030000000  0.5899260000000 1.0
C      1  0.5373110000000  0.5428790000000  0.5857220000000 1.0
C      1  0.5242760000000  0.5244640000000  0.4698210000000 1.0
C      1  0.3956090000000  0.5656120000000  0.4370090000000 1.0
C      1  0.6179360000000  0.5021150000000  0.5428390000000 1.0
C      1  0.4946150000000  0.4706120000000  0.6144290000000 1.0
C      1  0.4428980000000  0.4371950000000  0.4392620000000 1.0
C      1  0.6377800000000  0.5019810000000  0.4676170000000 1.0
C      1  0.5327520000000  0.5559640000000  0.4260180000000 1.0
C      1  0.4248070000000  0.4839640000000  0.4239210000000 1.0
C      1  0.4984120000000  0.3902990000000  0.5472440000000 1.0
C      1  0.5280740000000  0.4054990000000  0.5074030000000 1.0
C      1  0.5552510000000  0.4558910000000  0.6064020000000 1.0
C      1  0.4910230000000  0.4080210000000  0.6002000000000 1.0
C      1  0.4991690000000  0.5868000000000  0.5611840000000 1.0
C      1  0.4377980000000  0.3919100000000  0.5177130000000 1.0
C      1  0.4400710000000  0.4092040000000  0.4953950000000 1.0
C      1  0.4755500000000  0.5150590000000  0.4122820000000 1.0
C      1  0.4141440000000  0.5510600000000  0.4212870000000 1.0
C      1  0.4192820000000  0.4353130000000  0.4557980000000 1.0
C      1  0.5261960000000  0.4704700000000  0.5704720000000 1.0
C      1  0.6016660000000  0.5781110000000  0.4915340000000 1.0
C      1  0.4607310000000  0.4998830000000  0.3937340000000 1.0
C      1  0.5206980000000  0.5497440000000  0.4839480000000 1.0
C      1  0.5332390000000  0.5000300000000  0.5333550000000 1.0
C      1  0.4613000000000  0.5558170000000  0.4316740000000 1.0
C      1  0.4813390000000  0.4859820000000  0.5141500000000 1.0
C      1  0.5177930000000  0.4591810000000  0.4902450000000 1.0
C      1  0.4063880000000  0.4972530000000  0.5361440000000 1.0
C      1  0.4443480000000  0.5995040000000  0.4347750000000 1.0
C      1  0.6541950000000  0.4628190000000  0.4439950000000 1.0
C      1  0.5319740000000  0.3947670000000  0.4327240000000 1.0
C      1  0.4218760000000  0.6059690000000  0.4513190000000 1.0
C      1  0.4359840000000  0.5093410000000  0.4798130000000 1.0
C      1  0.4635920000000  0.5853660000000  0.5263610000000 1.0
C      1  0.4349680000000  0.4577690000000  0.5414120000000 1.0
C      1  0.6068610000000  0.4536680000000  0.5204080000000 1.0
C      1  0.5047030000000  0.4779280000000  0.5875370000000 1.0
C      1  0.3855080000000  0.4363380000000  0.5201450000000 1.0
C      1  0.4944400000000  0.5235390000000  0.5942650000000 1.0
C      1  0.6278820000000  0.5858150000000  0.4915010000000 1.0
C      1  0.4640510000000  0.4247620000000  0.4951070000000 1.0
C      1  0.4045210000000  0.4871850000000  0.4453920000000 1.0
END
