TITL C-599897-7526-197 -0.0381950640949978 125000 -1160.62991830779 0 0 187 (C1) n - 1
REM
REM in /home/nfs/bkarasulu/CARBON/AIRSS/Generating-Clusters/TERSOFF/Only-C1/FIRE-HFTN
REM
REM
REM
REM
REM
REM ./C.cell (11c1c37f851c82e70ff6c80c92926a4b)
REM AIRSS Version 0.9.1 bugfix July 2018 build 013d7b7c2542+ Fri, 06 Jul 2018 19:26:36 +0100
REM compiler GCC version 9.2.1 20190827 (Red Hat 9.2.1-1)
REM options -cpp -mtune=generic -march=x86-64 -g -O0 -fpre-include=/usr/include/finclude/math-vector-fortran.h
REM seed 1108954194 -2010270924 -500365647 -555163019 -1795092675 714172598 1028903885 1472754795 -1552484116 2088333757 1578499266 922882342 -185234995 436408021 -1351130225 239621000 1130006817 1002205549 451804024 918215391 -677350197 -523766454 -5311040 -1003138714 431155241 -1550886902 -1792381432 -1604160283 446636510 1264816311 1874484678 1754559424 -96025674
REM
CELL 1.54180   50.00000   50.00000   50.00000   90.00000   90.00000   90.00000
LATT -1
SFAC C  
C      1  0.3687130000000  0.4707970000000  0.4968690000000 1.0
C      1  0.4797130000000  0.4340810000000  0.4908330000000 1.0
C      1  0.6093640000000  0.6086800000000  0.4316320000000 1.0
C      1  0.4261930000000  0.4726980000000  0.4730960000000 1.0
C      1  0.5420320000000  0.4411640000000  0.5895480000000 1.0
C      1  0.5259690000000  0.5167870000000  0.4793510000000 1.0
C      1  0.5854930000000  0.6027680000000  0.4207950000000 1.0
C      1  0.5351800000000  0.4645230000000  0.4083270000000 1.0
C      1  0.4454820000000  0.4548150000000  0.5286860000000 1.0
C      1  0.5420150000000  0.5410910000000  0.3857160000000 1.0
C      1  0.5971660000000  0.4305140000000  0.5161990000000 1.0
C      1  0.5682510000000  0.3881500000000  0.4615920000000 1.0
C      1  0.3944670000000  0.5615170000000  0.5722190000000 1.0
C      1  0.5572990000000  0.5555950000000  0.5639580000000 1.0
C      1  0.5082320000000  0.4348190000000  0.5352220000000 1.0
C      1  0.4321380000000  0.4760190000000  0.5218810000000 1.0
C      1  0.5613220000000  0.4369510000000  0.5682230000000 1.0
C      1  0.4625480000000  0.5800180000000  0.4343990000000 1.0
C      1  0.5399160000000  0.5949590000000  0.5358660000000 1.0
C      1  0.4943480000000  0.4218840000000  0.5773330000000 1.0
C      1  0.3897300000000  0.5186070000000  0.5498880000000 1.0
C      1  0.4921240000000  0.4574990000000  0.5040200000000 1.0
C      1  0.5169300000000  0.4274580000000  0.4515250000000 1.0
C      1  0.5121660000000  0.3785990000000  0.4474070000000 1.0
C      1  0.4703980000000  0.6084830000000  0.4379320000000 1.0
C      1  0.5233160000000  0.5529720000000  0.4476680000000 1.0
C      1  0.4673380000000  0.6235990000000  0.5138550000000 1.0
C      1  0.5435440000000  0.4878990000000  0.5842190000000 1.0
C      1  0.4738140000000  0.3714830000000  0.4798200000000 1.0
C      1  0.5634480000000  0.4746580000000  0.4881430000000 1.0
C      1  0.4998190000000  0.5049100000000  0.4817900000000 1.0
C      1  0.5741130000000  0.4118750000000  0.5086290000000 1.0
C      1  0.4365730000000  0.5410600000000  0.5469740000000 1.0
C      1  0.5160680000000  0.5329420000000  0.4311410000000 1.0
C      1  0.4098390000000  0.5412830000000  0.4084380000000 1.0
C      1  0.4267310000000  0.5005940000000  0.3887470000000 1.0
C      1  0.4212530000000  0.4726640000000  0.5737870000000 1.0
C      1  0.4466280000000  0.4814070000000  0.3908800000000 1.0
C      1  0.3819840000000  0.4226130000000  0.5063320000000 1.0
C      1  0.3940170000000  0.3996660000000  0.5128180000000 1.0
C      1  0.4002090000000  0.4515650000000  0.4336210000000 1.0
C      1  0.4860720000000  0.4646550000000  0.4513870000000 1.0
C      1  0.5193130000000  0.4244890000000  0.5901240000000 1.0
C      1  0.3927200000000  0.5137020000000  0.4932330000000 1.0
C      1  0.3735610000000  0.4949100000000  0.4824700000000 1.0
C      1  0.5562380000000  0.5118220000000  0.5916010000000 1.0
C      1  0.4404530000000  0.3923250000000  0.5343230000000 1.0
C      1  0.5676260000000  0.4919480000000  0.5313880000000 1.0
C      1  0.4121190000000  0.5787940000000  0.5603220000000 1.0
C      1  0.5646590000000  0.5334790000000  0.4009790000000 1.0
C      1  0.4832470000000  0.5509680000000  0.5236680000000 1.0
C      1  0.4952730000000  0.3648670000000  0.4629050000000 1.0
C      1  0.4454590000000  0.4287930000000  0.4510840000000 1.0
C      1  0.5860520000000  0.5176940000000  0.4868130000000 1.0
C      1  0.4323170000000  0.5049270000000  0.6136670000000 1.0
C      1  0.3738610000000  0.5147710000000  0.4357590000000 1.0
C      1  0.6137530000000  0.5182390000000  0.5400450000000 1.0
C      1  0.4139040000000  0.4471980000000  0.5775280000000 1.0
C      1  0.4493450000000  0.5833450000000  0.5245120000000 1.0
C      1  0.6035650000000  0.4461360000000  0.5390820000000 1.0
C      1  0.5783430000000  0.4667480000000  0.4647950000000 1.0
C      1  0.4146020000000  0.5653520000000  0.4215000000000 1.0
C      1  0.4864270000000  0.5047280000000  0.5074540000000 1.0
C      1  0.3992520000000  0.4975890000000  0.3973640000000 1.0
C      1  0.5239070000000  0.5249680000000  0.5334180000000 1.0
C      1  0.5132010000000  0.4812560000000  0.4139510000000 1.0
C      1  0.4368100000000  0.4936480000000  0.5677620000000 1.0
C      1  0.4864140000000  0.4745510000000  0.5502380000000 1.0
C      1  0.3725680000000  0.4926170000000  0.4534150000000 1.0
C      1  0.5446580000000  0.5382150000000  0.5205700000000 1.0
C      1  0.5730740000000  0.5237430000000  0.4623090000000 1.0
C      1  0.5121170000000  0.6292120000000  0.4577770000000 1.0
C      1  0.5863080000000  0.5412800000000  0.4438950000000 1.0
C      1  0.5332180000000  0.5624870000000  0.4729220000000 1.0
C      1  0.4497920000000  0.3784840000000  0.4670610000000 1.0
C      1  0.5391400000000  0.4691100000000  0.5038510000000 1.0
C      1  0.5472320000000  0.5117420000000  0.4604390000000 1.0
C      1  0.5167000000000  0.6106960000000  0.5283980000000 1.0
C      1  0.6215690000000  0.4699880000000  0.5352920000000 1.0
C      1  0.5313950000000  0.6146520000000  0.4690740000000 1.0
C      1  0.4730310000000  0.5622500000000  0.4572370000000 1.0
C      1  0.4306530000000  0.5290980000000  0.3921640000000 1.0
C      1  0.4882360000000  0.4689360000000  0.4214870000000 1.0
C      1  0.4884170000000  0.6263870000000  0.4458830000000 1.0
C      1  0.5170290000000  0.4601800000000  0.4893810000000 1.0
C      1  0.4158220000000  0.5264880000000  0.5993660000000 1.0
C      1  0.5806330000000  0.4405700000000  0.4537020000000 1.0
C      1  0.4928160000000  0.5584970000000  0.5481650000000 1.0
C      1  0.5372850000000  0.5765740000000  0.5580510000000 1.0
C      1  0.5007790000000  0.4949250000000  0.5652780000000 1.0
C      1  0.5525770000000  0.4450000000000  0.4142940000000 1.0
C      1  0.4752040000000  0.6039710000000  0.5814940000000 1.0
C      1  0.4716840000000  0.5277350000000  0.5127330000000 1.0
C      1  0.3862340000000  0.4485710000000  0.4970660000000 1.0
C      1  0.5645800000000  0.5928290000000  0.5206500000000 1.0
C      1  0.4865360000000  0.4423850000000  0.5552430000000 1.0
C      1  0.5361080000000  0.4665650000000  0.6011490000000 1.0
C      1  0.4585560000000  0.5371680000000  0.4588970000000 1.0
C      1  0.4814560000000  0.3777020000000  0.5526420000000 1.0
C      1  0.4795380000000  0.3853890000000  0.5039810000000 1.0
C      1  0.4580700000000  0.5082110000000  0.4565890000000 1.0
C      1  0.4860950000000  0.4644250000000  0.6234640000000 1.0
C      1  0.6058600000000  0.4776670000000  0.4631600000000 1.0
C      1  0.5720440000000  0.5799180000000  0.4170910000000 1.0
C      1  0.3803800000000  0.4678070000000  0.4416700000000 1.0
C      1  0.4673910000000  0.4421920000000  0.4642580000000 1.0
C      1  0.4605080000000  0.5553500000000  0.5985670000000 1.0
C      1  0.4973840000000  0.5200670000000  0.5829290000000 1.0
C      1  0.5471770000000  0.5371410000000  0.5842380000000 1.0
C      1  0.5383960000000  0.5897140000000  0.4752840000000 1.0
C      1  0.4347950000000  0.4775790000000  0.6224570000000 1.0
C      1  0.6121180000000  0.4928900000000  0.4399090000000 1.0
C      1  0.5151890000000  0.5090470000000  0.4188160000000 1.0
C      1  0.4582070000000  0.4359690000000  0.5452020000000 1.0
C      1  0.4248120000000  0.4411070000000  0.4361140000000 1.0
C      1  0.4662920000000  0.3811010000000  0.5289900000000 1.0
C      1  0.3899520000000  0.5202880000000  0.4134410000000 1.0
C      1  0.5649670000000  0.4284450000000  0.4335190000000 1.0
C      1  0.4751950000000  0.5301120000000  0.5986040000000 1.0
C      1  0.4352750000000  0.5701190000000  0.5461460000000 1.0
C      1  0.5404990000000  0.4811750000000  0.5321620000000 1.0
C      1  0.4820370000000  0.4934170000000  0.4617550000000 1.0
C      1  0.6012700000000  0.5550190000000  0.5122560000000 1.0
C      1  0.6273390000000  0.4827100000000  0.5090760000000 1.0
C      1  0.5821150000000  0.4541100000000  0.5580840000000 1.0
C      1  0.5544690000000  0.4023880000000  0.4410830000000 1.0
C      1  0.4288880000000  0.5966250000000  0.4858080000000 1.0
C      1  0.5543550000000  0.4155080000000  0.5508190000000 1.0
C      1  0.4450990000000  0.5333130000000  0.5032340000000 1.0
C      1  0.5951470000000  0.5406570000000  0.5375020000000 1.0
C      1  0.4664710000000  0.4693550000000  0.4039370000000 1.0
C      1  0.4948580000000  0.4095490000000  0.5004650000000 1.0
C      1  0.5829040000000  0.4833220000000  0.5539610000000 1.0
C      1  0.6152490000000  0.5421700000000  0.4449530000000 1.0
C      1  0.3993310000000  0.5202560000000  0.5216050000000 1.0
C      1  0.5485760000000  0.4114040000000  0.5229030000000 1.0
C      1  0.6247980000000  0.5122160000000  0.5122450000000 1.0
C      1  0.4112230000000  0.4542690000000  0.4853030000000 1.0
C      1  0.5781180000000  0.5083760000000  0.4020540000000 1.0
C      1  0.5193600000000  0.4156190000000  0.5171290000000 1.0
C      1  0.4939920000000  0.5622580000000  0.3921280000000 1.0
C      1  0.4855130000000  0.4796780000000  0.5209590000000 1.0
C      1  0.5969400000000  0.4243000000000  0.4707470000000 1.0
C      1  0.4409660000000  0.4144690000000  0.5524580000000 1.0
C      1  0.5951200000000  0.4931800000000  0.4167520000000 1.0
C      1  0.5185190000000  0.5401000000000  0.5825680000000 1.0
C      1  0.5177620000000  0.5527440000000  0.3837420000000 1.0
C      1  0.4338670000000  0.5431840000000  0.4772130000000 1.0
C      1  0.4325170000000  0.5509100000000  0.6039170000000 1.0
C      1  0.5733960000000  0.5521940000000  0.4209110000000 1.0
C      1  0.4791400000000  0.5744880000000  0.4823680000000 1.0
C      1  0.4699680000000  0.5812930000000  0.5945260000000 1.0
C      1  0.4815050000000  0.6185470000000  0.5600330000000 1.0
C      1  0.4162980000000  0.3874740000000  0.5211300000000 1.0
C      1  0.4895240000000  0.6197970000000  0.5327580000000 1.0
C      1  0.6112180000000  0.4389810000000  0.4914620000000 1.0
C      1  0.5264180000000  0.4023050000000  0.4439990000000 1.0
C      1  0.5667280000000  0.5434660000000  0.5399410000000 1.0
C      1  0.4603280000000  0.5132000000000  0.6152580000000 1.0
C      1  0.5812170000000  0.4023950000000  0.4819250000000 1.0
C      1  0.4419610000000  0.4012790000000  0.4556720000000 1.0
C      1  0.6090400000000  0.5315810000000  0.4962340000000 1.0
C      1  0.6292180000000  0.5662340000000  0.4472080000000 1.0
C      1  0.6278080000000  0.5925810000000  0.4427100000000 1.0
C      1  0.4437350000000  0.6068660000000  0.5084300000000 1.0
C      1  0.6101250000000  0.4924330000000  0.5520370000000 1.0
C      1  0.3966280000000  0.5324450000000  0.5758370000000 1.0
C      1  0.4739220000000  0.5697630000000  0.4084170000000 1.0
C      1  0.6199740000000  0.4666120000000  0.4862510000000 1.0
C      1  0.4316710000000  0.4983790000000  0.4637930000000 1.0
C      1  0.4864260000000  0.3949520000000  0.5726880000000 1.0
C      1  0.5756060000000  0.4966140000000  0.5035170000000 1.0
C      1  0.4210260000000  0.4221140000000  0.5707950000000 1.0
C      1  0.5355600000000  0.5418720000000  0.4930700000000 1.0
C      1  0.4589740000000  0.4646780000000  0.6251470000000 1.0
C      1  0.4321060000000  0.5767490000000  0.4401860000000 1.0
C      1  0.4271000000000  0.5728250000000  0.4691160000000 1.0
C      1  0.5127220000000  0.4533840000000  0.4617920000000 1.0
C      1  0.4444290000000  0.5188970000000  0.5623690000000 1.0
C      1  0.5288830000000  0.4876370000000  0.5591260000000 1.0
C      1  0.6272460000000  0.5166680000000  0.4431170000000 1.0
C      1  0.5123100000000  0.4680000000000  0.6174000000000 1.0
C      1  0.5128930000000  0.5632760000000  0.5663230000000 1.0
C      1  0.4723820000000  0.5725970000000  0.5098760000000 1.0
C      1  0.4138980000000  0.5201130000000  0.4733100000000 1.0
C      1  0.4256290000000  0.5314800000000  0.5229020000000 1.0
C      1  0.5862550000000  0.5793840000000  0.5104780000000 1.0
END
