TITL C-599892-9790-162 25238.4847270448 125000 -742.086205748075 0 0 121 (C1) n - 1
REM
REM in /home/nfs/bkarasulu/CARBON/AIRSS/Generating-Clusters/TERSOFF/Only-C1/FIRE-HFTN
REM
REM
REM
REM
REM
REM ./C.cell (11c1c37f851c82e70ff6c80c92926a4b)
REM AIRSS Version 0.9.1 bugfix July 2018 build 013d7b7c2542+ Fri, 06 Jul 2018 19:26:36 +0100
REM compiler GCC version 9.2.1 20190827 (Red Hat 9.2.1-1)
REM options -cpp -mtune=generic -march=x86-64 -g -O0 -fpre-include=/usr/include/finclude/math-vector-fortran.h
REM seed 4936801 -2030899859 200769372 -1692562571 170313772 -1165066525 -19923320 218805176 1601771212 378139261 1200689590 1687549923 569299334 -927614324 -258823338 1317437433 -1900839824 567120016 -1356521335 334673808 -1564018376 -1229405956 672662694 -63421774 -1227941941 -1059955445 -1707710520 559697679 768235348 -1094671488 -309027776 1794364512 1149560110
REM
CELL 1.54180   50.00000   50.00000   50.00000   90.00000   90.00000   90.00000
LATT -1
SFAC C  
C      1  0.5676590000000  0.4442750000000  0.4308640000000 1.0
C      1  0.4142990000000  0.5483310000000  0.4547780000000 1.0
C      1  0.5034080000000  0.4877250000000  0.4114020000000 1.0
C      1  0.4552940000000  0.5144820000000  0.4584560000000 1.0
C      1  0.5544260000000  0.5025670000000  0.4767750000000 1.0
C      1  0.5826050000000  0.5508730000000  0.4459920000000 1.0
C      1  0.4958820000000  0.5806710000000  0.5448880000000 1.0
C      1  0.5214000000000  0.6134600000000  0.5156590000000 1.0
C      1  0.5221060000000  0.5574580000000  0.5784650000000 1.0
C      1  0.4706210000000  0.4991170000000  0.4406330000000 1.0
C      1  0.4350380000000  0.5064960000000  0.4040200000000 1.0
C      1  0.4845690000000  0.4199220000000  0.5687700000000 1.0
C      1  0.5497160000000  0.4275170000000  0.4733790000000 1.0
C      1  0.5328450000000  0.4628910000000  0.5803520000000 1.0
C      1  0.5135250000000  0.5219800000000  0.5017310000000 1.0
C      1  0.5653590000000  0.4671480000000  0.5259900000000 1.0
C      1  0.5039600000000  0.5996160000000  0.4744630000000 1.0
C      1  0.4129700000000  0.4255230000000  0.4559300000000 1.0
C      1  0.5714810000000  0.5543430000000  0.4205830000000 1.0
C      1  0.4165000000000  0.4664150000000  0.4264180000000 1.0
C      1  0.5462370000000  0.5660240000000  0.4195790000000 1.0
C      1  0.3974350000000  0.4333010000000  0.5278740000000 1.0
C      1  0.4331530000000  0.4837710000000  0.5572580000000 1.0
C      1  0.5717040000000  0.4821900000000  0.4724360000000 1.0
C      1  0.3985480000000  0.4202430000000  0.5043730000000 1.0
C      1  0.4959450000000  0.5442890000000  0.5770690000000 1.0
C      1  0.4642660000000  0.4004650000000  0.4918260000000 1.0
C      1  0.4731420000000  0.4293150000000  0.4520600000000 1.0
C      1  0.5551360000000  0.5547420000000  0.4876550000000 1.0
C      1  0.4690330000000  0.4731090000000  0.4914680000000 1.0
C      1  0.6055840000000  0.4815790000000  0.5692690000000 1.0
C      1  0.4831490000000  0.4729690000000  0.3964810000000 1.0
C      1  0.4597760000000  0.5150410000000  0.5331890000000 1.0
C      1  0.5347310000000  0.5739760000000  0.4449620000000 1.0
C      1  0.5418970000000  0.4524010000000  0.5346670000000 1.0
C      1  0.4798950000000  0.3870810000000  0.5092650000000 1.0
C      1  0.5143120000000  0.5012400000000  0.5467090000000 1.0
C      1  0.5717240000000  0.5381110000000  0.5798330000000 1.0
C      1  0.4759790000000  0.4455840000000  0.5678840000000 1.0
C      1  0.5006420000000  0.4225700000000  0.4469140000000 1.0
C      1  0.5193340000000  0.4434710000000  0.4392030000000 1.0
C      1  0.5899260000000  0.5312140000000  0.4659000000000 1.0
C      1  0.5896410000000  0.4519310000000  0.5209410000000 1.0
C      1  0.4447280000000  0.5863060000000  0.5204920000000 1.0
C      1  0.4559930000000  0.4405440000000  0.4313510000000 1.0
C      1  0.5974910000000  0.5701480000000  0.5420780000000 1.0
C      1  0.4270420000000  0.4413160000000  0.4371400000000 1.0
C      1  0.4767860000000  0.4643850000000  0.5462500000000 1.0
C      1  0.6085480000000  0.5121140000000  0.4788920000000 1.0
C      1  0.4448290000000  0.4863440000000  0.4969550000000 1.0
C      1  0.4359780000000  0.5318510000000  0.4132610000000 1.0
C      1  0.5551940000000  0.5692970000000  0.4641850000000 1.0
C      1  0.5708920000000  0.4933430000000  0.5359180000000 1.0
C      1  0.5069810000000  0.5090040000000  0.4773980000000 1.0
C      1  0.6239750000000  0.5223360000000  0.5003570000000 1.0
C      1  0.4585380000000  0.5431680000000  0.5413120000000 1.0
C      1  0.5643830000000  0.5286170000000  0.4810080000000 1.0
C      1  0.4442360000000  0.5772290000000  0.4733650000000 1.0
C      1  0.4598070000000  0.4614420000000  0.4089700000000 1.0
C      1  0.4911650000000  0.4850870000000  0.4776360000000 1.0
C      1  0.4806380000000  0.5561950000000  0.5544970000000 1.0
C      1  0.3971460000000  0.4569210000000  0.5404470000000 1.0
C      1  0.5080890000000  0.4687630000000  0.4340800000000 1.0
C      1  0.4743110000000  0.4471500000000  0.4999670000000 1.0
C      1  0.4595650000000  0.4889610000000  0.5474710000000 1.0
C      1  0.3956000000000  0.4296000000000  0.4780300000000 1.0
C      1  0.4873410000000  0.5564190000000  0.4557670000000 1.0
C      1  0.4908720000000  0.4517730000000  0.5235850000000 1.0
C      1  0.3818170000000  0.4545370000000  0.4767960000000 1.0
C      1  0.4956290000000  0.4012290000000  0.5527860000000 1.0
C      1  0.6071570000000  0.5439520000000  0.5456220000000 1.0
C      1  0.4672360000000  0.4264430000000  0.4809940000000 1.0
C      1  0.5093410000000  0.4819250000000  0.6187820000000 1.0
C      1  0.5915400000000  0.5273110000000  0.5629170000000 1.0
C      1  0.3979000000000  0.5061550000000  0.5325890000000 1.0
C      1  0.4014690000000  0.5285150000000  0.5179950000000 1.0
C      1  0.5470420000000  0.5469360000000  0.5850010000000 1.0
C      1  0.5249780000000  0.6145300000000  0.4880890000000 1.0
C      1  0.4208950000000  0.5594700000000  0.4807400000000 1.0
C      1  0.4975040000000  0.5980230000000  0.5224840000000 1.0
C      1  0.4896770000000  0.5245320000000  0.5959390000000 1.0
C      1  0.4796650000000  0.5480890000000  0.4844290000000 1.0
C      1  0.5209480000000  0.4848580000000  0.5665060000000 1.0
C      1  0.5897740000000  0.4997010000000  0.5562590000000 1.0
C      1  0.5028270000000  0.5287090000000  0.4479310000000 1.0
C      1  0.5000270000000  0.5462780000000  0.5032470000000 1.0
C      1  0.5116130000000  0.4028540000000  0.4646250000000 1.0
C      1  0.4358640000000  0.5501540000000  0.4347990000000 1.0
C      1  0.5190130000000  0.5811630000000  0.5626830000000 1.0
C      1  0.6229690000000  0.5327690000000  0.5250500000000 1.0
C      1  0.4182190000000  0.5491640000000  0.5082610000000 1.0
C      1  0.4524170000000  0.5122030000000  0.5057650000000 1.0
C      1  0.4595990000000  0.5277290000000  0.4836360000000 1.0
C      1  0.5474910000000  0.4456400000000  0.5629830000000 1.0
C      1  0.5294560000000  0.4114070000000  0.4853740000000 1.0
C      1  0.4862930000000  0.4766780000000  0.4512710000000 1.0
C      1  0.5988040000000  0.4842190000000  0.4813390000000 1.0
C      1  0.4075600000000  0.4826180000000  0.5452010000000 1.0
C      1  0.5753470000000  0.5783020000000  0.5293990000000 1.0
C      1  0.4189920000000  0.4826660000000  0.4871910000000 1.0
C      1  0.5196880000000  0.4148050000000  0.5120270000000 1.0
C      1  0.4838870000000  0.5968000000000  0.4961240000000 1.0
C      1  0.4929590000000  0.5123800000000  0.4259960000000 1.0
C      1  0.3968900000000  0.4775710000000  0.4704760000000 1.0
C      1  0.5264920000000  0.5131030000000  0.5247530000000 1.0
C      1  0.5182810000000  0.4417960000000  0.5227530000000 1.0
C      1  0.3997620000000  0.4818790000000  0.4427920000000 1.0
C      1  0.4564720000000  0.5914130000000  0.4950220000000 1.0
C      1  0.4579450000000  0.5659880000000  0.4476410000000 1.0
C      1  0.5081070000000  0.5789290000000  0.4550210000000 1.0
C      1  0.4957020000000  0.5042060000000  0.6123730000000 1.0
C      1  0.5581020000000  0.5681110000000  0.5118180000000 1.0
C      1  0.5729560000000  0.4321570000000  0.5633830000000 1.0
C      1  0.6056260000000  0.4637290000000  0.5003880000000 1.0
C      1  0.4382210000000  0.5594710000000  0.5271950000000 1.0
C      1  0.5916110000000  0.4333180000000  0.5428730000000 1.0
C      1  0.5542190000000  0.5135290000000  0.5267440000000 1.0
C      1  0.5256580000000  0.4633890000000  0.6075610000000 1.0
C      1  0.5011480000000  0.3967940000000  0.5252740000000 1.0
C      1  0.4356560000000  0.4786030000000  0.4087870000000 1.0
C      1  0.5465740000000  0.4395240000000  0.4475470000000 1.0
END
