TITL C-599892-9790-625 0.000204545660191703 125000 -570.643290106001 0 0 95 (C1) n - 1
REM
REM in /home/nfs/bkarasulu/CARBON/AIRSS/Generating-Clusters/TERSOFF/Only-C1/FIRE-HFTN
REM
REM
REM
REM
REM
REM ./C.cell (11c1c37f851c82e70ff6c80c92926a4b)
REM AIRSS Version 0.9.1 bugfix July 2018 build 013d7b7c2542+ Fri, 06 Jul 2018 19:26:36 +0100
REM compiler GCC version 9.2.1 20190827 (Red Hat 9.2.1-1)
REM options -cpp -mtune=generic -march=x86-64 -g -O0 -fpre-include=/usr/include/finclude/math-vector-fortran.h
REM seed -505487604 -200252772 2118878877 -602839965 -342762040 1043064260 -1878760924 56474760 190782361 802052222 -1770688815 478643647 -2120264406 1217010425 -229690200 -123141719 -1443635663 -1823463025 726865987 -860979427 -974581840 1575971057 -1598000745 1693947785 -824851950 -825416368 410877908 -372637563 -1887071783 -1640952903 -503498375 -310557171 -1103655946
REM
CELL 1.54180   50.00000   50.00000   50.00000   90.00000   90.00000   90.00000
LATT -1
SFAC C  
C      1  0.5654770000000  0.4945640000000  0.4761870000000 1.0
C      1  0.4720540000000  0.4880610000000  0.4703900000000 1.0
C      1  0.4325510000000  0.4972940000000  0.5468930000000 1.0
C      1  0.4390270000000  0.4806240000000  0.4456520000000 1.0
C      1  0.4825540000000  0.4766640000000  0.5221370000000 1.0
C      1  0.5936640000000  0.4290110000000  0.4742720000000 1.0
C      1  0.4927570000000  0.4997510000000  0.5120640000000 1.0
C      1  0.4970660000000  0.5381050000000  0.5341570000000 1.0
C      1  0.5374120000000  0.5787100000000  0.5263060000000 1.0
C      1  0.5144330000000  0.5940220000000  0.5189000000000 1.0
C      1  0.6156270000000  0.4167350000000  0.4810540000000 1.0
C      1  0.4894750000000  0.5074540000000  0.4835270000000 1.0
C      1  0.5430980000000  0.4694480000000  0.4450960000000 1.0
C      1  0.4456280000000  0.5015300000000  0.4258420000000 1.0
C      1  0.4575040000000  0.5872000000000  0.5052830000000 1.0
C      1  0.5464540000000  0.5220520000000  0.4133960000000 1.0
C      1  0.5432720000000  0.4290630000000  0.4647010000000 1.0
C      1  0.5067920000000  0.5463740000000  0.4315980000000 1.0
C      1  0.4638650000000  0.4991700000000  0.6139960000000 1.0
C      1  0.4881830000000  0.5482790000000  0.5090080000000 1.0
C      1  0.4209010000000  0.5494180000000  0.4974670000000 1.0
C      1  0.5218390000000  0.5521970000000  0.4572450000000 1.0
C      1  0.4688550000000  0.4395560000000  0.4463620000000 1.0
C      1  0.5559850000000  0.4902220000000  0.5031940000000 1.0
C      1  0.4339130000000  0.5733200000000  0.4977470000000 1.0
C      1  0.4590720000000  0.5647390000000  0.5502910000000 1.0
C      1  0.5592790000000  0.5180540000000  0.4608820000000 1.0
C      1  0.5143980000000  0.5058520000000  0.4671010000000 1.0
C      1  0.4316500000000  0.5592620000000  0.5548390000000 1.0
C      1  0.4668530000000  0.5863850000000  0.5330500000000 1.0
C      1  0.4831940000000  0.4097250000000  0.4103330000000 1.0
C      1  0.4468440000000  0.5037960000000  0.5701280000000 1.0
C      1  0.4242870000000  0.5101510000000  0.4103900000000 1.0
C      1  0.4162280000000  0.5297120000000  0.5172990000000 1.0
C      1  0.4136030000000  0.5430800000000  0.5427770000000 1.0
C      1  0.4430300000000  0.4905730000000  0.5957280000000 1.0
C      1  0.4261060000000  0.4395690000000  0.4232370000000 1.0
C      1  0.5273910000000  0.4271950000000  0.4885350000000 1.0
C      1  0.4447170000000  0.4531910000000  0.4381950000000 1.0
C      1  0.4654240000000  0.4185660000000  0.5379730000000 1.0
C      1  0.4678260000000  0.4910850000000  0.6395550000000 1.0
C      1  0.5395530000000  0.5530220000000  0.5729350000000 1.0
C      1  0.4273450000000  0.4788430000000  0.5006880000000 1.0
C      1  0.5445730000000  0.5275610000000  0.5802680000000 1.0
C      1  0.5490810000000  0.5648230000000  0.5034830000000 1.0
C      1  0.4265400000000  0.4838090000000  0.4717870000000 1.0
C      1  0.5411420000000  0.5708200000000  0.5529820000000 1.0
C      1  0.5394500000000  0.4239880000000  0.5162590000000 1.0
C      1  0.4591610000000  0.5461280000000  0.4697980000000 1.0
C      1  0.5170230000000  0.4183690000000  0.5354040000000 1.0
C      1  0.5713750000000  0.5472520000000  0.5082560000000 1.0
C      1  0.5653310000000  0.5208050000000  0.4330960000000 1.0
C      1  0.5181230000000  0.5243700000000  0.4142240000000 1.0
C      1  0.5200880000000  0.4859210000000  0.4480220000000 1.0
C      1  0.4644070000000  0.4676370000000  0.5416850000000 1.0
C      1  0.4696350000000  0.5224170000000  0.5725800000000 1.0
C      1  0.5867700000000  0.5273650000000  0.5229740000000 1.0
C      1  0.5089460000000  0.4486110000000  0.4243990000000 1.0
C      1  0.5699770000000  0.4420480000000  0.4683880000000 1.0
C      1  0.4925030000000  0.5985050000000  0.5363890000000 1.0
C      1  0.5984210000000  0.4790380000000  0.5151570000000 1.0
C      1  0.5258370000000  0.5719470000000  0.4777940000000 1.0
C      1  0.5580200000000  0.4463160000000  0.5276940000000 1.0
C      1  0.4983340000000  0.4551690000000  0.5144080000000 1.0
C      1  0.5615450000000  0.5087540000000  0.5677520000000 1.0
C      1  0.5092160000000  0.4456070000000  0.5391480000000 1.0
C      1  0.4775960000000  0.5425780000000  0.5546700000000 1.0
C      1  0.4241380000000  0.5015460000000  0.5197890000000 1.0
C      1  0.5325230000000  0.4422630000000  0.4404960000000 1.0
C      1  0.4713000000000  0.5141870000000  0.4198750000000 1.0
C      1  0.4796360000000  0.5181860000000  0.5992630000000 1.0
C      1  0.4867790000000  0.4315940000000  0.4261010000000 1.0
C      1  0.4777880000000  0.5420660000000  0.4277330000000 1.0
C      1  0.5560670000000  0.4562050000000  0.5552720000000 1.0
C      1  0.4504650000000  0.4356500000000  0.4890210000000 1.0
C      1  0.4594230000000  0.5545090000000  0.4444930000000 1.0
C      1  0.4231090000000  0.4730210000000  0.6016010000000 1.0
C      1  0.4904280000000  0.4058030000000  0.5370440000000 1.0
C      1  0.4781310000000  0.5349030000000  0.4865420000000 1.0
C      1  0.5382550000000  0.5058560000000  0.5191150000000 1.0
C      1  0.4503160000000  0.4437020000000  0.5345210000000 1.0
C      1  0.5327890000000  0.5271950000000  0.4662610000000 1.0
C      1  0.4748860000000  0.4361960000000  0.4743410000000 1.0
C      1  0.5001710000000  0.4394690000000  0.4899170000000 1.0
C      1  0.5661300000000  0.4701810000000  0.4614410000000 1.0
C      1  0.5070460000000  0.5898990000000  0.4907510000000 1.0
C      1  0.5793860000000  0.5214790000000  0.5497490000000 1.0
C      1  0.5580420000000  0.4804730000000  0.5675530000000 1.0
C      1  0.5123690000000  0.5143680000000  0.5267020000000 1.0
C      1  0.5043800000000  0.4780050000000  0.4244270000000 1.0
C      1  0.6031960000000  0.5061110000000  0.5127030000000 1.0
C      1  0.5716620000000  0.4682490000000  0.5144140000000 1.0
C      1  0.4373150000000  0.4512840000000  0.5088940000000 1.0
C      1  0.4971260000000  0.5027510000000  0.4123210000000 1.0
C      1  0.4788660000000  0.5933830000000  0.4866330000000 1.0
END
