TITL C-599896-8500-1157 99298.482438987 125000 -1191.44310898565 0 0 195 (C1) n - 1
REM
REM in /home/nfs/bkarasulu/CARBON/AIRSS/Generating-Clusters/TERSOFF/Only-C1/FIRE-HFTN
REM
REM
REM
REM
REM
REM ./C.cell (11c1c37f851c82e70ff6c80c92926a4b)
REM AIRSS Version 0.9.1 bugfix July 2018 build 013d7b7c2542+ Fri, 06 Jul 2018 19:26:36 +0100
REM compiler GCC version 9.2.1 20190827 (Red Hat 9.2.1-1)
REM options -cpp -mtune=generic -march=x86-64 -g -O0 -fpre-include=/usr/include/finclude/math-vector-fortran.h
REM seed -1706563955 -1461309023 -1168591742 768787007 -1318134632 -1556992889 -1239516138 2054910290 371320372 -1699179773 1390388049 -211948510 3467731 1762583950 -257193056 1309768159 617422963 -691435284 -1179225777 722066571 681334078 -1417887510 -1341665466 -1452840438 -308222549 1430043684 -2103889179 -880090145 -1119777635 763270883 -1676939737 -555332357 -1715609391
REM
CELL 1.54180   50.00000   50.00000   50.00000   90.00000   90.00000   90.00000
LATT -1
SFAC C  
C      1  0.3706800000000  0.5280400000000  0.5241330000000 1.0
C      1  0.4411290000000  0.4804950000000  0.5042750000000 1.0
C      1  0.5255880000000  0.5436190000000  0.5963550000000 1.0
C      1  0.5699520000000  0.4391600000000  0.4093620000000 1.0
C      1  0.4865700000000  0.5761270000000  0.3978370000000 1.0
C      1  0.4888320000000  0.6189270000000  0.5132920000000 1.0
C      1  0.4781550000000  0.5559810000000  0.6195520000000 1.0
C      1  0.6255890000000  0.5147930000000  0.4751440000000 1.0
C      1  0.4487610000000  0.5835950000000  0.5861760000000 1.0
C      1  0.4769280000000  0.3935790000000  0.5081170000000 1.0
C      1  0.5824570000000  0.5073680000000  0.5069290000000 1.0
C      1  0.5273650000000  0.3997850000000  0.4501440000000 1.0
C      1  0.5430190000000  0.5012800000000  0.3786320000000 1.0
C      1  0.4574700000000  0.5214670000000  0.4191820000000 1.0
C      1  0.4479850000000  0.6038360000000  0.5428070000000 1.0
C      1  0.5392070000000  0.4593000000000  0.4558420000000 1.0
C      1  0.4159480000000  0.5518890000000  0.4134130000000 1.0
C      1  0.4710980000000  0.4802000000000  0.4497210000000 1.0
C      1  0.5510970000000  0.4842900000000  0.6026760000000 1.0
C      1  0.3788400000000  0.5073580000000  0.5390890000000 1.0
C      1  0.5470260000000  0.5743600000000  0.4466940000000 1.0
C      1  0.4463110000000  0.4180580000000  0.3820960000000 1.0
C      1  0.5991020000000  0.4989460000000  0.5741840000000 1.0
C      1  0.4641260000000  0.5742030000000  0.6058960000000 1.0
C      1  0.4642600000000  0.3949230000000  0.5525060000000 1.0
C      1  0.4612360000000  0.4344270000000  0.5897720000000 1.0
C      1  0.5877700000000  0.4524110000000  0.5743600000000 1.0
C      1  0.5181260000000  0.5171480000000  0.4354400000000 1.0
C      1  0.5014920000000  0.3741930000000  0.4070020000000 1.0
C      1  0.4808110000000  0.5158960000000  0.4037040000000 1.0
C      1  0.4047930000000  0.4649650000000  0.4669390000000 1.0
C      1  0.5395970000000  0.5887090000000  0.4706070000000 1.0
C      1  0.5695470000000  0.5453450000000  0.4025550000000 1.0
C      1  0.4786430000000  0.5066340000000  0.4903150000000 1.0
C      1  0.6064860000000  0.5775090000000  0.5407150000000 1.0
C      1  0.4121080000000  0.5471370000000  0.5769640000000 1.0
C      1  0.4833860000000  0.5475260000000  0.4573810000000 1.0
C      1  0.5853010000000  0.4077760000000  0.4407580000000 1.0
C      1  0.4029980000000  0.5653460000000  0.5274330000000 1.0
C      1  0.4215130000000  0.4620440000000  0.4449930000000 1.0
C      1  0.5072300000000  0.5948350000000  0.5639440000000 1.0
C      1  0.4584030000000  0.4214700000000  0.5636920000000 1.0
C      1  0.4449780000000  0.4959730000000  0.5705230000000 1.0
C      1  0.3906470000000  0.5429110000000  0.4816350000000 1.0
C      1  0.4676120000000  0.6163800000000  0.5295900000000 1.0
C      1  0.4990240000000  0.5521010000000  0.5060580000000 1.0
C      1  0.5986690000000  0.4772810000000  0.4682950000000 1.0
C      1  0.4284790000000  0.4775760000000  0.4217870000000 1.0
C      1  0.5054180000000  0.4480980000000  0.4188740000000 1.0
C      1  0.5820490000000  0.4449520000000  0.5236060000000 1.0
C      1  0.5701970000000  0.4144720000000  0.4851330000000 1.0
C      1  0.5418880000000  0.4941950000000  0.4850380000000 1.0
C      1  0.6290310000000  0.5058290000000  0.5285430000000 1.0
C      1  0.6083680000000  0.5019720000000  0.4550760000000 1.0
C      1  0.4894270000000  0.5052600000000  0.3776790000000 1.0
C      1  0.4324010000000  0.4247040000000  0.4493260000000 1.0
C      1  0.5108480000000  0.6180450000000  0.5752430000000 1.0
C      1  0.4962460000000  0.6063080000000  0.4333230000000 1.0
C      1  0.4149950000000  0.5657790000000  0.5549110000000 1.0
C      1  0.4301680000000  0.5761730000000  0.4871860000000 1.0
C      1  0.4035110000000  0.5006000000000  0.5465860000000 1.0
C      1  0.5150400000000  0.4763300000000  0.5173870000000 1.0
C      1  0.4684320000000  0.4852450000000  0.5051940000000 1.0
C      1  0.4662300000000  0.5088840000000  0.6205760000000 1.0
C      1  0.5377120000000  0.4373920000000  0.5956870000000 1.0
C      1  0.5391660000000  0.4126940000000  0.5796240000000 1.0
C      1  0.4874760000000  0.5291900000000  0.6216330000000 1.0
C      1  0.5291460000000  0.5580670000000  0.5081390000000 1.0
C      1  0.5630550000000  0.4846150000000  0.3909580000000 1.0
C      1  0.5502110000000  0.4014420000000  0.4985650000000 1.0
C      1  0.4667240000000  0.4549970000000  0.4444770000000 1.0
C      1  0.5354060000000  0.4654260000000  0.5878420000000 1.0
C      1  0.5686110000000  0.5875420000000  0.5083540000000 1.0
C      1  0.6318330000000  0.5129890000000  0.5020850000000 1.0
C      1  0.4881460000000  0.4274520000000  0.4065680000000 1.0
C      1  0.5006960000000  0.5016020000000  0.4201580000000 1.0
C      1  0.4362340000000  0.4606420000000  0.3990530000000 1.0
C      1  0.4996000000000  0.5201590000000  0.5064050000000 1.0
C      1  0.5343380000000  0.5273910000000  0.5515320000000 1.0
C      1  0.6050400000000  0.5610570000000  0.5615050000000 1.0
C      1  0.5578680000000  0.5104620000000  0.5576490000000 1.0
C      1  0.4087860000000  0.4162290000000  0.5255560000000 1.0
C      1  0.4712310000000  0.4324190000000  0.3837340000000 1.0
C      1  0.4709100000000  0.5353530000000  0.5403940000000 1.0
C      1  0.4947240000000  0.3901990000000  0.5515060000000 1.0
C      1  0.4224100000000  0.5335700000000  0.5983970000000 1.0
C      1  0.5687630000000  0.5545090000000  0.4476610000000 1.0
C      1  0.4602450000000  0.5720560000000  0.3934980000000 1.0
C      1  0.5719850000000  0.5811240000000  0.6145610000000 1.0
C      1  0.4375110000000  0.5288560000000  0.5044130000000 1.0
C      1  0.4623150000000  0.4605320000000  0.3838110000000 1.0
C      1  0.4848080000000  0.4771920000000  0.3836330000000 1.0
C      1  0.4872000000000  0.4724170000000  0.5210290000000 1.0
C      1  0.5215900000000  0.5002590000000  0.5028120000000 1.0
C      1  0.4196520000000  0.4175450000000  0.4769130000000 1.0
C      1  0.4368640000000  0.4751040000000  0.5878730000000 1.0
C      1  0.4046540000000  0.4906460000000  0.4795830000000 1.0
C      1  0.5155990000000  0.5245350000000  0.6146350000000 1.0
C      1  0.5671680000000  0.6070500000000  0.6175720000000 1.0
C      1  0.5552870000000  0.4227350000000  0.5557870000000 1.0
C      1  0.4626930000000  0.5411040000000  0.4394270000000 1.0
C      1  0.5395620000000  0.4637100000000  0.5288920000000 1.0
C      1  0.5455950000000  0.5777410000000  0.4958880000000 1.0
C      1  0.5617180000000  0.6775220000000  0.5845570000000 1.0
C      1  0.5149630000000  0.4788680000000  0.5706020000000 1.0
C      1  0.4830950000000  0.4206370000000  0.4699290000000 1.0
C      1  0.4561410000000  0.4363730000000  0.5127360000000 1.0
C      1  0.5433510000000  0.5390050000000  0.5244760000000 1.0
C      1  0.5855220000000  0.4256790000000  0.4631920000000 1.0
C      1  0.5881680000000  0.5463600000000  0.5783600000000 1.0
C      1  0.4105050000000  0.4676300000000  0.5926780000000 1.0
C      1  0.5273190000000  0.3820060000000  0.4062040000000 1.0
C      1  0.4348030000000  0.5654650000000  0.3995500000000 1.0
C      1  0.4613680000000  0.4392560000000  0.5411330000000 1.0
C      1  0.4257230000000  0.5029750000000  0.4947870000000 1.0
C      1  0.5088510000000  0.5385160000000  0.4503840000000 1.0
C      1  0.4767470000000  0.5018320000000  0.4635110000000 1.0
C      1  0.4149900000000  0.5839270000000  0.5094140000000 1.0
C      1  0.4282610000000  0.5898170000000  0.4627570000000 1.0
C      1  0.4691520000000  0.5074010000000  0.5760090000000 1.0
C      1  0.5596460000000  0.4553980000000  0.5070860000000 1.0
C      1  0.5120480000000  0.5053560000000  0.5551750000000 1.0
C      1  0.5645440000000  0.6328220000000  0.6118530000000 1.0
C      1  0.5919460000000  0.4534460000000  0.4539840000000 1.0
C      1  0.5151310000000  0.6224990000000  0.4470720000000 1.0
C      1  0.4732360000000  0.4193690000000  0.4961360000000 1.0
C      1  0.5917460000000  0.5879390000000  0.5212470000000 1.0
C      1  0.5122980000000  0.4074780000000  0.5671800000000 1.0
C      1  0.5096280000000  0.4337170000000  0.5550470000000 1.0
C      1  0.4123210000000  0.5293180000000  0.4311580000000 1.0
C      1  0.3993790000000  0.4392010000000  0.4787910000000 1.0
C      1  0.5789200000000  0.5590940000000  0.6014350000000 1.0
C      1  0.5064370000000  0.5863660000000  0.4153710000000 1.0
C      1  0.4204480000000  0.4174870000000  0.4234620000000 1.0
C      1  0.5914510000000  0.4853410000000  0.4944710000000 1.0
C      1  0.4759720000000  0.4806510000000  0.6171720000000 1.0
C      1  0.4782670000000  0.5607660000000  0.4840980000000 1.0
C      1  0.4519340000000  0.3902950000000  0.5240720000000 1.0
C      1  0.4590630000000  0.3637120000000  0.4284490000000 1.0
C      1  0.4777410000000  0.3818890000000  0.4204560000000 1.0
C      1  0.4749870000000  0.4097990000000  0.4251990000000 1.0
C      1  0.5673450000000  0.5281630000000  0.5138430000000 1.0
C      1  0.4333660000000  0.4543030000000  0.5101590000000 1.0
C      1  0.5012950000000  0.4743140000000  0.4087460000000 1.0
C      1  0.4314820000000  0.5072650000000  0.4233500000000 1.0
C      1  0.5551820000000  0.4845110000000  0.5455440000000 1.0
C      1  0.5430990000000  0.5061560000000  0.4377890000000 1.0
C      1  0.5655890000000  0.4130050000000  0.4207790000000 1.0
C      1  0.5594310000000  0.4554100000000  0.3881170000000 1.0
C      1  0.3867750000000  0.5468340000000  0.5106680000000 1.0
C      1  0.3990620000000  0.5347620000000  0.4566160000000 1.0
C      1  0.5017390000000  0.3881890000000  0.5224080000000 1.0
C      1  0.5100370000000  0.4204100000000  0.4592770000000 1.0
C      1  0.5177220000000  0.4442110000000  0.4452660000000 1.0
C      1  0.5799010000000  0.4365850000000  0.5517510000000 1.0
C      1  0.4106610000000  0.4435890000000  0.5238350000000 1.0
C      1  0.5177240000000  0.5093920000000  0.3713410000000 1.0
C      1  0.4975160000000  0.4577000000000  0.5629510000000 1.0
C      1  0.4481980000000  0.5536640000000  0.4913230000000 1.0
C      1  0.4462240000000  0.6004200000000  0.4458090000000 1.0
C      1  0.3863080000000  0.4592040000000  0.5974360000000 1.0
C      1  0.5342890000000  0.4377420000000  0.5418200000000 1.0
C      1  0.6192740000000  0.4985390000000  0.5532080000000 1.0
C      1  0.5413580000000  0.3978200000000  0.4248260000000 1.0
C      1  0.4775100000000  0.4616220000000  0.5447740000000 1.0
C      1  0.5276540000000  0.3918020000000  0.5105750000000 1.0
C      1  0.5802150000000  0.5362840000000  0.4278180000000 1.0
C      1  0.5860040000000  0.4586840000000  0.4256100000000 1.0
C      1  0.5234020000000  0.5492260000000  0.5688360000000 1.0
C      1  0.5223980000000  0.6117110000000  0.4723420000000 1.0
C      1  0.5279060000000  0.4979730000000  0.6177680000000 1.0
C      1  0.4738400000000  0.5992940000000  0.4498620000000 1.0
C      1  0.5839680000000  0.4775710000000  0.5875340000000 1.0
C      1  0.5835780000000  0.4870770000000  0.4139240000000 1.0
C      1  0.5056230000000  0.5681170000000  0.5560700000000 1.0
C      1  0.4625000000000  0.4256270000000  0.4481910000000 1.0
C      1  0.5332430000000  0.5758860000000  0.4203400000000 1.0
C      1  0.5807070000000  0.5203540000000  0.5707570000000 1.0
C      1  0.5045540000000  0.4793010000000  0.6230640000000 1.0
C      1  0.4268350000000  0.4313410000000  0.3992320000000 1.0
C      1  0.5483660000000  0.5624610000000  0.3999820000000 1.0
C      1  0.4876300000000  0.5590220000000  0.5351410000000 1.0
C      1  0.4304170000000  0.5076110000000  0.5493880000000 1.0
C      1  0.4994010000000  0.6080060000000  0.4898090000000 1.0
C      1  0.5474080000000  0.4800120000000  0.4389760000000 1.0
C      1  0.4914430000000  0.5147460000000  0.5365940000000 1.0
C      1  0.5489250000000  0.4658550000000  0.4821770000000 1.0
C      1  0.4398970000000  0.5196880000000  0.6142700000000 1.0
C      1  0.4813990000000  0.5901690000000  0.4764320000000 1.0
C      1  0.4446050000000  0.5268390000000  0.5328710000000 1.0
C      1  0.5928570000000  0.5098950000000  0.4311030000000 1.0
C      1  0.5630060000000  0.6563860000000  0.5997730000000 1.0
C      1  0.4267550000000  0.4011080000000  0.5089400000000 1.0
C      1  0.4589340000000  0.4614420000000  0.6010800000000 1.0
C      1  0.4362200000000  0.5854680000000  0.5607110000000 1.0
END
