TITL C-599895-9959-457 0.174992100681864 125000 -957.154945162754 0 0 156 (C1) n - 1
REM
REM in /home/nfs/bkarasulu/CARBON/AIRSS/Generating-Clusters/TERSOFF/Only-C1/FIRE-HFTN
REM
REM
REM
REM
REM
REM ./C.cell (11c1c37f851c82e70ff6c80c92926a4b)
REM AIRSS Version 0.9.1 bugfix July 2018 build 013d7b7c2542+ Fri, 06 Jul 2018 19:26:36 +0100
REM compiler GCC version 9.2.1 20190827 (Red Hat 9.2.1-1)
REM options -cpp -mtune=generic -march=x86-64 -g -O0 -fpre-include=/usr/include/finclude/math-vector-fortran.h
REM seed -80704783 1013797037 86777091 -1225521757 67658247 -49747608 -1299290160 -600554126 566060856 -1724211698 -282339330 1955995262 766834703 -1205059854 1621423714 -982026361 448540562 830324150 -1657598046 491301645 -477042381 1240524761 1015428588 441336870 -1057913307 -1924056617 -1698820548 1481995036 -1071911431 -1526393873 215918537 -1660936150 -6918589
REM
CELL 1.54180   50.00000   50.00000   50.00000   90.00000   90.00000   90.00000
LATT -1
SFAC C  
C      1  0.5268070000000  0.4732920000000  0.4081440000000 1.0
C      1  0.5882640000000  0.4916990000000  0.4185790000000 1.0
C      1  0.4327060000000  0.5024470000000  0.5078980000000 1.0
C      1  0.4854180000000  0.4872340000000  0.5182240000000 1.0
C      1  0.5663830000000  0.4819100000000  0.5211500000000 1.0
C      1  0.5105480000000  0.4552670000000  0.6107110000000 1.0
C      1  0.5348270000000  0.4294210000000  0.5614790000000 1.0
C      1  0.4712290000000  0.4398050000000  0.4651700000000 1.0
C      1  0.5386160000000  0.5863010000000  0.4419020000000 1.0
C      1  0.5519600000000  0.5447140000000  0.5598660000000 1.0
C      1  0.5225230000000  0.5140440000000  0.4399150000000 1.0
C      1  0.4338020000000  0.5666650000000  0.4993000000000 1.0
C      1  0.5322100000000  0.5867680000000  0.5626300000000 1.0
C      1  0.5916300000000  0.5013570000000  0.5577990000000 1.0
C      1  0.3946470000000  0.4320020000000  0.5205670000000 1.0
C      1  0.4917080000000  0.6833540000000  0.4365710000000 1.0
C      1  0.3993870000000  0.5257040000000  0.5515280000000 1.0
C      1  0.4434160000000  0.6025550000000  0.4623200000000 1.0
C      1  0.5494890000000  0.4569200000000  0.4171290000000 1.0
C      1  0.5301090000000  0.4533230000000  0.5451940000000 1.0
C      1  0.4782910000000  0.5305800000000  0.4551540000000 1.0
C      1  0.5894060000000  0.4690900000000  0.4634810000000 1.0
C      1  0.4487030000000  0.3849480000000  0.4824430000000 1.0
C      1  0.4886240000000  0.6115160000000  0.5418490000000 1.0
C      1  0.4682970000000  0.4500780000000  0.5848610000000 1.0
C      1  0.5467490000000  0.4420750000000  0.4422210000000 1.0
C      1  0.4583360000000  0.5269900000000  0.4753480000000 1.0
C      1  0.6170510000000  0.5079770000000  0.4654200000000 1.0
C      1  0.6181780000000  0.5141070000000  0.5168580000000 1.0
C      1  0.6105300000000  0.4942000000000  0.6355360000000 1.0
C      1  0.5157670000000  0.4887100000000  0.4294260000000 1.0
C      1  0.4956550000000  0.4405350000000  0.5913420000000 1.0
C      1  0.4759760000000  0.5410000000000  0.4285170000000 1.0
C      1  0.5144170000000  0.5233800000000  0.6045660000000 1.0
C      1  0.4872540000000  0.4332530000000  0.4186750000000 1.0
C      1  0.4421340000000  0.5947900000000  0.5360180000000 1.0
C      1  0.6008560000000  0.4983760000000  0.5840530000000 1.0
C      1  0.4336700000000  0.3862300000000  0.4600850000000 1.0
C      1  0.5057810000000  0.4664170000000  0.3894840000000 1.0
C      1  0.4058410000000  0.5111670000000  0.5052970000000 1.0
C      1  0.4278200000000  0.4866110000000  0.4376750000000 1.0
C      1  0.4251160000000  0.4418040000000  0.5551620000000 1.0
C      1  0.3800050000000  0.4841250000000  0.4552820000000 1.0
C      1  0.4510050000000  0.4332580000000  0.5686830000000 1.0
C      1  0.4797800000000  0.6161690000000  0.5130660000000 1.0
C      1  0.4236490000000  0.4091670000000  0.4501450000000 1.0
C      1  0.4580740000000  0.4766420000000  0.3937540000000 1.0
C      1  0.5036920000000  0.5088800000000  0.5597240000000 1.0
C      1  0.5421860000000  0.4591140000000  0.4649070000000 1.0
C      1  0.5571930000000  0.3190770000000  0.4681190000000 1.0
C      1  0.3369490000000  0.5355530000000  0.5099310000000 1.0
C      1  0.4077110000000  0.5506710000000  0.5415650000000 1.0
C      1  0.5202530000000  0.5312670000000  0.4829570000000 1.0
C      1  0.4842230000000  0.4859000000000  0.3862530000000 1.0
C      1  0.4651690000000  0.5607840000000  0.5755800000000 1.0
C      1  0.3773940000000  0.4743490000000  0.5035650000000 1.0
C      1  0.5276560000000  0.5591630000000  0.4792420000000 1.0
C      1  0.4412800000000  0.4802610000000  0.4627050000000 1.0
C      1  0.6062510000000  0.4962260000000  0.6099010000000 1.0
C      1  0.5047870000000  0.5219690000000  0.4615210000000 1.0
C      1  0.4514950000000  0.4823730000000  0.5528970000000 1.0
C      1  0.4523940000000  0.6069990000000  0.5100900000000 1.0
C      1  0.4214780000000  0.4348050000000  0.4616860000000 1.0
C      1  0.5866580000000  0.5720020000000  0.5543870000000 1.0
C      1  0.4508140000000  0.5201950000000  0.5963570000000 1.0
C      1  0.4003090000000  0.4927640000000  0.4397550000000 1.0
C      1  0.3804420000000  0.4652400000000  0.4765040000000 1.0
C      1  0.4846400000000  0.6328060000000  0.4539470000000 1.0
C      1  0.5190070000000  0.5511520000000  0.5991970000000 1.0
C      1  0.3962310000000  0.4427950000000  0.4708740000000 1.0
C      1  0.5755220000000  0.4669770000000  0.4118590000000 1.0
C      1  0.5132280000000  0.5697710000000  0.5779150000000 1.0
C      1  0.4737770000000  0.5487140000000  0.5161210000000 1.0
C      1  0.5454790000000  0.4741250000000  0.5585250000000 1.0
C      1  0.5222160000000  0.4770210000000  0.6214970000000 1.0
C      1  0.5195340000000  0.5540490000000  0.5252570000000 1.0
C      1  0.5587910000000  0.5729340000000  0.5612700000000 1.0
C      1  0.3993250000000  0.4979240000000  0.5557680000000 1.0
C      1  0.4849280000000  0.4598120000000  0.5214460000000 1.0
C      1  0.5351440000000  0.5310150000000  0.3847400000000 1.0
C      1  0.4929980000000  0.5557140000000  0.5349750000000 1.0
C      1  0.5010460000000  0.4715880000000  0.4475630000000 1.0
C      1  0.4881150000000  0.6589160000000  0.4448810000000 1.0
C      1  0.4395150000000  0.4795550000000  0.4129760000000 1.0
C      1  0.4436700000000  0.5029480000000  0.5349420000000 1.0
C      1  0.5838360000000  0.5517700000000  0.4873890000000 1.0
C      1  0.5528920000000  0.4112430000000  0.5491710000000 1.0
C      1  0.4703280000000  0.4219630000000  0.5492850000000 1.0
C      1  0.4605280000000  0.6189910000000  0.4500350000000 1.0
C      1  0.4020230000000  0.4693200000000  0.5493240000000 1.0
C      1  0.4956190000000  0.4093890000000  0.5514010000000 1.0
C      1  0.4657550000000  0.4394710000000  0.5263900000000 1.0
C      1  0.5474700000000  0.5000010000000  0.5114270000000 1.0
C      1  0.4649400000000  0.5247880000000  0.4073580000000 1.0
C      1  0.4546150000000  0.5472390000000  0.4955580000000 1.0
C      1  0.3865510000000  0.4589260000000  0.5259010000000 1.0
C      1  0.5100740000000  0.4216640000000  0.5734860000000 1.0
C      1  0.6011030000000  0.5496120000000  0.5475450000000 1.0
C      1  0.5701860000000  0.4848240000000  0.5488080000000 1.0
C      1  0.3572110000000  0.5193130000000  0.5077500000000 1.0
C      1  0.4630580000000  0.4773010000000  0.5788040000000 1.0
C      1  0.5371990000000  0.5373410000000  0.5388140000000 1.0
C      1  0.4405000000000  0.5927090000000  0.4880600000000 1.0
C      1  0.5816410000000  0.5131110000000  0.4010470000000 1.0
C      1  0.5442380000000  0.5197680000000  0.4930860000000 1.0
C      1  0.5055570000000  0.6192060000000  0.4679170000000 1.0
C      1  0.5060490000000  0.4240650000000  0.5041500000000 1.0
C      1  0.5931600000000  0.4966240000000  0.4487100000000 1.0
C      1  0.5167630000000  0.4683410000000  0.4706040000000 1.0
C      1  0.4447100000000  0.4515260000000  0.4662180000000 1.0
C      1  0.4964440000000  0.5108020000000  0.5864720000000 1.0
C      1  0.5259730000000  0.5039170000000  0.6215870000000 1.0
C      1  0.6009400000000  0.4433530000000  0.4747620000000 1.0
C      1  0.6108360000000  0.5497790000000  0.4874170000000 1.0
C      1  0.4442140000000  0.4246120000000  0.5137300000000 1.0
C      1  0.5643040000000  0.4690670000000  0.4774820000000 1.0
C      1  0.4897680000000  0.5633140000000  0.5625370000000 1.0
C      1  0.5083590000000  0.5335790000000  0.3925800000000 1.0
C      1  0.5115310000000  0.4486990000000  0.5210500000000 1.0
C      1  0.4632370000000  0.6035180000000  0.5544560000000 1.0
C      1  0.5678290000000  0.5295540000000  0.4807110000000 1.0
C      1  0.5394190000000  0.5600970000000  0.4521380000000 1.0
C      1  0.5458600000000  0.4037430000000  0.5222810000000 1.0
C      1  0.4587730000000  0.4072080000000  0.4960860000000 1.0
C      1  0.5580180000000  0.3715760000000  0.4705530000000 1.0
C      1  0.3792530000000  0.5025710000000  0.5059880000000 1.0
C      1  0.5030610000000  0.6139690000000  0.4958230000000 1.0
C      1  0.4963760000000  0.4398800000000  0.3940170000000 1.0
C      1  0.4995110000000  0.5516750000000  0.4142010000000 1.0
C      1  0.4862620000000  0.5141340000000  0.3895780000000 1.0
C      1  0.6231470000000  0.4303970000000  0.4663760000000 1.0
C      1  0.4483830000000  0.5385940000000  0.5750020000000 1.0
C      1  0.4707930000000  0.5003700000000  0.5932320000000 1.0
C      1  0.4974610000000  0.5045530000000  0.5343740000000 1.0
C      1  0.4207950000000  0.4266440000000  0.5297260000000 1.0
C      1  0.5702450000000  0.5196580000000  0.4537380000000 1.0
C      1  0.5227530000000  0.5992850000000  0.5119510000000 1.0
C      1  0.5576270000000  0.3451170000000  0.4692670000000 1.0
C      1  0.4445700000000  0.5273240000000  0.5493450000000 1.0
C      1  0.5260730000000  0.6079820000000  0.4519270000000 1.0
C      1  0.5524490000000  0.4155620000000  0.4501320000000 1.0
C      1  0.5177970000000  0.6029540000000  0.5416530000000 1.0
C      1  0.5699990000000  0.4603320000000  0.5043370000000 1.0
C      1  0.5158550000000  0.4036620000000  0.5219620000000 1.0
C      1  0.5461750000000  0.5318900000000  0.4410370000000 1.0
C      1  0.4822630000000  0.4218430000000  0.4858390000000 1.0
C      1  0.4858120000000  0.4481360000000  0.4425410000000 1.0
C      1  0.5610200000000  0.5249640000000  0.3884670000000 1.0
C      1  0.5269070000000  0.5722640000000  0.5042210000000 1.0
C      1  0.5822530000000  0.4343500000000  0.4981560000000 1.0
C      1  0.5634180000000  0.4113020000000  0.4990550000000 1.0
C      1  0.6206630000000  0.5231130000000  0.4897680000000 1.0
C      1  0.5578430000000  0.3994000000000  0.4730510000000 1.0
C      1  0.4250470000000  0.5704290000000  0.5282440000000 1.0
C      1  0.4462860000000  0.5013450000000  0.4820860000000 1.0
C      1  0.6042450000000  0.5215940000000  0.5409500000000 1.0
END
