TITL C-599897-7526-554 -28965.5698180933 125000 -514.108264103247 0 0 86 (C1) n - 1
REM
REM in /home/nfs/bkarasulu/CARBON/AIRSS/Generating-Clusters/TERSOFF/Only-C1/FIRE-HFTN
REM
REM
REM
REM
REM
REM ./C.cell (11c1c37f851c82e70ff6c80c92926a4b)
REM AIRSS Version 0.9.1 bugfix July 2018 build 013d7b7c2542+ Fri, 06 Jul 2018 19:26:36 +0100
REM compiler GCC version 9.2.1 20190827 (Red Hat 9.2.1-1)
REM options -cpp -mtune=generic -march=x86-64 -g -O0 -fpre-include=/usr/include/finclude/math-vector-fortran.h
REM seed -592475237 -1145285686 576815755 1212480145 1127189737 -1103035901 -412342989 1170731470 -354914581 -669571027 845979048 858312422 -28935885 1827948189 2085725856 -1786783961 1103671094 1311824026 -345768385 -224224984 1603168238 -2092483854 -1079018746 1238661003 -2105637166 -1880601014 1291486230 1537493329 -386816675 1242680790 1733153454 177607104 -583592430
REM
CELL 1.54180   50.00000   50.00000   50.00000   90.00000   90.00000   90.00000
LATT -1
SFAC C  
C      1  0.5147090000000  0.5543590000000  0.4288140000000 1.0
C      1  0.5042560000000  0.4096390000000  0.4742090000000 1.0
C      1  0.4437670000000  0.4329910000000  0.4569610000000 1.0
C      1  0.5360410000000  0.4201540000000  0.4455110000000 1.0
C      1  0.5066790000000  0.5030330000000  0.5576840000000 1.0
C      1  0.4592950000000  0.4147250000000  0.4985120000000 1.0
C      1  0.5633560000000  0.4913110000000  0.6001130000000 1.0
C      1  0.4852780000000  0.4366400000000  0.4273110000000 1.0
C      1  0.5454370000000  0.4451090000000  0.4381440000000 1.0
C      1  0.5359480000000  0.5800390000000  0.4731930000000 1.0
C      1  0.5440590000000  0.5776660000000  0.5369810000000 1.0
C      1  0.5394800000000  0.5984840000000  0.5199840000000 1.0
C      1  0.5437630000000  0.5342310000000  0.4692330000000 1.0
C      1  0.4417290000000  0.5563110000000  0.5863010000000 1.0
C      1  0.5587580000000  0.4872770000000  0.6254540000000 1.0
C      1  0.4958810000000  0.5898440000000  0.5028110000000 1.0
C      1  0.5069780000000  0.5268200000000  0.4204540000000 1.0
C      1  0.4424380000000  0.4339830000000  0.4854850000000 1.0
C      1  0.4583390000000  0.4750240000000  0.4344070000000 1.0
C      1  0.4585960000000  0.5266060000000  0.4943360000000 1.0
C      1  0.4269580000000  0.5030000000000  0.5219000000000 1.0
C      1  0.5394420000000  0.4944750000000  0.4468440000000 1.0
C      1  0.4769910000000  0.5918970000000  0.5243440000000 1.0
C      1  0.4618200000000  0.5612240000000  0.6055360000000 1.0
C      1  0.5343340000000  0.4134620000000  0.4739340000000 1.0
C      1  0.6124790000000  0.5186350000000  0.5427110000000 1.0
C      1  0.5099820000000  0.4619950000000  0.5011530000000 1.0
C      1  0.5666690000000  0.4953030000000  0.5741330000000 1.0
C      1  0.5660250000000  0.4037230000000  0.5093390000000 1.0
C      1  0.4611140000000  0.5132940000000  0.5721870000000 1.0
C      1  0.4933030000000  0.4589420000000  0.4098100000000 1.0
C      1  0.4291850000000  0.3587930000000  0.5475800000000 1.0
C      1  0.4549890000000  0.4791320000000  0.4831500000000 1.0
C      1  0.5529460000000  0.4229290000000  0.4936570000000 1.0
C      1  0.4893730000000  0.5135410000000  0.5768030000000 1.0
C      1  0.4889100000000  0.5650680000000  0.4907220000000 1.0
C      1  0.5206710000000  0.5348250000000  0.5232790000000 1.0
C      1  0.5003120000000  0.4177070000000  0.4408190000000 1.0
C      1  0.4488440000000  0.5382330000000  0.5652500000000 1.0
C      1  0.4741450000000  0.4891780000000  0.4998840000000 1.0
C      1  0.5875920000000  0.5138700000000  0.5327280000000 1.0
C      1  0.4980430000000  0.5293430000000  0.5984960000000 1.0
C      1  0.5173620000000  0.5307800000000  0.4780070000000 1.0
C      1  0.4876440000000  0.4177860000000  0.4955210000000 1.0
C      1  0.5592640000000  0.4506520000000  0.4988110000000 1.0
C      1  0.4464170000000  0.4905960000000  0.5761760000000 1.0
C      1  0.5566490000000  0.5094660000000  0.4645730000000 1.0
C      1  0.5206180000000  0.6024520000000  0.4324270000000 1.0
C      1  0.4866730000000  0.5107490000000  0.4067140000000 1.0
C      1  0.5181740000000  0.5034190000000  0.5297800000000 1.0
C      1  0.4779920000000  0.4839890000000  0.4140520000000 1.0
C      1  0.5580310000000  0.4786790000000  0.5043320000000 1.0
C      1  0.4599330000000  0.4459860000000  0.4380320000000 1.0
C      1  0.5449830000000  0.5509380000000  0.5275390000000 1.0
C      1  0.5062190000000  0.5438430000000  0.4998990000000 1.0
C      1  0.4499350000000  0.5574390000000  0.4541960000000 1.0
C      1  0.4169770000000  0.5676750000000  0.5878720000000 1.0
C      1  0.4997030000000  0.4379310000000  0.5113260000000 1.0
C      1  0.5778610000000  0.3857910000000  0.5240860000000 1.0
C      1  0.4696590000000  0.5666560000000  0.4699360000000 1.0
C      1  0.5669620000000  0.4995730000000  0.5467290000000 1.0
C      1  0.4275040000000  0.5090760000000  0.4515390000000 1.0
C      1  0.5148080000000  0.5080590000000  0.4408940000000 1.0
C      1  0.4735890000000  0.5209560000000  0.4737780000000 1.0
C      1  0.5200090000000  0.4625340000000  0.4749430000000 1.0
C      1  0.4386680000000  0.3760060000000  0.5304510000000 1.0
C      1  0.5791250000000  0.5224890000000  0.5065570000000 1.0
C      1  0.5463720000000  0.4899490000000  0.5289010000000 1.0
C      1  0.4471120000000  0.4886780000000  0.4565410000000 1.0
C      1  0.5236920000000  0.5953410000000  0.4963870000000 1.0
C      1  0.4988560000000  0.5159540000000  0.4635660000000 1.0
C      1  0.4857270000000  0.5499860000000  0.6106660000000 1.0
C      1  0.4992780000000  0.4865490000000  0.5109630000000 1.0
C      1  0.5362110000000  0.4674160000000  0.4523080000000 1.0
C      1  0.4235540000000  0.4764130000000  0.5155110000000 1.0
C      1  0.5237880000000  0.5778750000000  0.4452130000000 1.0
C      1  0.4351840000000  0.5360300000000  0.4474590000000 1.0
C      1  0.4488210000000  0.5467250000000  0.5379350000000 1.0
C      1  0.5695890000000  0.5005440000000  0.4887010000000 1.0
C      1  0.5646090000000  0.5477250000000  0.5060400000000 1.0
C      1  0.4009690000000  0.5022630000000  0.4507960000000 1.0
C      1  0.4590610000000  0.5730460000000  0.5327900000000 1.0
C      1  0.5544960000000  0.5580690000000  0.4803970000000 1.0
C      1  0.4374070000000  0.4602680000000  0.4959900000000 1.0
C      1  0.4485060000000  0.3941140000000  0.5138020000000 1.0
C      1  0.4430950000000  0.5267160000000  0.5177070000000 1.0
END
