TITL C-599892-9790-738 0.0310937141486623 125000 -900.437469846752 0 0 145 (C1) n - 1
REM
REM in /home/nfs/bkarasulu/CARBON/AIRSS/Generating-Clusters/TERSOFF/Only-C1/FIRE-HFTN
REM
REM
REM
REM
REM
REM ./C.cell (11c1c37f851c82e70ff6c80c92926a4b)
REM AIRSS Version 0.9.1 bugfix July 2018 build 013d7b7c2542+ Fri, 06 Jul 2018 19:26:36 +0100
REM compiler GCC version 9.2.1 20190827 (Red Hat 9.2.1-1)
REM options -cpp -mtune=generic -march=x86-64 -g -O0 -fpre-include=/usr/include/finclude/math-vector-fortran.h
REM seed -930144264 1575960812 -73073144 1994303696 1743495001 1722712602 1105569132 -793717789 -1991446456 1052697905 1746689509 597348226 741621973 1608419236 1204799722 1364594685 3283476 -1488900362 1419134923 794873507 -451616857 -156476037 -866586338 402219761 730852597 1696375072 -1321657080 -1455239520 1305101198 -879796890 1725835107 739722283 -1079303941
REM
CELL 1.54180   50.00000   50.00000   50.00000   90.00000   90.00000   90.00000
LATT -1
SFAC C  
C      1  0.6063320000000  0.5420870000000  0.5367460000000 1.0
C      1  0.4789260000000  0.5661040000000  0.4473710000000 1.0
C      1  0.5040070000000  0.4397450000000  0.6543310000000 1.0
C      1  0.4962680000000  0.4411210000000  0.6294830000000 1.0
C      1  0.4493710000000  0.4998670000000  0.4531590000000 1.0
C      1  0.5841130000000  0.4649300000000  0.5066390000000 1.0
C      1  0.5616110000000  0.4318610000000  0.4467360000000 1.0
C      1  0.4835870000000  0.4645930000000  0.4720740000000 1.0
C      1  0.5404180000000  0.3877110000000  0.5472730000000 1.0
C      1  0.4140560000000  0.4697250000000  0.4456770000000 1.0
C      1  0.5211160000000  0.5592210000000  0.3849230000000 1.0
C      1  0.4118460000000  0.5628480000000  0.5011960000000 1.0
C      1  0.5650830000000  0.3992260000000  0.5494910000000 1.0
C      1  0.4367550000000  0.4547890000000  0.4547080000000 1.0
C      1  0.5910080000000  0.4435690000000  0.5261520000000 1.0
C      1  0.4688840000000  0.4386720000000  0.5224780000000 1.0
C      1  0.5230200000000  0.4180810000000  0.5796620000000 1.0
C      1  0.4533220000000  0.5059420000000  0.5587230000000 1.0
C      1  0.5749920000000  0.4738540000000  0.4208420000000 1.0
C      1  0.4739840000000  0.6028550000000  0.3980570000000 1.0
C      1  0.4586170000000  0.4734120000000  0.4614650000000 1.0
C      1  0.5397360000000  0.5299920000000  0.5638170000000 1.0
C      1  0.4664820000000  0.5249310000000  0.4900140000000 1.0
C      1  0.4548960000000  0.5496450000000  0.4503040000000 1.0
C      1  0.4937580000000  0.5201690000000  0.4921460000000 1.0
C      1  0.5656590000000  0.5653970000000  0.5116830000000 1.0
C      1  0.6009120000000  0.5376020000000  0.5078850000000 1.0
C      1  0.4914360000000  0.4005290000000  0.5466100000000 1.0
C      1  0.4762020000000  0.5947570000000  0.4489300000000 1.0
C      1  0.4823230000000  0.5361670000000  0.3692970000000 1.0
C      1  0.5117070000000  0.4968480000000  0.6029500000000 1.0
C      1  0.4590320000000  0.4444110000000  0.5991890000000 1.0
C      1  0.5964190000000  0.4709450000000  0.4790130000000 1.0
C      1  0.5800660000000  0.4513440000000  0.4374730000000 1.0
C      1  0.4828960000000  0.5020630000000  0.5585890000000 1.0
C      1  0.5028350000000  0.5735990000000  0.5378020000000 1.0
C      1  0.5642230000000  0.5075040000000  0.4682570000000 1.0
C      1  0.4044190000000  0.5427950000000  0.4584340000000 1.0
C      1  0.5529290000000  0.4246210000000  0.4713970000000 1.0
C      1  0.5231420000000  0.5517650000000  0.5743120000000 1.0
C      1  0.6008130000000  0.4556690000000  0.4563430000000 1.0
C      1  0.4162140000000  0.4234570000000  0.5794530000000 1.0
C      1  0.4475090000000  0.5933120000000  0.5103200000000 1.0
C      1  0.4067000000000  0.5205860000000  0.5539260000000 1.0
C      1  0.4936330000000  0.5944380000000  0.5204550000000 1.0
C      1  0.4265360000000  0.5862330000000  0.4643790000000 1.0
C      1  0.6091780000000  0.5188750000000  0.5535510000000 1.0
C      1  0.4482700000000  0.3938840000000  0.5243070000000 1.0
C      1  0.4238990000000  0.5403420000000  0.5144010000000 1.0
C      1  0.3799610000000  0.4981910000000  0.4621540000000 1.0
C      1  0.4971900000000  0.5413310000000  0.5863770000000 1.0
C      1  0.4816190000000  0.4646340000000  0.5208460000000 1.0
C      1  0.5350420000000  0.4864950000000  0.6107180000000 1.0
C      1  0.4449850000000  0.5459580000000  0.5812940000000 1.0
C      1  0.5853210000000  0.4448850000000  0.5542520000000 1.0
C      1  0.4821150000000  0.4452540000000  0.4102290000000 1.0
C      1  0.4737590000000  0.4635310000000  0.3922500000000 1.0
C      1  0.5898830000000  0.4993220000000  0.4772620000000 1.0
C      1  0.5266690000000  0.5408390000000  0.4056090000000 1.0
C      1  0.4675720000000  0.3772390000000  0.4797040000000 1.0
C      1  0.4027970000000  0.5244610000000  0.5255730000000 1.0
C      1  0.5575080000000  0.4702680000000  0.6066630000000 1.0
C      1  0.5502980000000  0.4251700000000  0.5862110000000 1.0
C      1  0.4438800000000  0.5318020000000  0.3317140000000 1.0
C      1  0.4009500000000  0.5157990000000  0.4501590000000 1.0
C      1  0.4850790000000  0.3936240000000  0.4677290000000 1.0
C      1  0.5141230000000  0.5152030000000  0.4019180000000 1.0
C      1  0.5987430000000  0.5105300000000  0.5017160000000 1.0
C      1  0.5831630000000  0.5548210000000  0.4918730000000 1.0
C      1  0.4970010000000  0.4181150000000  0.4744320000000 1.0
C      1  0.3857360000000  0.5130570000000  0.5699130000000 1.0
C      1  0.5546750000000  0.4422570000000  0.6080140000000 1.0
C      1  0.5934080000000  0.4899560000000  0.5210750000000 1.0
C      1  0.5708740000000  0.5750150000000  0.5387140000000 1.0
C      1  0.5988020000000  0.4929200000000  0.5484760000000 1.0
C      1  0.4773500000000  0.4886320000000  0.3835550000000 1.0
C      1  0.4906300000000  0.5477390000000  0.5357390000000 1.0
C      1  0.5390390000000  0.6000090000000  0.5167070000000 1.0
C      1  0.4172060000000  0.3809590000000  0.4376330000000 1.0
C      1  0.5949430000000  0.5652150000000  0.5486290000000 1.0
C      1  0.5899140000000  0.4716260000000  0.5657350000000 1.0
C      1  0.5315180000000  0.4806970000000  0.4929260000000 1.0
C      1  0.5651860000000  0.5193960000000  0.4427030000000 1.0
C      1  0.3925380000000  0.5487010000000  0.4846450000000 1.0
C      1  0.5285650000000  0.5116060000000  0.5446030000000 1.0
C      1  0.4910390000000  0.5133260000000  0.3844890000000 1.0
C      1  0.5202740000000  0.5271330000000  0.4870030000000 1.0
C      1  0.5494890000000  0.6196580000000  0.4991210000000 1.0
C      1  0.3709380000000  0.5053970000000  0.4879340000000 1.0
C      1  0.4226260000000  0.4981220000000  0.4428730000000 1.0
C      1  0.5309040000000  0.5510780000000  0.4322240000000 1.0
C      1  0.5719670000000  0.5008410000000  0.4223490000000 1.0
C      1  0.5712350000000  0.5919660000000  0.4621480000000 1.0
C      1  0.5268150000000  0.4340730000000  0.5164600000000 1.0
C      1  0.5009420000000  0.4474510000000  0.4312730000000 1.0
C      1  0.4122110000000  0.4065590000000  0.5592600000000 1.0
C      1  0.5058070000000  0.4562880000000  0.5591080000000 1.0
C      1  0.5043800000000  0.4394960000000  0.5814060000000 1.0
C      1  0.4779640000000  0.6064960000000  0.4744180000000 1.0
C      1  0.5388350000000  0.5060560000000  0.4822020000000 1.0
C      1  0.5198030000000  0.4679820000000  0.4266460000000 1.0
C      1  0.5792840000000  0.4783850000000  0.5908840000000 1.0
C      1  0.3832440000000  0.5260410000000  0.5027880000000 1.0
C      1  0.4734400000000  0.6019140000000  0.5017260000000 1.0
C      1  0.5219260000000  0.4924330000000  0.4161940000000 1.0
C      1  0.5256380000000  0.5543950000000  0.4899480000000 1.0
C      1  0.5241060000000  0.5754000000000  0.5567940000000 1.0
C      1  0.5545400000000  0.4638340000000  0.4987190000000 1.0
C      1  0.5066210000000  0.4205360000000  0.5013230000000 1.0
C      1  0.4341170000000  0.4376790000000  0.5930290000000 1.0
C      1  0.4362280000000  0.4271100000000  0.4539120000000 1.0
C      1  0.4510150000000  0.5348270000000  0.5114530000000 1.0
C      1  0.4808480000000  0.5852140000000  0.3791790000000 1.0
C      1  0.4865950000000  0.4421040000000  0.6032550000000 1.0
C      1  0.5059950000000  0.5575000000000  0.4446220000000 1.0
C      1  0.4262560000000  0.5857230000000  0.4928530000000 1.0
C      1  0.4576120000000  0.5244640000000  0.4632740000000 1.0
C      1  0.4276600000000  0.4030900000000  0.4466160000000 1.0
C      1  0.4694530000000  0.4116160000000  0.5320780000000 1.0
C      1  0.5399970000000  0.5739200000000  0.5028410000000 1.0
C      1  0.4635580000000  0.5514310000000  0.5303400000000 1.0
C      1  0.5626490000000  0.6136850000000  0.4759570000000 1.0
C      1  0.5734530000000  0.5632020000000  0.4642820000000 1.0
C      1  0.4730060000000  0.6078400000000  0.4243310000000 1.0
C      1  0.4974150000000  0.4718620000000  0.4964710000000 1.0
C      1  0.5477740000000  0.4363380000000  0.4965090000000 1.0
C      1  0.4948550000000  0.5614080000000  0.3745020000000 1.0
C      1  0.5574060000000  0.5469910000000  0.4443880000000 1.0
C      1  0.4707760000000  0.5529190000000  0.5880450000000 1.0
C      1  0.5169650000000  0.3987720000000  0.5589800000000 1.0
C      1  0.4625320000000  0.5338510000000  0.3497980000000 1.0
C      1  0.4946700000000  0.4416970000000  0.4584020000000 1.0
C      1  0.4276760000000  0.5603400000000  0.4516040000000 1.0
C      1  0.5463270000000  0.5902230000000  0.5448870000000 1.0
C      1  0.5698740000000  0.4228150000000  0.5650270000000 1.0
C      1  0.5272710000000  0.4553780000000  0.5388630000000 1.0
C      1  0.4872480000000  0.4744330000000  0.5474790000000 1.0
C      1  0.3868690000000  0.4713320000000  0.4543500000000 1.0
C      1  0.4524890000000  0.3777180000000  0.5018080000000 1.0
C      1  0.5003410000000  0.5204580000000  0.5401720000000 1.0
C      1  0.5366100000000  0.4841560000000  0.5394550000000 1.0
C      1  0.4243710000000  0.3947400000000  0.5387100000000 1.0
C      1  0.4952760000000  0.5116520000000  0.5857830000000 1.0
C      1  0.4503320000000  0.5766350000000  0.5335970000000 1.0
C      1  0.4332710000000  0.5246700000000  0.5656910000000 1.0
END
