TITL C-599891-72-251 -0.000645563685005311 125000 -640.141943555725 0 0 105 (C1) n - 1
REM
REM in /home/nfs/bkarasulu/CARBON/AIRSS/Generating-Clusters/TERSOFF/Only-C1/FIRE-HFTN
REM
REM
REM
REM
REM
REM ./C.cell (11c1c37f851c82e70ff6c80c92926a4b)
REM AIRSS Version 0.9.1 bugfix July 2018 build 013d7b7c2542+ Fri, 06 Jul 2018 19:26:36 +0100
REM compiler GCC version 9.2.1 20190827 (Red Hat 9.2.1-1)
REM options -cpp -mtune=generic -march=x86-64 -g -O0 -fpre-include=/usr/include/finclude/math-vector-fortran.h
REM seed -1934869862 501791983 1294045569 1172262942 1413812798 1543609539 -965885770 1647383640 1515705477 326722688 2128828543 2125398008 1208984264 816529982 -1165046144 1503590064 2024661766 70105025 1168802374 -991735118 1052211331 603845892 -1987872681 1362903253 -804454183 1935647705 1917756836 701825946 854565987 122150473 -703406686 1596622562 -1723079654
REM
CELL 1.54180   50.00000   50.00000   50.00000   90.00000   90.00000   90.00000
LATT -1
SFAC C  
C      1  0.5259670000000  0.6315520000000  0.4570230000000 1.0
C      1  0.5650680000000  0.4471720000000  0.5028820000000 1.0
C      1  0.5613520000000  0.4386610000000  0.4539890000000 1.0
C      1  0.5128710000000  0.3705850000000  0.5528580000000 1.0
C      1  0.4965570000000  0.5002080000000  0.4466550000000 1.0
C      1  0.4763090000000  0.5169090000000  0.5302830000000 1.0
C      1  0.5565860000000  0.5293820000000  0.4454380000000 1.0
C      1  0.5862700000000  0.5401660000000  0.5033630000000 1.0
C      1  0.4773040000000  0.4117400000000  0.4472110000000 1.0
C      1  0.4730470000000  0.4212120000000  0.5522440000000 1.0
C      1  0.5877280000000  0.5008350000000  0.5338170000000 1.0
C      1  0.5093600000000  0.3648100000000  0.5268760000000 1.0
C      1  0.5103090000000  0.4829730000000  0.4872540000000 1.0
C      1  0.5698620000000  0.5490400000000  0.4604270000000 1.0
C      1  0.5457230000000  0.5826130000000  0.5248890000000 1.0
C      1  0.6053050000000  0.4698140000000  0.4913140000000 1.0
C      1  0.5664490000000  0.4206330000000  0.4359030000000 1.0
C      1  0.5182050000000  0.4656190000000  0.5702920000000 1.0
C      1  0.4894160000000  0.4137770000000  0.4742740000000 1.0
C      1  0.5216170000000  0.6031420000000  0.4569490000000 1.0
C      1  0.5416310000000  0.5549290000000  0.5663590000000 1.0
C      1  0.4081350000000  0.4629120000000  0.4765820000000 1.0
C      1  0.4305850000000  0.4685510000000  0.4584450000000 1.0
C      1  0.5177160000000  0.5222610000000  0.5480030000000 1.0
C      1  0.5085400000000  0.5261380000000  0.4549170000000 1.0
C      1  0.4908260000000  0.5583510000000  0.4924440000000 1.0
C      1  0.4582710000000  0.5348030000000  0.5912970000000 1.0
C      1  0.4403530000000  0.5465700000000  0.5493500000000 1.0
C      1  0.5672620000000  0.4863920000000  0.4689370000000 1.0
C      1  0.5074760000000  0.5935670000000  0.4329730000000 1.0
C      1  0.4659390000000  0.5626440000000  0.4802980000000 1.0
C      1  0.5006060000000  0.4803650000000  0.4250100000000 1.0
C      1  0.4467400000000  0.5427460000000  0.4415030000000 1.0
C      1  0.4243670000000  0.5192030000000  0.5028780000000 1.0
C      1  0.4883290000000  0.5730930000000  0.4301950000000 1.0
C      1  0.4508170000000  0.4696790000000  0.5648570000000 1.0
C      1  0.5518310000000  0.5773600000000  0.4971060000000 1.0
C      1  0.5589570000000  0.5379480000000  0.5474600000000 1.0
C      1  0.4359940000000  0.4775390000000  0.5413610000000 1.0
C      1  0.4147030000000  0.5343120000000  0.5470430000000 1.0
C      1  0.4670170000000  0.5568870000000  0.4276980000000 1.0
C      1  0.5908910000000  0.4561090000000  0.5119290000000 1.0
C      1  0.3681770000000  0.4333490000000  0.4549510000000 1.0
C      1  0.4715680000000  0.4113350000000  0.5244020000000 1.0
C      1  0.4534200000000  0.4797160000000  0.5182180000000 1.0
C      1  0.4984800000000  0.4499160000000  0.5188930000000 1.0
C      1  0.5538850000000  0.4578940000000  0.4758190000000 1.0
C      1  0.5298110000000  0.5355430000000  0.4387810000000 1.0
C      1  0.4227780000000  0.5129490000000  0.4110160000000 1.0
C      1  0.5378530000000  0.5313330000000  0.5281070000000 1.0
C      1  0.5902980000000  0.4934660000000  0.4850160000000 1.0
C      1  0.5732360000000  0.5139590000000  0.5546910000000 1.0
C      1  0.4093230000000  0.5145690000000  0.5271180000000 1.0
C      1  0.5208960000000  0.5345760000000  0.5738150000000 1.0
C      1  0.5462280000000  0.4355990000000  0.5199480000000 1.0
C      1  0.5006340000000  0.5011250000000  0.5368360000000 1.0
C      1  0.5231660000000  0.4583860000000  0.4788500000000 1.0
C      1  0.4841870000000  0.4563870000000  0.4205970000000 1.0
C      1  0.3872330000000  0.4476170000000  0.4655530000000 1.0
C      1  0.4564140000000  0.5552890000000  0.5715360000000 1.0
C      1  0.4847420000000  0.4873160000000  0.4711310000000 1.0
C      1  0.5254050000000  0.5246840000000  0.5029930000000 1.0
C      1  0.4587470000000  0.5367210000000  0.5303380000000 1.0
C      1  0.4391310000000  0.4961930000000  0.4537030000000 1.0
C      1  0.4231380000000  0.5409110000000  0.4851890000000 1.0
C      1  0.4670210000000  0.4360800000000  0.4337030000000 1.0
C      1  0.5709960000000  0.5576930000000  0.4874810000000 1.0
C      1  0.4357920000000  0.5170270000000  0.4346770000000 1.0
C      1  0.4764500000000  0.4585950000000  0.4701320000000 1.0
C      1  0.4564920000000  0.4412430000000  0.5643960000000 1.0
C      1  0.5254930000000  0.6476100000000  0.4350630000000 1.0
C      1  0.5089340000000  0.5377690000000  0.4826410000000 1.0
C      1  0.5142350000000  0.4984880000000  0.5093880000000 1.0
C      1  0.5267820000000  0.4803650000000  0.4142170000000 1.0
C      1  0.4103150000000  0.4852980000000  0.5297270000000 1.0
C      1  0.5916410000000  0.4724140000000  0.5353950000000 1.0
C      1  0.4997850000000  0.4407870000000  0.4745100000000 1.0
C      1  0.4745940000000  0.4616510000000  0.5164880000000 1.0
C      1  0.4466220000000  0.5008050000000  0.4999680000000 1.0
C      1  0.5895320000000  0.5124590000000  0.5071290000000 1.0
C      1  0.5172680000000  0.4390110000000  0.5598010000000 1.0
C      1  0.4532460000000  0.4511070000000  0.4548840000000 1.0
C      1  0.5037820000000  0.5230490000000  0.5931860000000 1.0
C      1  0.5183600000000  0.6368600000000  0.4110970000000 1.0
C      1  0.4044940000000  0.4710550000000  0.5044040000000 1.0
C      1  0.5348960000000  0.5887070000000  0.4771410000000 1.0
C      1  0.4429870000000  0.5517300000000  0.4684360000000 1.0
C      1  0.4989150000000  0.4176670000000  0.5655450000000 1.0
C      1  0.5614030000000  0.4964920000000  0.5739620000000 1.0
C      1  0.4764510000000  0.5129480000000  0.5906530000000 1.0
C      1  0.5010780000000  0.5754880000000  0.5447030000000 1.0
C      1  0.4725540000000  0.4876800000000  0.5751190000000 1.0
C      1  0.5215200000000  0.4400740000000  0.5316090000000 1.0
C      1  0.4945550000000  0.5717660000000  0.5171490000000 1.0
C      1  0.5107880000000  0.6107420000000  0.4101680000000 1.0
C      1  0.5616310000000  0.5010880000000  0.4451810000000 1.0
C      1  0.4984660000000  0.3764170000000  0.5052310000000 1.0
C      1  0.5422300000000  0.4781120000000  0.5785620000000 1.0
C      1  0.5082200000000  0.3913750000000  0.5692410000000 1.0
C      1  0.4845210000000  0.4006260000000  0.5000490000000 1.0
C      1  0.5512800000000  0.4871990000000  0.4228250000000 1.0
C      1  0.4971100000000  0.4824940000000  0.5603420000000 1.0
C      1  0.4797780000000  0.5712350000000  0.5639560000000 1.0
C      1  0.5302170000000  0.5762070000000  0.5489200000000 1.0
C      1  0.4585220000000  0.5005520000000  0.4748330000000 1.0
END
