TITL C-599891-72-1161 1.16486409694528 125000 -493.171513184424 0 0 82 (C1) n - 1
REM
REM in /home/nfs/bkarasulu/CARBON/AIRSS/Generating-Clusters/TERSOFF/Only-C1/FIRE-HFTN
REM
REM
REM
REM
REM
REM ./C.cell (11c1c37f851c82e70ff6c80c92926a4b)
REM AIRSS Version 0.9.1 bugfix July 2018 build 013d7b7c2542+ Fri, 06 Jul 2018 19:26:36 +0100
REM compiler GCC version 9.2.1 20190827 (Red Hat 9.2.1-1)
REM options -cpp -mtune=generic -march=x86-64 -g -O0 -fpre-include=/usr/include/finclude/math-vector-fortran.h
REM seed -628875547 894532673 1536857390 1353605057 969225820 -1128774397 419424209 -1498381308 1720398498 -21172838 -1531654883 -92554101 -302082490 -343872069 -1842977266 -884518220 1387476909 1904498896 -277574718 -1268582855 -1118269791 -1828291330 1295993394 1263972933 -1938125796 -1613327847 -2090505826 1347301714 1968526457 -1999020733 889009320 684786593 1417633692
REM
CELL 1.54180   50.00000   50.00000   50.00000   90.00000   90.00000   90.00000
LATT -1
SFAC C  
C      1  0.5184550000000  0.5048740000000  0.5063140000000 1.0
C      1  0.5041490000000  0.4835220000000  0.4314270000000 1.0
C      1  0.4853670000000  0.5450810000000  0.4950610000000 1.0
C      1  0.5127050000000  0.4506410000000  0.6842430000000 1.0
C      1  0.5017680000000  0.5542980000000  0.5163120000000 1.0
C      1  0.4616300000000  0.5302910000000  0.4989570000000 1.0
C      1  0.4827360000000  0.4985570000000  0.4204710000000 1.0
C      1  0.4822860000000  0.4201340000000  0.5419220000000 1.0
C      1  0.5535060000000  0.5508600000000  0.5494710000000 1.0
C      1  0.4080180000000  0.4894020000000  0.4810080000000 1.0
C      1  0.5134690000000  0.6022250000000  0.4673990000000 1.0
C      1  0.5890250000000  0.4424370000000  0.4378240000000 1.0
C      1  0.5435100000000  0.5381410000000  0.4571710000000 1.0
C      1  0.5306040000000  0.4401440000000  0.4331670000000 1.0
C      1  0.4972850000000  0.4479480000000  0.5081810000000 1.0
C      1  0.5041630000000  0.4363470000000  0.5336230000000 1.0
C      1  0.5445940000000  0.4326280000000  0.4562830000000 1.0
C      1  0.5115980000000  0.5676920000000  0.4321340000000 1.0
C      1  0.4075310000000  0.5259110000000  0.5159590000000 1.0
C      1  0.4582780000000  0.4172880000000  0.5294030000000 1.0
C      1  0.4509520000000  0.5587250000000  0.4492020000000 1.0
C      1  0.5213370000000  0.5933020000000  0.4924120000000 1.0
C      1  0.5730040000000  0.4365000000000  0.4591360000000 1.0
C      1  0.4979840000000  0.5908730000000  0.4446130000000 1.0
C      1  0.4753180000000  0.5757860000000  0.4591950000000 1.0
C      1  0.4401410000000  0.5084470000000  0.4394530000000 1.0
C      1  0.5940530000000  0.4238620000000  0.5502790000000 1.0
C      1  0.5144070000000  0.4967180000000  0.4790950000000 1.0
C      1  0.5682080000000  0.5387650000000  0.4701490000000 1.0
C      1  0.5567630000000  0.4993330000000  0.5681510000000 1.0
C      1  0.5439540000000  0.5688390000000  0.5317470000000 1.0
C      1  0.5049660000000  0.5441640000000  0.4155630000000 1.0
C      1  0.5197740000000  0.5537630000000  0.4578140000000 1.0
C      1  0.5295390000000  0.4248510000000  0.4795220000000 1.0
C      1  0.4937920000000  0.5533700000000  0.4707630000000 1.0
C      1  0.5824430000000  0.4909460000000  0.5280250000000 1.0
C      1  0.5722860000000  0.5093550000000  0.5093770000000 1.0
C      1  0.4559980000000  0.4893070000000  0.4246270000000 1.0
C      1  0.5445090000000  0.4140360000000  0.5009510000000 1.0
C      1  0.5563430000000  0.5271360000000  0.5618530000000 1.0
C      1  0.4412880000000  0.4249060000000  0.5098600000000 1.0
C      1  0.4624920000000  0.5913830000000  0.4823010000000 1.0
C      1  0.4113750000000  0.4651410000000  0.4973170000000 1.0
C      1  0.4382630000000  0.5790880000000  0.4921860000000 1.0
C      1  0.5031020000000  0.4339350000000  0.4841870000000 1.0
C      1  0.4712020000000  0.5487310000000  0.5499880000000 1.0
C      1  0.4808580000000  0.5285970000000  0.4209270000000 1.0
C      1  0.5372690000000  0.5165790000000  0.4392940000000 1.0
C      1  0.5282570000000  0.5267640000000  0.4137360000000 1.0
C      1  0.4044940000000  0.4686250000000  0.5249970000000 1.0
C      1  0.4218210000000  0.4972700000000  0.4575890000000 1.0
C      1  0.4944740000000  0.5365390000000  0.5381050000000 1.0
C      1  0.4517080000000  0.5647640000000  0.5393070000000 1.0
C      1  0.4090330000000  0.5535230000000  0.5200440000000 1.0
C      1  0.5132280000000  0.4581970000000  0.4237770000000 1.0
C      1  0.4168530000000  0.4866740000000  0.5410020000000 1.0
C      1  0.4551340000000  0.5341770000000  0.4354170000000 1.0
C      1  0.4275520000000  0.5099370000000  0.5291490000000 1.0
C      1  0.5225070000000  0.5736820000000  0.5137700000000 1.0
C      1  0.4827640000000  0.4274810000000  0.4661620000000 1.0
C      1  0.3956320000000  0.5116320000000  0.4946250000000 1.0
C      1  0.5657830000000  0.4800740000000  0.5487480000000 1.0
C      1  0.5200830000000  0.4967660000000  0.4511280000000 1.0
C      1  0.4659320000000  0.4196110000000  0.4478780000000 1.0
C      1  0.5215570000000  0.4606480000000  0.6618570000000 1.0
C      1  0.5553790000000  0.4533900000000  0.5451460000000 1.0
C      1  0.5836740000000  0.4338060000000  0.4854030000000 1.0
C      1  0.5445390000000  0.5119340000000  0.5120150000000 1.0
C      1  0.4750050000000  0.4934770000000  0.5233200000000 1.0
C      1  0.5824950000000  0.5252770000000  0.4886720000000 1.0
C      1  0.5279710000000  0.4454630000000  0.5459520000000 1.0
C      1  0.5737960000000  0.4337760000000  0.5348620000000 1.0
C      1  0.5395410000000  0.4809710000000  0.6163250000000 1.0
C      1  0.4987130000000  0.5090900000000  0.5274660000000 1.0
C      1  0.4294460000000  0.5643700000000  0.4682470000000 1.0
C      1  0.5483870000000  0.4907520000000  0.5933570000000 1.0
C      1  0.5695460000000  0.4250330000000  0.5082830000000 1.0
C      1  0.5305560000000  0.4708230000000  0.6390960000000 1.0
C      1  0.4790250000000  0.4689910000000  0.5106230000000 1.0
C      1  0.4531320000000  0.5101420000000  0.5170290000000 1.0
C      1  0.4272630000000  0.4418900000000  0.4940980000000 1.0
C      1  0.4324240000000  0.5695910000000  0.5184990000000 1.0
END
