TITL C-599890-3321-76 0.548182386487331 125000 -294.943514372476 0 0 49 (C1) n - 1
REM
REM in /home/nfs/bkarasulu/CARBON/AIRSS/Generating-Clusters/TERSOFF/Only-C1/FIRE-HFTN
REM
REM
REM
REM
REM
REM ./C.cell (11c1c37f851c82e70ff6c80c92926a4b)
REM AIRSS Version 0.9.1 bugfix July 2018 build 013d7b7c2542+ Fri, 06 Jul 2018 19:26:36 +0100
REM compiler GCC version 9.2.1 20190827 (Red Hat 9.2.1-1)
REM options -cpp -mtune=generic -march=x86-64 -g -O0 -fpre-include=/usr/include/finclude/math-vector-fortran.h
REM seed -2064164956 1949957603 -1336430900 -1643277595 -209349476 599381363 -1690296305 -233208828 -1086638142 -1897114478 1533970642 -105105077 -1613493819 1897988562 -835881065 -459572721 -667199042 -1303588896 -506422787 -416151985 -980140109 -2131207882 1213737747 2015202044 -1676783874 442575220 1327320790 -1047179970 1680268376 -2062007465 1887541771 -249286901 -28357408
REM
CELL 1.54180   50.00000   50.00000   50.00000   90.00000   90.00000   90.00000
LATT -1
SFAC C  
C      1  0.4413920000000  0.5279310000000  0.5133650000000 1.0
C      1  0.4120000000000  0.4413610000000  0.5368330000000 1.0
C      1  0.6306240000000  0.5940580000000  0.4552620000000 1.0
C      1  0.5413880000000  0.5244400000000  0.5092260000000 1.0
C      1  0.5057090000000  0.4573660000000  0.4989640000000 1.0
C      1  0.4446480000000  0.4971540000000  0.5505440000000 1.0
C      1  0.4400450000000  0.4589150000000  0.4773110000000 1.0
C      1  0.3855270000000  0.4370360000000  0.5365530000000 1.0
C      1  0.3645120000000  0.4484760000000  0.5243180000000 1.0
C      1  0.5755420000000  0.4418040000000  0.4730400000000 1.0
C      1  0.4869880000000  0.5448140000000  0.5077160000000 1.0
C      1  0.5228510000000  0.5212510000000  0.5300940000000 1.0
C      1  0.4906870000000  0.4613060000000  0.4741980000000 1.0
C      1  0.4658190000000  0.5228300000000  0.4706640000000 1.0
C      1  0.4513630000000  0.4716740000000  0.5405310000000 1.0
C      1  0.5247930000000  0.4881440000000  0.4526290000000 1.0
C      1  0.5468870000000  0.4836120000000  0.5496160000000 1.0
C      1  0.6099430000000  0.5766340000000  0.4623700000000 1.0
C      1  0.3622980000000  0.4691900000000  0.5073360000000 1.0
C      1  0.5496530000000  0.5266510000000  0.4825490000000 1.0
C      1  0.4608920000000  0.5418720000000  0.5572180000000 1.0
C      1  0.4653130000000  0.4466280000000  0.4783040000000 1.0
C      1  0.4250630000000  0.4692110000000  0.4989000000000 1.0
C      1  0.4785950000000  0.5044040000000  0.4561670000000 1.0
C      1  0.4697550000000  0.4314140000000  0.5030800000000 1.0
C      1  0.4306350000000  0.4590320000000  0.5254530000000 1.0
C      1  0.5415740000000  0.4671980000000  0.4445040000000 1.0
C      1  0.6247340000000  0.6167750000000  0.4400520000000 1.0
C      1  0.5822380000000  0.4430710000000  0.4987670000000 1.0
C      1  0.5902050000000  0.5602590000000  0.4689970000000 1.0
C      1  0.4072340000000  0.4914640000000  0.4967430000000 1.0
C      1  0.5016770000000  0.5400650000000  0.5314190000000 1.0
C      1  0.5664950000000  0.4675660000000  0.5415200000000 1.0
C      1  0.4182100000000  0.5167940000000  0.5018710000000 1.0
C      1  0.6563260000000  0.5889400000000  0.4630970000000 1.0
C      1  0.5368140000000  0.5113260000000  0.4629210000000 1.0
C      1  0.4874050000000  0.5467400000000  0.5548160000000 1.0
C      1  0.4971830000000  0.4834450000000  0.4579950000000 1.0
C      1  0.4635910000000  0.5341390000000  0.4962640000000 1.0
C      1  0.5225370000000  0.4967880000000  0.5449340000000 1.0
C      1  0.3796420000000  0.4863530000000  0.4961650000000 1.0
C      1  0.5790150000000  0.4527220000000  0.5233470000000 1.0
C      1  0.4458090000000  0.5238230000000  0.5416060000000 1.0
C      1  0.5704520000000  0.5438990000000  0.4756100000000 1.0
C      1  0.4884570000000  0.4461070000000  0.5197180000000 1.0
C      1  0.4792190000000  0.4645940000000  0.5393050000000 1.0
C      1  0.6190700000000  0.6378990000000  0.4258760000000 1.0
C      1  0.4986740000000  0.4824550000000  0.5494400000000 1.0
C      1  0.5605130000000  0.4503710000000  0.4527930000000 1.0
END
