TITL C-599895-9959-2 1.96274755992639e-05 125000 -433.800838759727 0 0 72 (C1) n - 1
REM
REM in /home/nfs/bkarasulu/CARBON/AIRSS/Generating-Clusters/TERSOFF/Only-C1/FIRE-HFTN
REM
REM
REM
REM
REM
REM ./C.cell (11c1c37f851c82e70ff6c80c92926a4b)
REM AIRSS Version 0.9.1 bugfix July 2018 build 013d7b7c2542+ Fri, 06 Jul 2018 19:26:36 +0100
REM compiler GCC version 9.2.1 20190827 (Red Hat 9.2.1-1)
REM options -cpp -mtune=generic -march=x86-64 -g -O0 -fpre-include=/usr/include/finclude/math-vector-fortran.h
REM seed 362400718 1677394416 865173802 139810087 1890964773 -444866526 -467876473 1724474354 -1640368312 1446898536 1902100673 -894017459 -1310274718 1588745926 1521710824 768025316 1430417920 -1576282222 1098152852 246020482 -353391934 1664721269 -665728729 -888215626 -2112216468 -853113212 -1815570576 -2003345440 1661917247 -1582417410 -828052280 -1693710545 -567457570
REM
CELL 1.54180   50.00000   50.00000   50.00000   90.00000   90.00000   90.00000
LATT -1
SFAC C  
C      1  0.5517100000000  0.5534950000000  0.4854020000000 1.0
C      1  0.4823290000000  0.4227380000000  0.5222570000000 1.0
C      1  0.5601880000000  0.5473870000000  0.5350900000000 1.0
C      1  0.3863120000000  0.5253790000000  0.4688850000000 1.0
C      1  0.5199390000000  0.5735760000000  0.5476290000000 1.0
C      1  0.5035490000000  0.4705930000000  0.5042080000000 1.0
C      1  0.5661040000000  0.4699070000000  0.5037350000000 1.0
C      1  0.5272740000000  0.4933010000000  0.4681930000000 1.0
C      1  0.4509200000000  0.4387830000000  0.4674460000000 1.0
C      1  0.4979240000000  0.5561510000000  0.5494990000000 1.0
C      1  0.4509620000000  0.5682550000000  0.5518890000000 1.0
C      1  0.4812800000000  0.5436800000000  0.6079190000000 1.0
C      1  0.5743460000000  0.4939260000000  0.4599250000000 1.0
C      1  0.4392660000000  0.4771460000000  0.4976460000000 1.0
C      1  0.5373200000000  0.4050820000000  0.4534010000000 1.0
C      1  0.5783840000000  0.5165650000000  0.5024510000000 1.0
C      1  0.4841640000000  0.5173180000000  0.6099930000000 1.0
C      1  0.5701030000000  0.4448710000000  0.4530270000000 1.0
C      1  0.4495720000000  0.5557040000000  0.4877920000000 1.0
C      1  0.5620130000000  0.5442990000000  0.4603470000000 1.0
C      1  0.4761600000000  0.5914890000000  0.6042580000000 1.0
C      1  0.4657360000000  0.4721440000000  0.6022500000000 1.0
C      1  0.4594190000000  0.4338950000000  0.5135310000000 1.0
C      1  0.5593440000000  0.5257180000000  0.5533060000000 1.0
C      1  0.4477890000000  0.4500400000000  0.4932970000000 1.0
C      1  0.4837700000000  0.4931500000000  0.5960530000000 1.0
C      1  0.5480080000000  0.4785460000000  0.5474080000000 1.0
C      1  0.4704090000000  0.4303590000000  0.4487940000000 1.0
C      1  0.4773650000000  0.5668000000000  0.5925830000000 1.0
C      1  0.4316430000000  0.5310880000000  0.4911650000000 1.0
C      1  0.5585640000000  0.4210450000000  0.4571020000000 1.0
C      1  0.5006200000000  0.5718190000000  0.4925330000000 1.0
C      1  0.4886160000000  0.4871680000000  0.5217830000000 1.0
C      1  0.5469120000000  0.4633240000000  0.5235100000000 1.0
C      1  0.4470370000000  0.5278330000000  0.4334550000000 1.0
C      1  0.5049890000000  0.4774670000000  0.4771710000000 1.0
C      1  0.4861490000000  0.5276890000000  0.4922840000000 1.0
C      1  0.4711360000000  0.5641510000000  0.4452920000000 1.0
C      1  0.5016980000000  0.5293070000000  0.5407260000000 1.0
C      1  0.4947370000000  0.4924970000000  0.5695970000000 1.0
C      1  0.5664170000000  0.4714170000000  0.4439730000000 1.0
C      1  0.4890120000000  0.5195030000000  0.4621280000000 1.0
C      1  0.4804880000000  0.4789700000000  0.5480650000000 1.0
C      1  0.5272870000000  0.5681250000000  0.4880460000000 1.0
C      1  0.4915810000000  0.5154550000000  0.5173710000000 1.0
C      1  0.5041350000000  0.4462150000000  0.4150350000000 1.0
C      1  0.4801350000000  0.4506530000000  0.4304420000000 1.0
C      1  0.5720390000000  0.5209440000000  0.4506930000000 1.0
C      1  0.4744630000000  0.5351490000000  0.4409690000000 1.0
C      1  0.5088350000000  0.4280270000000  0.5235020000000 1.0
C      1  0.5138050000000  0.5108970000000  0.5595870000000 1.0
C      1  0.5460590000000  0.5705440000000  0.5423320000000 1.0
C      1  0.5216650000000  0.4520500000000  0.5162370000000 1.0
C      1  0.5648140000000  0.5409040000000  0.5079050000000 1.0
C      1  0.5244160000000  0.4657180000000  0.4126100000000 1.0
C      1  0.5478470000000  0.4741940000000  0.4226650000000 1.0
C      1  0.4123400000000  0.5328220000000  0.4688830000000 1.0
C      1  0.5127530000000  0.4052620000000  0.4397460000000 1.0
C      1  0.5413660000000  0.5043310000000  0.5568060000000 1.0
C      1  0.5188570000000  0.5176300000000  0.4581100000000 1.0
C      1  0.4776130000000  0.5549540000000  0.4945680000000 1.0
C      1  0.4365190000000  0.5041490000000  0.4998080000000 1.0
C      1  0.4458560000000  0.5657440000000  0.4600400000000 1.0
C      1  0.4749510000000  0.5639000000000  0.5642800000000 1.0
C      1  0.5128300000000  0.4191080000000  0.4147840000000 1.0
C      1  0.4733320000000  0.4766140000000  0.4385920000000 1.0
C      1  0.4534360000000  0.4577660000000  0.5827550000000 1.0
C      1  0.5758450000000  0.4918340000000  0.4887940000000 1.0
C      1  0.4873970000000  0.4077840000000  0.4523760000000 1.0
C      1  0.4276680000000  0.5446080000000  0.4476950000000 1.0
C      1  0.4826760000000  0.4892400000000  0.4616890000000 1.0
C      1  0.4598030000000  0.4618030000000  0.5566820000000 1.0
END
