TITL C-599892-9790-774 1.34979112405924e-05 125000 -412.663565359968 0 0 68 (C1) n - 1
REM
REM in /home/nfs/bkarasulu/CARBON/AIRSS/Generating-Clusters/TERSOFF/Only-C1/FIRE-HFTN
REM
REM
REM
REM
REM
REM ./C.cell (11c1c37f851c82e70ff6c80c92926a4b)
REM AIRSS Version 0.9.1 bugfix July 2018 build 013d7b7c2542+ Fri, 06 Jul 2018 19:26:36 +0100
REM compiler GCC version 9.2.1 20190827 (Red Hat 9.2.1-1)
REM options -cpp -mtune=generic -march=x86-64 -g -O0 -fpre-include=/usr/include/finclude/math-vector-fortran.h
REM seed -1051503608 1865376284 1271625486 867807049 -1013601398 462292068 1434166104 -369380232 1892727158 -95584512 2083901666 -826427719 1187805487 -356093876 1049602063 -110704561 -1271178571 -1606295682 1346349363 1582430163 -1697341029 1373197855 772496467 691749825 -1669967770 611056790 1116995268 1109657116 1532147300 1666200721 1770265823 55436057 1245447904
REM
CELL 1.54180   50.00000   50.00000   50.00000   90.00000   90.00000   90.00000
LATT -1
SFAC C  
C      1  0.4681740000000  0.5505150000000  0.5648830000000 1.0
C      1  0.5245450000000  0.5170180000000  0.4836200000000 1.0
C      1  0.4536380000000  0.5730960000000  0.4624600000000 1.0
C      1  0.4801540000000  0.5702100000000  0.4623420000000 1.0
C      1  0.4972330000000  0.5669970000000  0.5331160000000 1.0
C      1  0.5213730000000  0.5837320000000  0.4863000000000 1.0
C      1  0.4032460000000  0.5323670000000  0.4997120000000 1.0
C      1  0.4358590000000  0.4765340000000  0.4585810000000 1.0
C      1  0.4475040000000  0.4561920000000  0.4747890000000 1.0
C      1  0.5287760000000  0.3665880000000  0.4674740000000 1.0
C      1  0.5291870000000  0.5441200000000  0.5826540000000 1.0
C      1  0.5226760000000  0.4883960000000  0.4843040000000 1.0
C      1  0.5896460000000  0.5095800000000  0.5520970000000 1.0
C      1  0.4115620000000  0.5534860000000  0.4857550000000 1.0
C      1  0.4382050000000  0.4679160000000  0.5243270000000 1.0
C      1  0.5335980000000  0.5882270000000  0.5598250000000 1.0
C      1  0.5035560000000  0.5633980000000  0.4762740000000 1.0
C      1  0.5257300000000  0.4762820000000  0.4165210000000 1.0
C      1  0.4291440000000  0.4683550000000  0.4322940000000 1.0
C      1  0.5697340000000  0.5444840000000  0.5265520000000 1.0
C      1  0.4668750000000  0.4381080000000  0.4314180000000 1.0
C      1  0.5042340000000  0.5371880000000  0.4923890000000 1.0
C      1  0.4171270000000  0.4853790000000  0.5177220000000 1.0
C      1  0.4641030000000  0.4357710000000  0.4603830000000 1.0
C      1  0.4922700000000  0.4395530000000  0.4180680000000 1.0
C      1  0.5640460000000  0.5417980000000  0.5005440000000 1.0
C      1  0.5153490000000  0.4324390000000  0.4347530000000 1.0
C      1  0.4292740000000  0.5677510000000  0.4718610000000 1.0
C      1  0.5128990000000  0.5242170000000  0.5943050000000 1.0
C      1  0.4533450000000  0.4556180000000  0.5035820000000 1.0
C      1  0.5413560000000  0.4746720000000  0.5037250000000 1.0
C      1  0.5969600000000  0.4900410000000  0.5352790000000 1.0
C      1  0.5547230000000  0.5375450000000  0.5726630000000 1.0
C      1  0.5110880000000  0.5487760000000  0.5191080000000 1.0
C      1  0.5198670000000  0.4667160000000  0.4659320000000 1.0
C      1  0.4889160000000  0.4957070000000  0.5361400000000 1.0
C      1  0.4740660000000  0.4886410000000  0.5895270000000 1.0
C      1  0.5236710000000  0.4400610000000  0.4796060000000 1.0
C      1  0.4440260000000  0.4498100000000  0.4191460000000 1.0
C      1  0.5671110000000  0.5015770000000  0.4714580000000 1.0
C      1  0.5330670000000  0.5952350000000  0.5078680000000 1.0
C      1  0.4598650000000  0.5323810000000  0.5463260000000 1.0
C      1  0.4424180000000  0.5028350000000  0.4648240000000 1.0
C      1  0.4771900000000  0.5244050000000  0.4988920000000 1.0
C      1  0.4978630000000  0.4707240000000  0.5379240000000 1.0
C      1  0.4914830000000  0.5657800000000  0.5608090000000 1.0
C      1  0.5379510000000  0.5969210000000  0.5344470000000 1.0
C      1  0.5680590000000  0.4818990000000  0.4938950000000 1.0
C      1  0.4732010000000  0.5169190000000  0.5265520000000 1.0
C      1  0.5723890000000  0.5318240000000  0.5516480000000 1.0
C      1  0.5259810000000  0.4596340000000  0.4396190000000 1.0
C      1  0.4780070000000  0.4232080000000  0.4824960000000 1.0
C      1  0.5027810000000  0.4637660000000  0.4027150000000 1.0
C      1  0.4053040000000  0.5081590000000  0.5106380000000 1.0
C      1  0.5477190000000  0.4941680000000  0.4212670000000 1.0
C      1  0.4779390000000  0.4391590000000  0.5070650000000 1.0
C      1  0.5641560000000  0.4977060000000  0.4430860000000 1.0
C      1  0.5523610000000  0.5247190000000  0.4816660000000 1.0
C      1  0.5173870000000  0.5685820000000  0.5732590000000 1.0
C      1  0.5255160000000  0.3921350000000  0.4634960000000 1.0
C      1  0.5897040000000  0.4798350000000  0.5115980000000 1.0
C      1  0.4589960000000  0.5180750000000  0.4788340000000 1.0
C      1  0.4939370000000  0.5054040000000  0.5959290000000 1.0
C      1  0.4568240000000  0.4748180000000  0.5743700000000 1.0
C      1  0.5268330000000  0.4484480000000  0.5070860000000 1.0
C      1  0.4453950000000  0.4663210000000  0.5516610000000 1.0
C      1  0.5014460000000  0.4488880000000  0.5207530000000 1.0
C      1  0.5213820000000  0.4191930000000  0.4597900000000 1.0
END
