TITL C-599897-7526-1105 -1286.00841140632 125000 -763.615848367515 0 0 126 (C1) n - 1
REM
REM in /home/nfs/bkarasulu/CARBON/AIRSS/Generating-Clusters/TERSOFF/Only-C1/FIRE-HFTN
REM
REM
REM
REM
REM
REM ./C.cell (11c1c37f851c82e70ff6c80c92926a4b)
REM AIRSS Version 0.9.1 bugfix July 2018 build 013d7b7c2542+ Fri, 06 Jul 2018 19:26:36 +0100
REM compiler GCC version 9.2.1 20190827 (Red Hat 9.2.1-1)
REM options -cpp -mtune=generic -march=x86-64 -g -O0 -fpre-include=/usr/include/finclude/math-vector-fortran.h
REM seed 1162514953 1025814427 802419480 2109433426 -1765796347 -488268975 -337991442 1762208694 2028356561 -479732603 2114856325 1226054866 452783110 -1965457511 -1087735057 397039615 -882753093 332342470 127332715 -1160051421 -1003518307 -494708470 -948090127 -2101529096 198729168 1726021088 -1721005763 -1082906260 -1661166909 1255694072 -1765646331 -1823479092 1902229920
REM
CELL 1.54180   50.00000   50.00000   50.00000   90.00000   90.00000   90.00000
LATT -1
SFAC C  
C      1  0.5326770000000  0.4053680000000  0.5410150000000 1.0
C      1  0.5907900000000  0.5520500000000  0.4613630000000 1.0
C      1  0.4842500000000  0.4116850000000  0.5623380000000 1.0
C      1  0.5080230000000  0.4067900000000  0.4746030000000 1.0
C      1  0.5526250000000  0.5836910000000  0.4807260000000 1.0
C      1  0.4935890000000  0.4450100000000  0.5028880000000 1.0
C      1  0.4501050000000  0.5241260000000  0.5888730000000 1.0
C      1  0.4414640000000  0.4431830000000  0.5441250000000 1.0
C      1  0.4239080000000  0.4658280000000  0.5516520000000 1.0
C      1  0.5040640000000  0.3991390000000  0.5459380000000 1.0
C      1  0.4090200000000  0.4864000000000  0.4797280000000 1.0
C      1  0.4871630000000  0.5568210000000  0.5638210000000 1.0
C      1  0.5992390000000  0.5212040000000  0.5464590000000 1.0
C      1  0.4777490000000  0.4707460000000  0.4716590000000 1.0
C      1  0.4042100000000  0.5052130000000  0.5269230000000 1.0
C      1  0.4927310000000  0.4688400000000  0.4279680000000 1.0
C      1  0.4278360000000  0.4250480000000  0.5231430000000 1.0
C      1  0.4997730000000  0.4838340000000  0.5585670000000 1.0
C      1  0.5041450000000  0.4902440000000  0.4084020000000 1.0
C      1  0.5784240000000  0.5495330000000  0.4356800000000 1.0
C      1  0.4417720000000  0.4555430000000  0.4924860000000 1.0
C      1  0.4478900000000  0.4402130000000  0.4483970000000 1.0
C      1  0.4146410000000  0.4876350000000  0.4309020000000 1.0
C      1  0.5900600000000  0.4768000000000  0.5206110000000 1.0
C      1  0.5466620000000  0.4919800000000  0.5048760000000 1.0
C      1  0.5291880000000  0.4351040000000  0.4241990000000 1.0
C      1  0.4670690000000  0.5132760000000  0.5388320000000 1.0
C      1  0.5040760000000  0.5409940000000  0.4149990000000 1.0
C      1  0.4014550000000  0.5123600000000  0.4922070000000 1.0
C      1  0.5431870000000  0.4667420000000  0.4882470000000 1.0
C      1  0.5154130000000  0.5506730000000  0.5656560000000 1.0
C      1  0.5576220000000  0.5299710000000  0.5681590000000 1.0
C      1  0.4796460000000  0.4856230000000  0.4485580000000 1.0
C      1  0.5326770000000  0.5419290000000  0.4120640000000 1.0
C      1  0.5568990000000  0.5184460000000  0.4977890000000 1.0
C      1  0.5832490000000  0.5574920000000  0.5077000000000 1.0
C      1  0.5576240000000  0.4814770000000  0.4181500000000 1.0
C      1  0.4390570000000  0.4905920000000  0.4147410000000 1.0
C      1  0.5907040000000  0.4079850000000  0.4633590000000 1.0
C      1  0.4850100000000  0.5675120000000  0.5368280000000 1.0
C      1  0.4966810000000  0.5001250000000  0.5013560000000 1.0
C      1  0.5542540000000  0.4684350000000  0.5917550000000 1.0
C      1  0.5427190000000  0.4883420000000  0.5328380000000 1.0
C      1  0.4026440000000  0.4767480000000  0.5342270000000 1.0
C      1  0.5518700000000  0.4566950000000  0.5659180000000 1.0
C      1  0.4659710000000  0.5490930000000  0.4775420000000 1.0
C      1  0.4684070000000  0.6381530000000  0.5478080000000 1.0
C      1  0.5625530000000  0.4698670000000  0.5424190000000 1.0
C      1  0.5313970000000  0.5725000000000  0.5552780000000 1.0
C      1  0.4874380000000  0.5191580000000  0.5210250000000 1.0
C      1  0.5090540000000  0.5949510000000  0.5035910000000 1.0
C      1  0.4277470000000  0.5106100000000  0.5742020000000 1.0
C      1  0.5109650000000  0.4176670000000  0.4139230000000 1.0
C      1  0.4937840000000  0.5585060000000  0.4367980000000 1.0
C      1  0.5297230000000  0.5254250000000  0.5644210000000 1.0
C      1  0.4468440000000  0.5349250000000  0.4334560000000 1.0
C      1  0.5198040000000  0.4568760000000  0.4398190000000 1.0
C      1  0.4940480000000  0.3974910000000  0.5186530000000 1.0
C      1  0.5371400000000  0.4800180000000  0.6091650000000 1.0
C      1  0.4979890000000  0.5945580000000  0.4764530000000 1.0
C      1  0.5132790000000  0.4896990000000  0.6168280000000 1.0
C      1  0.5335200000000  0.4880720000000  0.4061950000000 1.0
C      1  0.4704410000000  0.4389370000000  0.4294540000000 1.0
C      1  0.5385090000000  0.4379900000000  0.4963940000000 1.0
C      1  0.5723670000000  0.5616760000000  0.5330940000000 1.0
C      1  0.4748030000000  0.4957340000000  0.5584480000000 1.0
C      1  0.4646850000000  0.5093380000000  0.6085770000000 1.0
C      1  0.5533790000000  0.5369500000000  0.4309180000000 1.0
C      1  0.5046550000000  0.5123190000000  0.4746310000000 1.0
C      1  0.6091960000000  0.5010330000000  0.4759060000000 1.0
C      1  0.5888810000000  0.4339780000000  0.4637490000000 1.0
C      1  0.4195670000000  0.4429240000000  0.4572200000000 1.0
C      1  0.4910300000000  0.4011360000000  0.4530640000000 1.0
C      1  0.4178990000000  0.5329920000000  0.4765140000000 1.0
C      1  0.5161670000000  0.3936520000000  0.4989630000000 1.0
C      1  0.4341670000000  0.4820940000000  0.4935760000000 1.0
C      1  0.5256340000000  0.4449670000000  0.5624600000000 1.0
C      1  0.4446000000000  0.5333300000000  0.4880790000000 1.0
C      1  0.5368350000000  0.5827880000000  0.4563930000000 1.0
C      1  0.4651910000000  0.5466500000000  0.5786560000000 1.0
C      1  0.6037430000000  0.4972210000000  0.5347680000000 1.0
C      1  0.4192690000000  0.4000560000000  0.5302510000000 1.0
C      1  0.4598570000000  0.4504860000000  0.4720170000000 1.0
C      1  0.5992060000000  0.5272480000000  0.4760530000000 1.0
C      1  0.4242790000000  0.4353380000000  0.4959860000000 1.0
C      1  0.4201260000000  0.5328750000000  0.4468700000000 1.0
C      1  0.4830850000000  0.5130310000000  0.4542130000000 1.0
C      1  0.5320210000000  0.4724060000000  0.4612650000000 1.0
C      1  0.4550520000000  0.6591480000000  0.5569430000000 1.0
C      1  0.5477030000000  0.5767310000000  0.5324420000000 1.0
C      1  0.5784160000000  0.5400050000000  0.5518810000000 1.0
C      1  0.4739970000000  0.4386800000000  0.5573360000000 1.0
C      1  0.5375150000000  0.5873490000000  0.5065260000000 1.0
C      1  0.4806270000000  0.6168280000000  0.5379380000000 1.0
C      1  0.4713650000000  0.5416950000000  0.4494310000000 1.0
C      1  0.4441600000000  0.5295090000000  0.5369890000000 1.0
C      1  0.5856470000000  0.4618250000000  0.4629270000000 1.0
C      1  0.5233310000000  0.4996930000000  0.5518330000000 1.0
C      1  0.4796200000000  0.4219220000000  0.5126840000000 1.0
C      1  0.4879890000000  0.4987000000000  0.6167620000000 1.0
C      1  0.5786200000000  0.5709900000000  0.4819170000000 1.0
C      1  0.4569870000000  0.5140140000000  0.4139360000000 1.0
C      1  0.4879890000000  0.5157580000000  0.4079600000000 1.0
C      1  0.5746830000000  0.4735210000000  0.4383180000000 1.0
C      1  0.5955610000000  0.4775470000000  0.4855670000000 1.0
C      1  0.4866840000000  0.4153910000000  0.4287010000000 1.0
C      1  0.4913090000000  0.5937400000000  0.5266550000000 1.0
C      1  0.5448710000000  0.5220160000000  0.4532160000000 1.0
C      1  0.3803030000000  0.4619960000000  0.5281610000000 1.0
C      1  0.4488080000000  0.5059740000000  0.4964790000000 1.0
C      1  0.4031110000000  0.5139040000000  0.4339210000000 1.0
C      1  0.5079740000000  0.5799830000000  0.4527620000000 1.0
C      1  0.4270570000000  0.4818390000000  0.5750920000000 1.0
C      1  0.5422920000000  0.5351070000000  0.4793710000000 1.0
C      1  0.4908760000000  0.5527790000000  0.4911480000000 1.0
C      1  0.4093210000000  0.4707220000000  0.4544790000000 1.0
C      1  0.5388380000000  0.4113500000000  0.5125270000000 1.0
C      1  0.4891020000000  0.5471460000000  0.5179300000000 1.0
C      1  0.4194760000000  0.5202520000000  0.5470120000000 1.0
C      1  0.4898890000000  0.4728950000000  0.4974120000000 1.0
C      1  0.5144160000000  0.5398900000000  0.4815130000000 1.0
C      1  0.5274510000000  0.4999790000000  0.4580460000000 1.0
C      1  0.4990850000000  0.4555810000000  0.5595880000000 1.0
C      1  0.4415200000000  0.6796680000000  0.5656270000000 1.0
C      1  0.5122720000000  0.4339480000000  0.4830570000000 1.0
C      1  0.5829760000000  0.5297590000000  0.5000950000000 1.0
END
