TITL C-599896-8500-656 -54.6038619281959 125000 -1128.51677612127 0 0 183 (C1) n - 1
REM
REM in /home/nfs/bkarasulu/CARBON/AIRSS/Generating-Clusters/TERSOFF/Only-C1/FIRE-HFTN
REM
REM
REM
REM
REM
REM ./C.cell (11c1c37f851c82e70ff6c80c92926a4b)
REM AIRSS Version 0.9.1 bugfix July 2018 build 013d7b7c2542+ Fri, 06 Jul 2018 19:26:36 +0100
REM compiler GCC version 9.2.1 20190827 (Red Hat 9.2.1-1)
REM options -cpp -mtune=generic -march=x86-64 -g -O0 -fpre-include=/usr/include/finclude/math-vector-fortran.h
REM seed 521156231 461403039 -1430779326 -473142220 -1746441449 -347143704 -1161884180 -1399833619 -575283440 197667797 1268004003 1740529659 -503218011 605616989 1620339344 -1063286821 -1591720835 -1246825235 -534002852 -1173466123 1612695754 -1874091927 332635284 1318047183 -2083881360 -1005164307 1643012973 904643635 1432799613 1427174041 -86755244 773013870 407634047
REM
CELL 1.54180   50.00000   50.00000   50.00000   90.00000   90.00000   90.00000
LATT -1
SFAC C  
C      1  0.5060110000000  0.3811390000000  0.4434590000000 1.0
C      1  0.4723000000000  0.4599860000000  0.6379970000000 1.0
C      1  0.4727680000000  0.5995430000000  0.4604700000000 1.0
C      1  0.5492830000000  0.5420750000000  0.4044080000000 1.0
C      1  0.5767020000000  0.5733290000000  0.4572030000000 1.0
C      1  0.5337210000000  0.4234020000000  0.5084370000000 1.0
C      1  0.5020430000000  0.3972780000000  0.4225010000000 1.0
C      1  0.5827010000000  0.4098250000000  0.5323920000000 1.0
C      1  0.5384810000000  0.5546430000000  0.4825440000000 1.0
C      1  0.4940800000000  0.5181050000000  0.5449350000000 1.0
C      1  0.6039750000000  0.5202560000000  0.4947940000000 1.0
C      1  0.3709450000000  0.5067290000000  0.5432910000000 1.0
C      1  0.5210340000000  0.4073130000000  0.5722450000000 1.0
C      1  0.4945260000000  0.5617160000000  0.4998270000000 1.0
C      1  0.5580670000000  0.4241760000000  0.4336610000000 1.0
C      1  0.5055980000000  0.4716800000000  0.5470430000000 1.0
C      1  0.5871060000000  0.5498700000000  0.5510280000000 1.0
C      1  0.5490170000000  0.4132460000000  0.5688660000000 1.0
C      1  0.6477100000000  0.4881090000000  0.4919560000000 1.0
C      1  0.4329790000000  0.5823690000000  0.5019820000000 1.0
C      1  0.5127500000000  0.3936110000000  0.5945030000000 1.0
C      1  0.3584770000000  0.4077440000000  0.4108630000000 1.0
C      1  0.5745820000000  0.4217120000000  0.5585880000000 1.0
C      1  0.5082950000000  0.4571720000000  0.4517100000000 1.0
C      1  0.4099620000000  0.4035050000000  0.4955510000000 1.0
C      1  0.4460280000000  0.5469570000000  0.6134660000000 1.0
C      1  0.4338430000000  0.4437150000000  0.4863980000000 1.0
C      1  0.4355910000000  0.4465890000000  0.4549380000000 1.0
C      1  0.5432280000000  0.6100170000000  0.4760120000000 1.0
C      1  0.4313500000000  0.5346190000000  0.4328130000000 1.0
C      1  0.4869960000000  0.4611180000000  0.5873130000000 1.0
C      1  0.4732760000000  0.4214970000000  0.5553720000000 1.0
C      1  0.6118100000000  0.5458530000000  0.4388150000000 1.0
C      1  0.5171720000000  0.6183610000000  0.5147790000000 1.0
C      1  0.5743400000000  0.4685030000000  0.5276330000000 1.0
C      1  0.4941870000000  0.5606850000000  0.4511550000000 1.0
C      1  0.4471270000000  0.5026730000000  0.6366740000000 1.0
C      1  0.5536890000000  0.5978970000000  0.5513360000000 1.0
C      1  0.5733610000000  0.4664760000000  0.4570900000000 1.0
C      1  0.4436700000000  0.5618580000000  0.4290380000000 1.0
C      1  0.5815330000000  0.5038140000000  0.5796990000000 1.0
C      1  0.5131030000000  0.5060030000000  0.4383150000000 1.0
C      1  0.4366970000000  0.3932180000000  0.4913710000000 1.0
C      1  0.5895820000000  0.4887180000000  0.4507670000000 1.0
C      1  0.4958640000000  0.6246750000000  0.4969200000000 1.0
C      1  0.4821190000000  0.5757000000000  0.5949340000000 1.0
C      1  0.4919820000000  0.4444920000000  0.4105980000000 1.0
C      1  0.4263130000000  0.5011310000000  0.5284930000000 1.0
C      1  0.4515050000000  0.4112510000000  0.5385500000000 1.0
C      1  0.4196690000000  0.5723040000000  0.5265530000000 1.0
C      1  0.4214270000000  0.5104950000000  0.4764230000000 1.0
C      1  0.4657360000000  0.4928430000000  0.4964440000000 1.0
C      1  0.4868360000000  0.5450860000000  0.4287710000000 1.0
C      1  0.5411220000000  0.5379490000000  0.5418950000000 1.0
C      1  0.5985510000000  0.5229620000000  0.5611160000000 1.0
C      1  0.4554770000000  0.4791090000000  0.6462730000000 1.0
C      1  0.4242830000000  0.4195690000000  0.5449130000000 1.0
C      1  0.4001870000000  0.4631910000000  0.5394380000000 1.0
C      1  0.5334000000000  0.5534020000000  0.3826810000000 1.0
C      1  0.5390030000000  0.4251030000000  0.4100340000000 1.0
C      1  0.6244580000000  0.5162610000000  0.5556190000000 1.0
C      1  0.4721280000000  0.6116910000000  0.4877380000000 1.0
C      1  0.4433680000000  0.3946250000000  0.4634600000000 1.0
C      1  0.4871870000000  0.5169890000000  0.4352610000000 1.0
C      1  0.4869380000000  0.4400530000000  0.4906050000000 1.0
C      1  0.4552010000000  0.5422910000000  0.4794310000000 1.0
C      1  0.3823740000000  0.5326610000000  0.5359700000000 1.0
C      1  0.6273530000000  0.5050180000000  0.4931350000000 1.0
C      1  0.4832280000000  0.5526350000000  0.4759010000000 1.0
C      1  0.4536850000000  0.6025940000000  0.5084500000000 1.0
C      1  0.5249640000000  0.4743290000000  0.5272630000000 1.0
C      1  0.5104500000000  0.4214610000000  0.4104780000000 1.0
C      1  0.4482400000000  0.5809120000000  0.4529610000000 1.0
C      1  0.5557650000000  0.5471210000000  0.5895810000000 1.0
C      1  0.5349140000000  0.4899710000000  0.6242820000000 1.0
C      1  0.5278600000000  0.5053600000000  0.3807200000000 1.0
C      1  0.5002550000000  0.5889970000000  0.4519650000000 1.0
C      1  0.4843820000000  0.4509970000000  0.4377070000000 1.0
C      1  0.4069600000000  0.4371480000000  0.5293330000000 1.0
C      1  0.6054070000000  0.5666650000000  0.5083170000000 1.0
C      1  0.6670240000000  0.4706260000000  0.4910560000000 1.0
C      1  0.5997040000000  0.5574790000000  0.4612350000000 1.0
C      1  0.6049120000000  0.5479540000000  0.4874900000000 1.0
C      1  0.5605870000000  0.5487750000000  0.5616700000000 1.0
C      1  0.4804740000000  0.5583310000000  0.5233660000000 1.0
C      1  0.5443640000000  0.6110340000000  0.5044790000000 1.0
C      1  0.4445830000000  0.4976510000000  0.3994140000000 1.0
C      1  0.5965180000000  0.4591400000000  0.5419200000000 1.0
C      1  0.4077840000000  0.5458780000000  0.5326180000000 1.0
C      1  0.5229680000000  0.5078960000000  0.4876330000000 1.0
C      1  0.5875100000000  0.4479810000000  0.5671790000000 1.0
C      1  0.5712290000000  0.4078990000000  0.4531870000000 1.0
C      1  0.5111520000000  0.4474040000000  0.4773640000000 1.0
C      1  0.5036760000000  0.5571410000000  0.6003380000000 1.0
C      1  0.4551590000000  0.5652710000000  0.5940980000000 1.0
C      1  0.4639280000000  0.4806690000000  0.3916550000000 1.0
C      1  0.5016810000000  0.4153810000000  0.5522480000000 1.0
C      1  0.5327930000000  0.3796590000000  0.4880440000000 1.0
C      1  0.4139830000000  0.4604760000000  0.4382750000000 1.0
C      1  0.4436710000000  0.4621780000000  0.5613990000000 1.0
C      1  0.5673210000000  0.4517390000000  0.4342660000000 1.0
C      1  0.3518290000000  0.5052230000000  0.5628990000000 1.0
C      1  0.4607080000000  0.5209980000000  0.4994960000000 1.0
C      1  0.4443170000000  0.5634510000000  0.5679080000000 1.0
C      1  0.4655650000000  0.5071000000000  0.4510870000000 1.0
C      1  0.5085920000000  0.6062480000000  0.5391930000000 1.0
C      1  0.5418010000000  0.5280430000000  0.4906730000000 1.0
C      1  0.4664110000000  0.4455480000000  0.5699740000000 1.0
C      1  0.5496360000000  0.4463930000000  0.3930940000000 1.0
C      1  0.5135480000000  0.4222580000000  0.5277200000000 1.0
C      1  0.4370360000000  0.5836310000000  0.5488170000000 1.0
C      1  0.5293380000000  0.5934380000000  0.4563450000000 1.0
C      1  0.4136410000000  0.4997730000000  0.5012320000000 1.0
C      1  0.6067670000000  0.5245820000000  0.4234010000000 1.0
C      1  0.4620040000000  0.4605260000000  0.4522830000000 1.0
C      1  0.5326060000000  0.5612180000000  0.6003690000000 1.0
C      1  0.5465070000000  0.3989370000000  0.5030450000000 1.0
C      1  0.5113230000000  0.4826330000000  0.3828710000000 1.0
C      1  0.4392700000000  0.4165770000000  0.4476050000000 1.0
C      1  0.5188430000000  0.4873020000000  0.5037750000000 1.0
C      1  0.5700060000000  0.4935700000000  0.4074420000000 1.0
C      1  0.5472320000000  0.5678610000000  0.4550740000000 1.0
C      1  0.4551620000000  0.4075210000000  0.5100580000000 1.0
C      1  0.4248700000000  0.4773090000000  0.5457360000000 1.0
C      1  0.5334070000000  0.5240320000000  0.4424880000000 1.0
C      1  0.5201600000000  0.5311670000000  0.3698410000000 1.0
C      1  0.5612020000000  0.4633600000000  0.4827030000000 1.0
C      1  0.4759980000000  0.4902370000000  0.5799160000000 1.0
C      1  0.5202430000000  0.5212130000000  0.5559830000000 1.0
C      1  0.5150590000000  0.4632460000000  0.5735190000000 1.0
C      1  0.4672360000000  0.5579210000000  0.4125970000000 1.0
C      1  0.5290770000000  0.5635250000000  0.5309080000000 1.0
C      1  0.4500800000000  0.5388730000000  0.5539240000000 1.0
C      1  0.4689670000000  0.4817930000000  0.5221340000000 1.0
C      1  0.4830360000000  0.6058100000000  0.5518530000000 1.0
C      1  0.5632700000000  0.5196290000000  0.5971910000000 1.0
C      1  0.5513980000000  0.5124700000000  0.3973040000000 1.0
C      1  0.5195650000000  0.5156990000000  0.5845050000000 1.0
C      1  0.5578060000000  0.5243820000000  0.5135950000000 1.0
C      1  0.5450260000000  0.4674610000000  0.5699850000000 1.0
C      1  0.4693940000000  0.5652630000000  0.3865840000000 1.0
C      1  0.5218470000000  0.5652480000000  0.5033340000000 1.0
C      1  0.5689440000000  0.5950880000000  0.5276630000000 1.0
C      1  0.5741490000000  0.4801940000000  0.5026610000000 1.0
C      1  0.5278220000000  0.5870670000000  0.5475330000000 1.0
C      1  0.4089280000000  0.4886890000000  0.4315280000000 1.0
C      1  0.4755850000000  0.5386750000000  0.5421140000000 1.0
C      1  0.5390110000000  0.5060160000000  0.6027720000000 1.0
C      1  0.3799860000000  0.4824870000000  0.5297010000000 1.0
C      1  0.3950080000000  0.4424520000000  0.4272370000000 1.0
C      1  0.5799390000000  0.5084040000000  0.5047680000000 1.0
C      1  0.3584170000000  0.5062060000000  0.4411380000000 1.0
C      1  0.3875760000000  0.4883360000000  0.5027340000000 1.0
C      1  0.5749970000000  0.4017510000000  0.5054360000000 1.0
C      1  0.5887280000000  0.5722230000000  0.5303150000000 1.0
C      1  0.3406190000000  0.3904020000000  0.4031170000000 1.0
C      1  0.5175820000000  0.3746910000000  0.4666390000000 1.0
C      1  0.5374910000000  0.4451480000000  0.4892870000000 1.0
C      1  0.4287700000000  0.5270520000000  0.5398240000000 1.0
C      1  0.4976640000000  0.5290600000000  0.5970110000000 1.0
C      1  0.5444410000000  0.5477840000000  0.4323960000000 1.0
C      1  0.3766630000000  0.4253200000000  0.4187900000000 1.0
C      1  0.5203710000000  0.4797650000000  0.4420220000000 1.0
C      1  0.4891850000000  0.4673390000000  0.3925190000000 1.0
C      1  0.4388950000000  0.5681000000000  0.4782810000000 1.0
C      1  0.4105350000000  0.4319700000000  0.5010470000000 1.0
C      1  0.5318790000000  0.5795980000000  0.3758320000000 1.0
C      1  0.5834280000000  0.4042100000000  0.4776400000000 1.0
C      1  0.3826250000000  0.4976680000000  0.4366470000000 1.0
C      1  0.5902730000000  0.5022480000000  0.4258440000000 1.0
C      1  0.4859170000000  0.4540940000000  0.6157250000000 1.0
C      1  0.4579630000000  0.6018090000000  0.5377140000000 1.0
C      1  0.4417820000000  0.5244910000000  0.4589720000000 1.0
C      1  0.4745920000000  0.5124430000000  0.5977490000000 1.0
C      1  0.4539970000000  0.5200550000000  0.6159210000000 1.0
C      1  0.5732160000000  0.4725020000000  0.5794210000000 1.0
C      1  0.5492510000000  0.4691170000000  0.5404780000000 1.0
C      1  0.4847670000000  0.5992640000000  0.5795520000000 1.0
C      1  0.4660920000000  0.4842670000000  0.4682160000000 1.0
C      1  0.4602460000000  0.4331260000000  0.4966870000000 1.0
C      1  0.5643890000000  0.4656050000000  0.4083900000000 1.0
C      1  0.4828550000000  0.4906380000000  0.5474330000000 1.0
C      1  0.4263370000000  0.5084710000000  0.4184000000000 1.0
END
