TITL C-599895-9959-1417 235.470701426278 125000 -947.756702069655 0 0 156 (C1) n - 1
REM
REM in /home/nfs/bkarasulu/CARBON/AIRSS/Generating-Clusters/TERSOFF/Only-C1/FIRE-HFTN
REM
REM
REM
REM
REM
REM ./C.cell (11c1c37f851c82e70ff6c80c92926a4b)
REM AIRSS Version 0.9.1 bugfix July 2018 build 013d7b7c2542+ Fri, 06 Jul 2018 19:26:36 +0100
REM compiler GCC version 9.2.1 20190827 (Red Hat 9.2.1-1)
REM options -cpp -mtune=generic -march=x86-64 -g -O0 -fpre-include=/usr/include/finclude/math-vector-fortran.h
REM seed 1287615415 -124385917 1395732146 -1530104562 100445003 905991322 -1309323269 -1859215425 -1385720068 1863812280 1996690601 3658848 1403042398 -380261272 -1199453255 -25660417 -1371775702 8287040 2139916522 1998218058 562805879 1868431555 929990369 1209465433 -1609234771 1187167437 516116644 53688877 2080601483 -1547460220 -1997131399 -218950010 -377706796
REM
CELL 1.54180   50.00000   50.00000   50.00000   90.00000   90.00000   90.00000
LATT -1
SFAC C  
C      1  0.5618850000000  0.6458250000000  0.4831350000000 1.0
C      1  0.4571010000000  0.4602220000000  0.5903250000000 1.0
C      1  0.4405090000000  0.5028970000000  0.5116680000000 1.0
C      1  0.5087200000000  0.3902330000000  0.5297790000000 1.0
C      1  0.4728300000000  0.4158740000000  0.5498890000000 1.0
C      1  0.4704920000000  0.4541370000000  0.4112460000000 1.0
C      1  0.5573550000000  0.4636980000000  0.5945790000000 1.0
C      1  0.4583230000000  0.4590680000000  0.4810380000000 1.0
C      1  0.4784220000000  0.5077650000000  0.4739260000000 1.0
C      1  0.4980260000000  0.5458010000000  0.3716310000000 1.0
C      1  0.4641730000000  0.4320530000000  0.4873180000000 1.0
C      1  0.4049780000000  0.5270470000000  0.4813670000000 1.0
C      1  0.4079420000000  0.4526300000000  0.4757400000000 1.0
C      1  0.4509290000000  0.5285690000000  0.5182370000000 1.0
C      1  0.4522240000000  0.4361420000000  0.5504740000000 1.0
C      1  0.4785930000000  0.5989850000000  0.5428470000000 1.0
C      1  0.4364490000000  0.5943200000000  0.4678170000000 1.0
C      1  0.5761060000000  0.4134620000000  0.4472820000000 1.0
C      1  0.5223970000000  0.4560670000000  0.5522400000000 1.0
C      1  0.5540490000000  0.4743700000000  0.4964030000000 1.0
C      1  0.5077530000000  0.4336610000000  0.4349060000000 1.0
C      1  0.4859010000000  0.5235840000000  0.5969160000000 1.0
C      1  0.5357700000000  0.5488100000000  0.5785500000000 1.0
C      1  0.4300940000000  0.5874440000000  0.4942880000000 1.0
C      1  0.6039990000000  0.5010390000000  0.5485710000000 1.0
C      1  0.5398040000000  0.4786080000000  0.4399390000000 1.0
C      1  0.5173430000000  0.5497000000000  0.3925020000000 1.0
C      1  0.4542330000000  0.5256160000000  0.4655720000000 1.0
C      1  0.4275600000000  0.5147940000000  0.4678100000000 1.0
C      1  0.3969760000000  0.5645600000000  0.4530620000000 1.0
C      1  0.5104510000000  0.5706200000000  0.4102380000000 1.0
C      1  0.4697330000000  0.5477250000000  0.5993800000000 1.0
C      1  0.4725770000000  0.4114100000000  0.5020890000000 1.0
C      1  0.5385710000000  0.6398370000000  0.4712680000000 1.0
C      1  0.4999010000000  0.5459140000000  0.5430930000000 1.0
C      1  0.4830250000000  0.4027700000000  0.5267440000000 1.0
C      1  0.4818740000000  0.4692480000000  0.5802020000000 1.0
C      1  0.5127920000000  0.4357030000000  0.5701330000000 1.0
C      1  0.5230190000000  0.5913960000000  0.5198790000000 1.0
C      1  0.5523250000000  0.4164810000000  0.5307370000000 1.0
C      1  0.4604710000000  0.5823800000000  0.5591740000000 1.0
C      1  0.5302460000000  0.5248410000000  0.4014910000000 1.0
C      1  0.5748580000000  0.5212340000000  0.4350980000000 1.0
C      1  0.5697280000000  0.5185160000000  0.4631030000000 1.0
C      1  0.5471100000000  0.5746060000000  0.5199260000000 1.0
C      1  0.4753990000000  0.5717540000000  0.5836700000000 1.0
C      1  0.5235510000000  0.5527500000000  0.5533690000000 1.0
C      1  0.5585080000000  0.4937720000000  0.5429310000000 1.0
C      1  0.3862840000000  0.4591130000000  0.4579470000000 1.0
C      1  0.4548010000000  0.5274300000000  0.5468810000000 1.0
C      1  0.4789620000000  0.5269800000000  0.3768780000000 1.0
C      1  0.5520420000000  0.5259700000000  0.5782510000000 1.0
C      1  0.5543650000000  0.4312520000000  0.4428950000000 1.0
C      1  0.3826670000000  0.4718630000000  0.5124980000000 1.0
C      1  0.4922560000000  0.4183150000000  0.5704800000000 1.0
C      1  0.5422900000000  0.3696760000000  0.4770890000000 1.0
C      1  0.4372730000000  0.5764570000000  0.5405210000000 1.0
C      1  0.5315810000000  0.4662660000000  0.6029490000000 1.0
C      1  0.5814810000000  0.4846580000000  0.5562500000000 1.0
C      1  0.4727180000000  0.5096580000000  0.4257150000000 1.0
C      1  0.5332560000000  0.4395540000000  0.5293510000000 1.0
C      1  0.5167250000000  0.4913110000000  0.5632680000000 1.0
C      1  0.4179020000000  0.5655120000000  0.4336710000000 1.0
C      1  0.4311140000000  0.4894740000000  0.4531830000000 1.0
C      1  0.4891310000000  0.5831170000000  0.4207460000000 1.0
C      1  0.5200320000000  0.6211650000000  0.4764190000000 1.0
C      1  0.4391620000000  0.4778850000000  0.5219450000000 1.0
C      1  0.5514350000000  0.5472740000000  0.5097330000000 1.0
C      1  0.5047330000000  0.4686000000000  0.5982120000000 1.0
C      1  0.5932680000000  0.3796600000000  0.4090400000000 1.0
C      1  0.5927540000000  0.5734720000000  0.5402820000000 1.0
C      1  0.4442330000000  0.4939880000000  0.4250720000000 1.0
C      1  0.5256750000000  0.4384070000000  0.5011160000000 1.0
C      1  0.4251820000000  0.4595340000000  0.3946490000000 1.0
C      1  0.5925590000000  0.4405730000000  0.5665450000000 1.0
C      1  0.3877820000000  0.5143890000000  0.4996740000000 1.0
C      1  0.4488950000000  0.5480720000000  0.6172820000000 1.0
C      1  0.4290130000000  0.5279610000000  0.5590710000000 1.0
C      1  0.5759440000000  0.6350590000000  0.5031950000000 1.0
C      1  0.5718940000000  0.5879430000000  0.5279910000000 1.0
C      1  0.4983140000000  0.4521710000000  0.4153540000000 1.0
C      1  0.3741760000000  0.4904450000000  0.4915750000000 1.0
C      1  0.4391850000000  0.5836510000000  0.4414330000000 1.0
C      1  0.4063600000000  0.5362280000000  0.5426920000000 1.0
C      1  0.4491740000000  0.5780030000000  0.5133170000000 1.0
C      1  0.5533970000000  0.4956400000000  0.5152260000000 1.0
C      1  0.5761150000000  0.4584050000000  0.4899090000000 1.0
C      1  0.5987290000000  0.4379100000000  0.5388810000000 1.0
C      1  0.5243530000000  0.4998050000000  0.4523540000000 1.0
C      1  0.4564830000000  0.4608710000000  0.5361630000000 1.0
C      1  0.5540030000000  0.5266690000000  0.4166020000000 1.0
C      1  0.5356420000000  0.3938110000000  0.5203320000000 1.0
C      1  0.4946100000000  0.5100220000000  0.5726620000000 1.0
C      1  0.5784800000000  0.4634960000000  0.5753230000000 1.0
C      1  0.5884820000000  0.5214040000000  0.4853340000000 1.0
C      1  0.6138980000000  0.4597680000000  0.5262890000000 1.0
C      1  0.5853040000000  0.3961230000000  0.4276050000000 1.0
C      1  0.3862350000000  0.4728420000000  0.5610290000000 1.0
C      1  0.5126190000000  0.5011460000000  0.3992260000000 1.0
C      1  0.5287900000000  0.4634240000000  0.4895140000000 1.0
C      1  0.3916880000000  0.5154410000000  0.5291430000000 1.0
C      1  0.4200300000000  0.5430710000000  0.4162240000000 1.0
C      1  0.3990700000000  0.5547730000000  0.4794720000000 1.0
C      1  0.3999820000000  0.4276010000000  0.5207310000000 1.0
C      1  0.5583700000000  0.4578850000000  0.4334780000000 1.0
C      1  0.6127600000000  0.4888540000000  0.5234250000000 1.0
C      1  0.5980390000000  0.5091020000000  0.4245530000000 1.0
C      1  0.4848860000000  0.5099250000000  0.3986330000000 1.0
C      1  0.5822260000000  0.4637400000000  0.4198950000000 1.0
C      1  0.4928040000000  0.4892410000000  0.5203590000000 1.0
C      1  0.3881170000000  0.4461140000000  0.5646400000000 1.0
C      1  0.3697350000000  0.4792950000000  0.4660820000000 1.0
C      1  0.4424480000000  0.4418020000000  0.5767090000000 1.0
C      1  0.4851550000000  0.5518410000000  0.4935920000000 1.0
C      1  0.5486980000000  0.3485250000000  0.4624830000000 1.0
C      1  0.4104110000000  0.5633320000000  0.5320790000000 1.0
C      1  0.6061480000000  0.5030150000000  0.4989580000000 1.0
C      1  0.5770320000000  0.6143080000000  0.5198640000000 1.0
C      1  0.5796220000000  0.4237910000000  0.5224350000000 1.0
C      1  0.5071700000000  0.6000600000000  0.5425350000000 1.0
C      1  0.5414310000000  0.5151860000000  0.4715310000000 1.0
C      1  0.5156220000000  0.6024150000000  0.4949140000000 1.0
C      1  0.5412410000000  0.5046090000000  0.5620060000000 1.0
C      1  0.6061800000000  0.5517480000000  0.5483310000000 1.0
C      1  0.5139400000000  0.6015590000000  0.5702100000000 1.0
C      1  0.4821350000000  0.5265760000000  0.5527830000000 1.0
C      1  0.5827210000000  0.4312730000000  0.4948690000000 1.0
C      1  0.5230500000000  0.5644680000000  0.5983720000000 1.0
C      1  0.4329820000000  0.4654210000000  0.4690100000000 1.0
C      1  0.4952610000000  0.5032650000000  0.4474820000000 1.0
C      1  0.4261170000000  0.5168580000000  0.4128040000000 1.0
C      1  0.5028840000000  0.5826580000000  0.5888180000000 1.0
C      1  0.5791560000000  0.5430290000000  0.5012920000000 1.0
C      1  0.6002140000000  0.4833660000000  0.4170320000000 1.0
C      1  0.4607880000000  0.5533120000000  0.5067160000000 1.0
C      1  0.4066300000000  0.5709850000000  0.5020730000000 1.0
C      1  0.4635870000000  0.5869070000000  0.4278120000000 1.0
C      1  0.5058090000000  0.4705440000000  0.4765330000000 1.0
C      1  0.5802550000000  0.5280800000000  0.5803200000000 1.0
C      1  0.5141470000000  0.4727840000000  0.4027110000000 1.0
C      1  0.5269980000000  0.4173300000000  0.4807360000000 1.0
C      1  0.3982420000000  0.4493200000000  0.5029770000000 1.0
C      1  0.4626490000000  0.5354310000000  0.4392580000000 1.0
C      1  0.3866150000000  0.4874690000000  0.5371330000000 1.0
C      1  0.5359120000000  0.3924470000000  0.4914790000000 1.0
C      1  0.5874770000000  0.4146660000000  0.4729820000000 1.0
C      1  0.5281590000000  0.4249230000000  0.4526690000000 1.0
C      1  0.4945690000000  0.5260560000000  0.4908960000000 1.0
C      1  0.5555070000000  0.3282860000000  0.4475300000000 1.0
C      1  0.4807040000000  0.4745040000000  0.5433500000000 1.0
C      1  0.5376880000000  0.5192540000000  0.5039930000000 1.0
C      1  0.6011740000000  0.5269740000000  0.5604800000000 1.0
C      1  0.5088000000000  0.5117600000000  0.5111790000000 1.0
C      1  0.3940770000000  0.4264300000000  0.5470900000000 1.0
C      1  0.4463140000000  0.4684420000000  0.4095950000000 1.0
C      1  0.4797390000000  0.4795930000000  0.4865370000000 1.0
END
