TITL C-599896-8500-1078 61798.1530954997 125000 -1167.35865708442 0 0 190 (C1) n - 1
REM
REM in /home/nfs/bkarasulu/CARBON/AIRSS/Generating-Clusters/TERSOFF/Only-C1/FIRE-HFTN
REM
REM
REM
REM
REM
REM ./C.cell (11c1c37f851c82e70ff6c80c92926a4b)
REM AIRSS Version 0.9.1 bugfix July 2018 build 013d7b7c2542+ Fri, 06 Jul 2018 19:26:36 +0100
REM compiler GCC version 9.2.1 20190827 (Red Hat 9.2.1-1)
REM options -cpp -mtune=generic -march=x86-64 -g -O0 -fpre-include=/usr/include/finclude/math-vector-fortran.h
REM seed -774815045 1423553830 362837088 -742842017 1747415525 529999879 -1632930425 -1452407230 128737580 -1688590761 207638193 984444510 761524248 -705407430 -1520107329 -174430521 1323016898 -901242809 981820458 79149550 -1481612587 1507971244 678329392 2072319876 121809717 1225349524 -1644923360 -1355671735 -75187336 682093582 -2093453329 -1731152084 679496241
REM
CELL 1.54180   50.00000   50.00000   50.00000   90.00000   90.00000   90.00000
LATT -1
SFAC C  
C      1  0.5997430000000  0.5652490000000  0.5346080000000 1.0
C      1  0.5236960000000  0.3815280000000  0.4973800000000 1.0
C      1  0.5083320000000  0.4302600000000  0.5856200000000 1.0
C      1  0.5554510000000  0.5215760000000  0.5074510000000 1.0
C      1  0.5346200000000  0.5836710000000  0.5003730000000 1.0
C      1  0.4300190000000  0.5041820000000  0.5738960000000 1.0
C      1  0.5001440000000  0.6133840000000  0.5249960000000 1.0
C      1  0.6272360000000  0.4151900000000  0.5566510000000 1.0
C      1  0.5405300000000  0.4704600000000  0.5576290000000 1.0
C      1  0.5726630000000  0.3948050000000  0.5017220000000 1.0
C      1  0.4710750000000  0.5527240000000  0.4421570000000 1.0
C      1  0.4235240000000  0.4560160000000  0.5758000000000 1.0
C      1  0.5818680000000  0.4486710000000  0.3783080000000 1.0
C      1  0.5177490000000  0.5669340000000  0.4852310000000 1.0
C      1  0.4914000000000  0.5218040000000  0.5469890000000 1.0
C      1  0.4268300000000  0.4607880000000  0.5070670000000 1.0
C      1  0.4324730000000  0.4017830000000  0.4573290000000 1.0
C      1  0.4642320000000  0.6534940000000  0.3807640000000 1.0
C      1  0.4624190000000  0.4217580000000  0.5762090000000 1.0
C      1  0.5516220000000  0.4535930000000  0.5157480000000 1.0
C      1  0.4832680000000  0.5915100000000  0.5166720000000 1.0
C      1  0.5193000000000  0.3328300000000  0.5524870000000 1.0
C      1  0.6126210000000  0.4070390000000  0.5341590000000 1.0
C      1  0.6069250000000  0.5233780000000  0.5564980000000 1.0
C      1  0.5140030000000  0.4046260000000  0.5390610000000 1.0
C      1  0.4339470000000  0.5171920000000  0.4206950000000 1.0
C      1  0.5718870000000  0.5556440000000  0.4396420000000 1.0
C      1  0.5191810000000  0.3795590000000  0.5257480000000 1.0
C      1  0.5049900000000  0.4239110000000  0.5194740000000 1.0
C      1  0.4536500000000  0.6311670000000  0.3903270000000 1.0
C      1  0.4395840000000  0.4775270000000  0.5664500000000 1.0
C      1  0.4760590000000  0.5154090000000  0.4842530000000 1.0
C      1  0.5471920000000  0.4401990000000  0.6115190000000 1.0
C      1  0.6096170000000  0.5382010000000  0.5329300000000 1.0
C      1  0.4073450000000  0.5412940000000  0.4608960000000 1.0
C      1  0.4582930000000  0.5871150000000  0.4703100000000 1.0
C      1  0.3980410000000  0.4951640000000  0.4978090000000 1.0
C      1  0.4468940000000  0.5160660000000  0.5943260000000 1.0
C      1  0.5489340000000  0.3933280000000  0.4873530000000 1.0
C      1  0.5951440000000  0.5654270000000  0.4838240000000 1.0
C      1  0.5327510000000  0.5308860000000  0.5855850000000 1.0
C      1  0.6035470000000  0.5244210000000  0.5084670000000 1.0
C      1  0.4986470000000  0.4884600000000  0.4397600000000 1.0
C      1  0.5281630000000  0.4934960000000  0.4357480000000 1.0
C      1  0.4829320000000  0.5096150000000  0.4275620000000 1.0
C      1  0.4175870000000  0.4616870000000  0.4094240000000 1.0
C      1  0.4754140000000  0.6751570000000  0.3715280000000 1.0
C      1  0.4336630000000  0.3813040000000  0.5260380000000 1.0
C      1  0.5836950000000  0.5068550000000  0.5598100000000 1.0
C      1  0.4081630000000  0.5420010000000  0.5449500000000 1.0
C      1  0.4195790000000  0.5617440000000  0.5624580000000 1.0
C      1  0.5494380000000  0.4808060000000  0.4503730000000 1.0
C      1  0.6141840000000  0.5256940000000  0.4598870000000 1.0
C      1  0.4852500000000  0.4839210000000  0.6210620000000 1.0
C      1  0.5210980000000  0.4494790000000  0.5189290000000 1.0
C      1  0.6064210000000  0.5387000000000  0.4837030000000 1.0
C      1  0.5025360000000  0.5383230000000  0.5680950000000 1.0
C      1  0.4944340000000  0.5665990000000  0.5670170000000 1.0
C      1  0.4050350000000  0.5528470000000  0.5169880000000 1.0
C      1  0.5491760000000  0.4532760000000  0.4650410000000 1.0
C      1  0.4895250000000  0.4623000000000  0.4006820000000 1.0
C      1  0.4809980000000  0.4720630000000  0.4580620000000 1.0
C      1  0.5185720000000  0.4513310000000  0.4688100000000 1.0
C      1  0.5119560000000  0.6532960000000  0.4990790000000 1.0
C      1  0.6131870000000  0.4204950000000  0.5802990000000 1.0
C      1  0.5439780000000  0.6066630000000  0.4457620000000 1.0
C      1  0.5632230000000  0.4225190000000  0.5958480000000 1.0
C      1  0.5635110000000  0.4998520000000  0.4670520000000 1.0
C      1  0.5079160000000  0.6117610000000  0.5521350000000 1.0
C      1  0.4074410000000  0.5160810000000  0.5586770000000 1.0
C      1  0.4489910000000  0.3887200000000  0.4775930000000 1.0
C      1  0.5784930000000  0.4903120000000  0.5375230000000 1.0
C      1  0.4560710000000  0.4208980000000  0.5116330000000 1.0
C      1  0.5165350000000  0.6274850000000  0.5063690000000 1.0
C      1  0.4442310000000  0.4538990000000  0.4045870000000 1.0
C      1  0.5811760000000  0.6049830000000  0.5124620000000 1.0
C      1  0.4480160000000  0.4000980000000  0.5704470000000 1.0
C      1  0.4307190000000  0.6233770000000  0.5297690000000 1.0
C      1  0.4794150000000  0.4734980000000  0.6457790000000 1.0
C      1  0.5092230000000  0.4400670000000  0.4396150000000 1.0
C      1  0.4121620000000  0.4704490000000  0.4353540000000 1.0
C      1  0.5149330000000  0.4633100000000  0.5467130000000 1.0
C      1  0.4003830000000  0.4929000000000  0.4484540000000 1.0
C      1  0.3875560000000  0.4841420000000  0.4733360000000 1.0
C      1  0.4223690000000  0.4892610000000  0.5127660000000 1.0
C      1  0.5208380000000  0.5043300000000  0.4836120000000 1.0
C      1  0.5360930000000  0.5214500000000  0.4285960000000 1.0
C      1  0.4079150000000  0.5667490000000  0.4479470000000 1.0
C      1  0.4821740000000  0.4246240000000  0.4993330000000 1.0
C      1  0.5202500000000  0.3896130000000  0.4522430000000 1.0
C      1  0.4757400000000  0.3786640000000  0.4732890000000 1.0
C      1  0.5970960000000  0.4331600000000  0.3631620000000 1.0
C      1  0.5421920000000  0.5742740000000  0.5250700000000 1.0
C      1  0.4584290000000  0.4324850000000  0.4194460000000 1.0
C      1  0.5224810000000  0.4122330000000  0.5668700000000 1.0
C      1  0.4011600000000  0.5422110000000  0.4897780000000 1.0
C      1  0.5454240000000  0.4029370000000  0.4599480000000 1.0
C      1  0.4634920000000  0.6045990000000  0.4482640000000 1.0
C      1  0.5837810000000  0.5114430000000  0.4204620000000 1.0
C      1  0.5654260000000  0.5253420000000  0.5746650000000 1.0
C      1  0.3593960000000  0.4903970000000  0.5570450000000 1.0
C      1  0.5655380000000  0.6131370000000  0.4893200000000 1.0
C      1  0.4452470000000  0.6071170000000  0.4014520000000 1.0
C      1  0.4613730000000  0.5860750000000  0.5340250000000 1.0
C      1  0.4905650000000  0.6116710000000  0.4428920000000 1.0
C      1  0.5489170000000  0.4074560000000  0.5762380000000 1.0
C      1  0.5183730000000  0.5400670000000  0.4413740000000 1.0
C      1  0.5792720000000  0.5741740000000  0.4607490000000 1.0
C      1  0.3866360000000  0.4302250000000  0.4684070000000 1.0
C      1  0.4587930000000  0.5375820000000  0.4854570000000 1.0
C      1  0.5363900000000  0.5277390000000  0.5273690000000 1.0
C      1  0.4629840000000  0.4759690000000  0.4004620000000 1.0
C      1  0.4912030000000  0.5359850000000  0.4338480000000 1.0
C      1  0.4865350000000  0.4407700000000  0.4216090000000 1.0
C      1  0.5206970000000  0.4489510000000  0.6049720000000 1.0
C      1  0.4060800000000  0.4431250000000  0.5590840000000 1.0
C      1  0.5041120000000  0.3801390000000  0.4747930000000 1.0
C      1  0.4664850000000  0.5072120000000  0.5421800000000 1.0
C      1  0.6122390000000  0.4176600000000  0.3486690000000 1.0
C      1  0.5269340000000  0.4988480000000  0.5968820000000 1.0
C      1  0.4436720000000  0.3964220000000  0.5047690000000 1.0
C      1  0.4716930000000  0.4878410000000  0.4800480000000 1.0
C      1  0.5376000000000  0.6118200000000  0.4963770000000 1.0
C      1  0.5088230000000  0.5210100000000  0.5247150000000 1.0
C      1  0.5106730000000  0.4777320000000  0.6092940000000 1.0
C      1  0.4157530000000  0.5796100000000  0.5164450000000 1.0
C      1  0.5175260000000  0.6104380000000  0.4413120000000 1.0
C      1  0.4435710000000  0.5341890000000  0.5084730000000 1.0
C      1  0.3787430000000  0.4561760000000  0.4728980000000 1.0
C      1  0.4357560000000  0.5966320000000  0.5266840000000 1.0
C      1  0.4585570000000  0.5010860000000  0.4151890000000 1.0
C      1  0.3369800000000  0.4774820000000  0.5538400000000 1.0
C      1  0.6543930000000  0.4179380000000  0.5555130000000 1.0
C      1  0.4837540000000  0.4395890000000  0.5758950000000 1.0
C      1  0.5664860000000  0.6002550000000  0.4626100000000 1.0
C      1  0.4365420000000  0.3838880000000  0.5525890000000 1.0
C      1  0.4233730000000  0.4503410000000  0.6026740000000 1.0
C      1  0.4824500000000  0.4725980000000  0.5020520000000 1.0
C      1  0.4417920000000  0.6037410000000  0.4294360000000 1.0
C      1  0.4451420000000  0.5628090000000  0.5742920000000 1.0
C      1  0.5853560000000  0.5701900000000  0.5597610000000 1.0
C      1  0.4663200000000  0.4779480000000  0.5507390000000 1.0
C      1  0.3827890000000  0.5026310000000  0.5592430000000 1.0
C      1  0.4427030000000  0.5097530000000  0.5231870000000 1.0
C      1  0.4144660000000  0.5177760000000  0.4440030000000 1.0
C      1  0.5773770000000  0.4853240000000  0.4881650000000 1.0
C      1  0.5193560000000  0.3552340000000  0.5391780000000 1.0
C      1  0.4771670000000  0.4395280000000  0.4726010000000 1.0
C      1  0.4490700000000  0.5440550000000  0.5947970000000 1.0
C      1  0.4670430000000  0.5728640000000  0.5591420000000 1.0
C      1  0.4924030000000  0.5728910000000  0.4971590000000 1.0
C      1  0.4187350000000  0.5892290000000  0.4380680000000 1.0
C      1  0.5401920000000  0.4536010000000  0.4026680000000 1.0
C      1  0.5289680000000  0.5466310000000  0.4680790000000 1.0
C      1  0.5939230000000  0.3999690000000  0.5167170000000 1.0
C      1  0.4396640000000  0.5844210000000  0.3858290000000 1.0
C      1  0.5415160000000  0.5520520000000  0.5391630000000 1.0
C      1  0.4665770000000  0.4650230000000  0.5240560000000 1.0
C      1  0.5137630000000  0.5887910000000  0.5673800000000 1.0
C      1  0.5160760000000  0.4640080000000  0.3909440000000 1.0
C      1  0.5004310000000  0.5158210000000  0.4986290000000 1.0
C      1  0.5449140000000  0.4839400000000  0.5810820000000 1.0
C      1  0.4659300000000  0.5003560000000  0.6083730000000 1.0
C      1  0.5612490000000  0.4680920000000  0.5386760000000 1.0
C      1  0.5527000000000  0.4281680000000  0.4478210000000 1.0
C      1  0.4895210000000  0.4635700000000  0.5615610000000 1.0
C      1  0.4325960000000  0.5587280000000  0.3866760000000 1.0
C      1  0.5823340000000  0.5480280000000  0.5762110000000 1.0
C      1  0.5404590000000  0.5835020000000  0.5772290000000 1.0
C      1  0.5770100000000  0.4882610000000  0.4056420000000 1.0
C      1  0.6069940000000  0.5143490000000  0.4365220000000 1.0
C      1  0.4055750000000  0.4111520000000  0.4630780000000 1.0
C      1  0.5661200000000  0.4638980000000  0.3957790000000 1.0
C      1  0.5357240000000  0.4359570000000  0.4251010000000 1.0
C      1  0.5707070000000  0.6100290000000  0.5397510000000 1.0
C      1  0.5810450000000  0.5041920000000  0.5111580000000 1.0
C      1  0.5654340000000  0.5911780000000  0.5616230000000 1.0
C      1  0.4456740000000  0.4121440000000  0.4342080000000 1.0
C      1  0.5641320000000  0.4593280000000  0.4906310000000 1.0
C      1  0.4261420000000  0.4534710000000  0.4804060000000 1.0
C      1  0.4272200000000  0.4563490000000  0.4543480000000 1.0
C      1  0.4602020000000  0.5590710000000  0.4671890000000 1.0
C      1  0.5949930000000  0.5796540000000  0.5097370000000 1.0
C      1  0.4462560000000  0.4457200000000  0.5205390000000 1.0
C      1  0.5386790000000  0.5604540000000  0.5956090000000 1.0
C      1  0.5083560000000  0.4615060000000  0.4949150000000 1.0
C      1  0.4285360000000  0.5361470000000  0.4001590000000 1.0
C      1  0.5634400000000  0.5310250000000  0.4263780000000 1.0
C      1  0.5910160000000  0.4230020000000  0.5947160000000 1.0
C      1  0.5448180000000  0.5214890000000  0.4791670000000 1.0
END
