TITL C-599895-9959-638 0.315712584458222 125000 -804.100416536496 0 0 131 (C1) n - 1
REM
REM in /home/nfs/bkarasulu/CARBON/AIRSS/Generating-Clusters/TERSOFF/Only-C1/FIRE-HFTN
REM
REM
REM
REM
REM
REM ./C.cell (11c1c37f851c82e70ff6c80c92926a4b)
REM AIRSS Version 0.9.1 bugfix July 2018 build 013d7b7c2542+ Fri, 06 Jul 2018 19:26:36 +0100
REM compiler GCC version 9.2.1 20190827 (Red Hat 9.2.1-1)
REM options -cpp -mtune=generic -march=x86-64 -g -O0 -fpre-include=/usr/include/finclude/math-vector-fortran.h
REM seed -1934652396 1177287906 -1841788854 -1904190481 -381083780 -572167622 1150933366 -1427953033 626871770 264823829 -1107654371 2056034078 1233781658 -805856847 -1362185430 -657182532 797194751 1286499311 -1792994286 113373791 -185227849 1186753481 -952790011 -470088677 -122891184 19465455 220017743 -1271786419 -403194849 133166722 279542124 -1177848076 -1969045852
REM
CELL 1.54180   50.00000   50.00000   50.00000   90.00000   90.00000   90.00000
LATT -1
SFAC C  
C      1  0.4816540000000  0.6083210000000  0.4416230000000 1.0
C      1  0.5235670000000  0.4464860000000  0.5434220000000 1.0
C      1  0.5766900000000  0.4661660000000  0.5141770000000 1.0
C      1  0.5468750000000  0.4700030000000  0.4713190000000 1.0
C      1  0.5408040000000  0.5501840000000  0.4198210000000 1.0
C      1  0.4651940000000  0.6171300000000  0.4611460000000 1.0
C      1  0.5498350000000  0.4500770000000  0.5544520000000 1.0
C      1  0.6044150000000  0.5851880000000  0.4904700000000 1.0
C      1  0.5564800000000  0.4862720000000  0.3706290000000 1.0
C      1  0.4299840000000  0.4655330000000  0.5880570000000 1.0
C      1  0.6097040000000  0.5181470000000  0.5260610000000 1.0
C      1  0.4551610000000  0.4892920000000  0.5065840000000 1.0
C      1  0.4324760000000  0.4369160000000  0.5465090000000 1.0
C      1  0.4594640000000  0.5258890000000  0.5746990000000 1.0
C      1  0.5007730000000  0.5207920000000  0.3984650000000 1.0
C      1  0.5111500000000  0.4208560000000  0.5367030000000 1.0
C      1  0.5772460000000  0.5670550000000  0.5424580000000 1.0
C      1  0.5310610000000  0.4578430000000  0.4908670000000 1.0
C      1  0.5762530000000  0.4439140000000  0.4946230000000 1.0
C      1  0.5418240000000  0.4788430000000  0.3908560000000 1.0
C      1  0.5039450000000  0.5559880000000  0.5550880000000 1.0
C      1  0.4012700000000  0.4585380000000  0.4783030000000 1.0
C      1  0.5817180000000  0.5431840000000  0.5541320000000 1.0
C      1  0.4228900000000  0.4744090000000  0.4347850000000 1.0
C      1  0.5238550000000  0.4933210000000  0.5244210000000 1.0
C      1  0.4603740000000  0.4289700000000  0.5572250000000 1.0
C      1  0.5358150000000  0.5196650000000  0.5687420000000 1.0
C      1  0.4708020000000  0.5051970000000  0.5238810000000 1.0
C      1  0.5318790000000  0.5936560000000  0.4402240000000 1.0
C      1  0.5657470000000  0.4187080000000  0.5028250000000 1.0
C      1  0.4637610000000  0.4526050000000  0.4143080000000 1.0
C      1  0.4820520000000  0.5153400000000  0.4507590000000 1.0
C      1  0.5026070000000  0.5306550000000  0.4639740000000 1.0
C      1  0.4809060000000  0.4664580000000  0.4560500000000 1.0
C      1  0.5125120000000  0.5066330000000  0.5022550000000 1.0
C      1  0.4571220000000  0.6029830000000  0.5362590000000 1.0
C      1  0.4536520000000  0.5093290000000  0.4538620000000 1.0
C      1  0.4966670000000  0.3894450000000  0.5045350000000 1.0
C      1  0.4172250000000  0.4364920000000  0.5205180000000 1.0
C      1  0.4910410000000  0.5224760000000  0.5139800000000 1.0
C      1  0.3900490000000  0.5105910000000  0.5524300000000 1.0
C      1  0.5033600000000  0.5985150000000  0.4970970000000 1.0
C      1  0.5051200000000  0.5985510000000  0.4322880000000 1.0
C      1  0.5909890000000  0.5194630000000  0.4665150000000 1.0
C      1  0.5745120000000  0.4928160000000  0.5588500000000 1.0
C      1  0.5512040000000  0.4979950000000  0.5803170000000 1.0
C      1  0.5396130000000  0.6077720000000  0.4643780000000 1.0
C      1  0.5388890000000  0.5745590000000  0.5146960000000 1.0
C      1  0.5188820000000  0.5407350000000  0.5759830000000 1.0
C      1  0.4928850000000  0.4886450000000  0.4432460000000 1.0
C      1  0.4545280000000  0.6165170000000  0.5130180000000 1.0
C      1  0.4078120000000  0.4305250000000  0.4713700000000 1.0
C      1  0.5409580000000  0.4263970000000  0.4307510000000 1.0
C      1  0.4729020000000  0.3977800000000  0.4955370000000 1.0
C      1  0.4036950000000  0.4757560000000  0.4559270000000 1.0
C      1  0.5178270000000  0.6161340000000  0.4801370000000 1.0
C      1  0.5058120000000  0.4710830000000  0.5356710000000 1.0
C      1  0.4901560000000  0.5748410000000  0.4862980000000 1.0
C      1  0.5201960000000  0.4421060000000  0.4156350000000 1.0
C      1  0.4461070000000  0.5563820000000  0.5098010000000 1.0
C      1  0.5532510000000  0.5344190000000  0.4912280000000 1.0
C      1  0.4057280000000  0.4611340000000  0.5073900000000 1.0
C      1  0.4552710000000  0.4659930000000  0.4678530000000 1.0
C      1  0.4743990000000  0.5011660000000  0.5722240000000 1.0
C      1  0.4122920000000  0.4172970000000  0.4983640000000 1.0
C      1  0.5197090000000  0.5097450000000  0.4754960000000 1.0
C      1  0.3673740000000  0.4973570000000  0.5488410000000 1.0
C      1  0.3462830000000  0.4820200000000  0.5441030000000 1.0
C      1  0.4991170000000  0.5443690000000  0.5298160000000 1.0
C      1  0.4998820000000  0.5407430000000  0.5978730000000 1.0
C      1  0.5353510000000  0.4025180000000  0.4452910000000 1.0
C      1  0.4909350000000  0.4240910000000  0.4453900000000 1.0
C      1  0.5689190000000  0.4521750000000  0.4664700000000 1.0
C      1  0.5349010000000  0.4754300000000  0.5920350000000 1.0
C      1  0.4256630000000  0.4264210000000  0.4476480000000 1.0
C      1  0.5054370000000  0.4480880000000  0.4912460000000 1.0
C      1  0.4535760000000  0.4450760000000  0.4881150000000 1.0
C      1  0.4734890000000  0.5476560000000  0.5876070000000 1.0
C      1  0.4428120000000  0.4950670000000  0.4295940000000 1.0
C      1  0.4819650000000  0.4906540000000  0.5469220000000 1.0
C      1  0.6084220000000  0.5392610000000  0.4765110000000 1.0
C      1  0.5059780000000  0.4698920000000  0.5959220000000 1.0
C      1  0.5382770000000  0.3950410000000  0.4710810000000 1.0
C      1  0.4903830000000  0.4366050000000  0.4189900000000 1.0
C      1  0.4572720000000  0.4632090000000  0.5944030000000 1.0
C      1  0.5353760000000  0.5118270000000  0.5416500000000 1.0
C      1  0.4445150000000  0.5562250000000  0.5381020000000 1.0
C      1  0.4563610000000  0.6207560000000  0.4864110000000 1.0
C      1  0.6173450000000  0.5316660000000  0.5032970000000 1.0
C      1  0.4351670000000  0.4473510000000  0.4289580000000 1.0
C      1  0.4637200000000  0.5663380000000  0.4918740000000 1.0
C      1  0.5489610000000  0.4517980000000  0.5828590000000 1.0
C      1  0.5201070000000  0.4859270000000  0.4347970000000 1.0
C      1  0.5272840000000  0.4698450000000  0.4127640000000 1.0
C      1  0.4456550000000  0.4086870000000  0.4574880000000 1.0
C      1  0.4798540000000  0.5683980000000  0.5669730000000 1.0
C      1  0.4949450000000  0.4433130000000  0.4657310000000 1.0
C      1  0.5699980000000  0.4674260000000  0.5425230000000 1.0
C      1  0.4790300000000  0.4831980000000  0.5935950000000 1.0
C      1  0.4693950000000  0.4387530000000  0.5836860000000 1.0
C      1  0.4190120000000  0.4527840000000  0.5667420000000 1.0
C      1  0.5345680000000  0.4917370000000  0.4586570000000 1.0
C      1  0.4831570000000  0.4181590000000  0.5439350000000 1.0
C      1  0.5183880000000  0.5932640000000  0.5206920000000 1.0
C      1  0.5790100000000  0.5950110000000  0.4995580000000 1.0
C      1  0.5642890000000  0.5971550000000  0.4740660000000 1.0
C      1  0.4901700000000  0.4573740000000  0.5134410000000 1.0
C      1  0.4487980000000  0.4932510000000  0.4782690000000 1.0
C      1  0.5650900000000  0.4389470000000  0.4414240000000 1.0
C      1  0.5422360000000  0.4036140000000  0.4980780000000 1.0
C      1  0.5757260000000  0.4915070000000  0.5017010000000 1.0
C      1  0.5743650000000  0.5746570000000  0.4551170000000 1.0
C      1  0.5509930000000  0.5714690000000  0.4358180000000 1.0
C      1  0.4574100000000  0.4167560000000  0.4821680000000 1.0
C      1  0.5090190000000  0.5548860000000  0.4780290000000 1.0
C      1  0.3261750000000  0.4662630000000  0.5389080000000 1.0
C      1  0.4140630000000  0.5214030000000  0.5552180000000 1.0
C      1  0.5171030000000  0.6083310000000  0.5433050000000 1.0
C      1  0.5216010000000  0.5360210000000  0.4069120000000 1.0
C      1  0.4813080000000  0.5017940000000  0.3976830000000 1.0
C      1  0.4624400000000  0.4606180000000  0.5104140000000 1.0
C      1  0.4593640000000  0.5782050000000  0.5498810000000 1.0
C      1  0.5658420000000  0.5812190000000  0.5209210000000 1.0
C      1  0.4628080000000  0.4836620000000  0.4100130000000 1.0
C      1  0.5901660000000  0.5164960000000  0.5476810000000 1.0
C      1  0.4973960000000  0.4414380000000  0.5920680000000 1.0
C      1  0.4388990000000  0.5340280000000  0.5557710000000 1.0
C      1  0.5706520000000  0.5132270000000  0.4850110000000 1.0
C      1  0.6003590000000  0.5657980000000  0.4690510000000 1.0
C      1  0.5192220000000  0.4030410000000  0.5153470000000 1.0
C      1  0.5340220000000  0.5548220000000  0.4939910000000 1.0
END
