TITL C-599892-9790-329 0.210374755794679 125000 -593.796819164551 0 0 98 (C1) n - 1
REM
REM in /home/nfs/bkarasulu/CARBON/AIRSS/Generating-Clusters/TERSOFF/Only-C1/FIRE-HFTN
REM
REM
REM
REM
REM
REM ./C.cell (11c1c37f851c82e70ff6c80c92926a4b)
REM AIRSS Version 0.9.1 bugfix July 2018 build 013d7b7c2542+ Fri, 06 Jul 2018 19:26:36 +0100
REM compiler GCC version 9.2.1 20190827 (Red Hat 9.2.1-1)
REM options -cpp -mtune=generic -march=x86-64 -g -O0 -fpre-include=/usr/include/finclude/math-vector-fortran.h
REM seed 727932632 1204228301 -878823607 1860549246 1764098019 -1613562396 -1603758588 -765238217 724509879 1686595064 240395710 2114233159 792678924 1921506197 1855093154 1209298252 -1804389461 -1913794163 735607184 1441630179 1966909734 85366504 -102770650 76328574 -1218641734 -1412049173 -346566777 1101501697 1258701427 -2040456776 -67762801 -485225688 -1836601425
REM
CELL 1.54180   50.00000   50.00000   50.00000   90.00000   90.00000   90.00000
LATT -1
SFAC C  
C      1  0.5063620000000  0.4597460000000  0.5742510000000 1.0
C      1  0.4886120000000  0.5512560000000  0.4272080000000 1.0
C      1  0.4635050000000  0.4316140000000  0.4916810000000 1.0
C      1  0.5160220000000  0.5846450000000  0.5162910000000 1.0
C      1  0.4590390000000  0.4602220000000  0.4349090000000 1.0
C      1  0.4488650000000  0.5043130000000  0.5076460000000 1.0
C      1  0.4492090000000  0.5245190000000  0.5681710000000 1.0
C      1  0.5334290000000  0.4400510000000  0.4317340000000 1.0
C      1  0.5643660000000  0.4882080000000  0.5516370000000 1.0
C      1  0.4686620000000  0.5426570000000  0.4796580000000 1.0
C      1  0.4308750000000  0.5059410000000  0.5529280000000 1.0
C      1  0.5463710000000  0.5030900000000  0.4058470000000 1.0
C      1  0.5163020000000  0.5324350000000  0.5862830000000 1.0
C      1  0.4687600000000  0.5342030000000  0.4172280000000 1.0
C      1  0.5356140000000  0.5171230000000  0.4576880000000 1.0
C      1  0.4725220000000  0.5255050000000  0.5494270000000 1.0
C      1  0.5224750000000  0.4529800000000  0.5499610000000 1.0
C      1  0.5527120000000  0.4811650000000  0.5775140000000 1.0
C      1  0.4847940000000  0.5004300000000  0.5566840000000 1.0
C      1  0.5193120000000  0.5070590000000  0.6016790000000 1.0
C      1  0.4650450000000  0.5710420000000  0.4791090000000 1.0
C      1  0.5667700000000  0.4641580000000  0.5344970000000 1.0
C      1  0.5263030000000  0.4801520000000  0.4835680000000 1.0
C      1  0.4301700000000  0.5647380000000  0.5312910000000 1.0
C      1  0.4479530000000  0.4879570000000  0.4350940000000 1.0
C      1  0.5145970000000  0.4995900000000  0.5541670000000 1.0
C      1  0.4924710000000  0.4146760000000  0.4980260000000 1.0
C      1  0.5271110000000  0.5806880000000  0.4902030000000 1.0
C      1  0.5018240000000  0.6094470000000  0.5182860000000 1.0
C      1  0.5305670000000  0.5249140000000  0.5592860000000 1.0
C      1  0.5047070000000  0.5633320000000  0.5320640000000 1.0
C      1  0.4788040000000  0.4702140000000  0.5636670000000 1.0
C      1  0.5437040000000  0.5415730000000  0.4711980000000 1.0
C      1  0.5626180000000  0.4678720000000  0.4613200000000 1.0
C      1  0.5438060000000  0.4900300000000  0.4631810000000 1.0
C      1  0.5055890000000  0.4443200000000  0.4326220000000 1.0
C      1  0.5427120000000  0.4258040000000  0.4777420000000 1.0
C      1  0.4197510000000  0.5213180000000  0.4709770000000 1.0
C      1  0.4656870000000  0.4428140000000  0.4609300000000 1.0
C      1  0.4956190000000  0.4453590000000  0.4593700000000 1.0
C      1  0.5710880000000  0.5079040000000  0.4150940000000 1.0
C      1  0.5003610000000  0.4042370000000  0.5231330000000 1.0
C      1  0.4786300000000  0.5519750000000  0.5371010000000 1.0
C      1  0.4102380000000  0.4962480000000  0.4820340000000 1.0
C      1  0.4703100000000  0.4567120000000  0.5386620000000 1.0
C      1  0.4897110000000  0.4678540000000  0.5210600000000 1.0
C      1  0.4306280000000  0.5169010000000  0.5255800000000 1.0
C      1  0.5157640000000  0.4154260000000  0.4808320000000 1.0
C      1  0.5807830000000  0.4706770000000  0.4841300000000 1.0
C      1  0.5239810000000  0.4944420000000  0.5079730000000 1.0
C      1  0.5039680000000  0.4650010000000  0.4774300000000 1.0
C      1  0.5172960000000  0.5226780000000  0.5044350000000 1.0
C      1  0.4630780000000  0.5856580000000  0.5042240000000 1.0
C      1  0.4844360000000  0.6119490000000  0.4729090000000 1.0
C      1  0.5405610000000  0.3541460000000  0.5576640000000 1.0
C      1  0.4834700000000  0.4726120000000  0.4948550000000 1.0
C      1  0.4972590000000  0.4891980000000  0.4217350000000 1.0
C      1  0.5269570000000  0.5654000000000  0.4652850000000 1.0
C      1  0.4090230000000  0.5691490000000  0.4621660000000 1.0
C      1  0.5469940000000  0.4195970000000  0.5265900000000 1.0
C      1  0.4789100000000  0.6103540000000  0.5016930000000 1.0
C      1  0.5224650000000  0.4845250000000  0.5819000000000 1.0
C      1  0.4032530000000  0.5432180000000  0.4652340000000 1.0
C      1  0.5903180000000  0.5099860000000  0.4336970000000 1.0
C      1  0.5643300000000  0.5261390000000  0.5181490000000 1.0
C      1  0.5202890000000  0.4970390000000  0.4074750000000 1.0
C      1  0.4181810000000  0.5419100000000  0.5237820000000 1.0
C      1  0.5158910000000  0.4781910000000  0.5317330000000 1.0
C      1  0.4827410000000  0.5858920000000  0.4604750000000 1.0
C      1  0.4896520000000  0.5026860000000  0.4462240000000 1.0
C      1  0.4292350000000  0.5854910000000  0.4634670000000 1.0
C      1  0.4122350000000  0.4750130000000  0.4992520000000 1.0
C      1  0.5476780000000  0.4427160000000  0.5436750000000 1.0
C      1  0.4483730000000  0.5258920000000  0.4669010000000 1.0
C      1  0.4496790000000  0.4467220000000  0.5196580000000 1.0
C      1  0.4895240000000  0.5432870000000  0.5917090000000 1.0
C      1  0.5566500000000  0.5168190000000  0.5447350000000 1.0
C      1  0.4627010000000  0.4890400000000  0.4875870000000 1.0
C      1  0.5068090000000  0.5191490000000  0.4597750000000 1.0
C      1  0.5020740000000  0.5684860000000  0.4476530000000 1.0
C      1  0.4618000000000  0.4997780000000  0.4597250000000 1.0
C      1  0.5438460000000  0.5356750000000  0.5004090000000 1.0
C      1  0.4253000000000  0.4630170000000  0.5222120000000 1.0
C      1  0.4864210000000  0.4622910000000  0.4201870000000 1.0
C      1  0.5933490000000  0.4966700000000  0.4844180000000 1.0
C      1  0.5870250000000  0.5145460000000  0.5054880000000 1.0
C      1  0.4621570000000  0.5369300000000  0.5911170000000 1.0
C      1  0.5581870000000  0.4295650000000  0.5016490000000 1.0
C      1  0.4958550000000  0.5303190000000  0.4845850000000 1.0
C      1  0.5731630000000  0.4550890000000  0.5069110000000 1.0
C      1  0.4233560000000  0.4781790000000  0.5478730000000 1.0
C      1  0.4520400000000  0.5113290000000  0.4163750000000 1.0
C      1  0.5272970000000  0.3995980000000  0.5318690000000 1.0
C      1  0.4574330000000  0.5698790000000  0.5271930000000 1.0
C      1  0.5997950000000  0.5068930000000  0.4586770000000 1.0
C      1  0.5194570000000  0.5044490000000  0.6287320000000 1.0
C      1  0.5340340000000  0.3760540000000  0.5451510000000 1.0
C      1  0.5503430000000  0.4422580000000  0.4547410000000 1.0
END
