TITL C-599894-471-301 0.761580405335097 125000 -134.849091827705 0 0 24 (C1) n - 1
REM
REM in /home/nfs/bkarasulu/CARBON/AIRSS/Generating-Clusters/TERSOFF/Only-C1/FIRE-HFTN
REM
REM
REM
REM
REM
REM ./C.cell (11c1c37f851c82e70ff6c80c92926a4b)
REM AIRSS Version 0.9.1 bugfix July 2018 build 013d7b7c2542+ Fri, 06 Jul 2018 19:26:36 +0100
REM compiler GCC version 9.2.1 20190827 (Red Hat 9.2.1-1)
REM options -cpp -mtune=generic -march=x86-64 -g -O0 -fpre-include=/usr/include/finclude/math-vector-fortran.h
REM seed -1756309449 -769536189 1003821518 436740010 907008287 -758550973 -682314976 -220788184 -1222919657 -942285555 1435845851 773853786 393569952 1621075038 -1657662377 -1903720111 658566194 1303131822 -1054110811 422901194 -433226614 1819288381 633723666 -1769657584 -818186809 2089156004 903553126 -1579666538 -1711035812 650480171 1159791795 1942895062 1461436200
REM
CELL 1.54180   50.00000   50.00000   50.00000   90.00000   90.00000   90.00000
LATT -1
SFAC C  
C      1  0.5359320000000  0.4403630000000  0.4315030000000 1.0
C      1  0.5432240000000  0.3944230000000  0.4893740000000 1.0
C      1  0.5357770000000  0.4571740000000  0.3864460000000 1.0
C      1  0.5135030000000  0.4858190000000  0.5188260000000 1.0
C      1  0.4159530000000  0.5513530000000  0.6134130000000 1.0
C      1  0.5235390000000  0.4860020000000  0.4229460000000 1.0
C      1  0.5160530000000  0.5323640000000  0.5045730000000 1.0
C      1  0.5290760000000  0.4392220000000  0.4996700000000 1.0
C      1  0.5213080000000  0.4615350000000  0.5116690000000 1.0
C      1  0.4642270000000  0.5758570000000  0.4796120000000 1.0
C      1  0.3984130000000  0.5592280000000  0.6310190000000 1.0
C      1  0.4516160000000  0.5353420000000  0.5776160000000 1.0
C      1  0.4828310000000  0.5576090000000  0.4793580000000 1.0
C      1  0.5375650000000  0.4265970000000  0.4540810000000 1.0
C      1  0.5090780000000  0.5234280000000  0.4571660000000 1.0
C      1  0.5055390000000  0.5124130000000  0.5218740000000 1.0
C      1  0.4872140000000  0.5195030000000  0.5417080000000 1.0
C      1  0.5025750000000  0.5378790000000  0.4801630000000 1.0
C      1  0.5367280000000  0.4196690000000  0.4811730000000 1.0
C      1  0.5160070000000  0.5064030000000  0.4380870000000 1.0
C      1  0.5387960000000  0.5460190000000  0.5112950000000 1.0
C      1  0.4694440000000  0.5273400000000  0.5597170000000 1.0
C      1  0.5318140000000  0.4611130000000  0.4131970000000 1.0
C      1  0.4337870000000  0.5433460000000  0.5955120000000 1.0
END
