TITL C-599890-3321-440 151447.813656816 125000 -573.132001409866 0 0 96 (C1) n - 1
REM
REM in /home/nfs/bkarasulu/CARBON/AIRSS/Generating-Clusters/TERSOFF/Only-C1/FIRE-HFTN
REM
REM
REM
REM
REM
REM ./C.cell (11c1c37f851c82e70ff6c80c92926a4b)
REM AIRSS Version 0.9.1 bugfix July 2018 build 013d7b7c2542+ Fri, 06 Jul 2018 19:26:36 +0100
REM compiler GCC version 9.2.1 20190827 (Red Hat 9.2.1-1)
REM options -cpp -mtune=generic -march=x86-64 -g -O0 -fpre-include=/usr/include/finclude/math-vector-fortran.h
REM seed -137880712 -1112604457 776421858 -92717099 697411125 1993033356 597931457 216384021 -1117134581 -1667406156 799162681 -1313919636 -1607209832 715727187 -1314157769 -263811808 352577002 -565766417 -298414842 -1327728719 1933509711 -927279708 1784025659 -2030945393 1797442575 -1322770383 1823582201 648263111 361146542 2065738532 544997745 -859371453 1130546232
REM
CELL 1.54180   50.00000   50.00000   50.00000   90.00000   90.00000   90.00000
LATT -1
SFAC C  
C      1  0.5348350000000  0.5278820000000  0.4859510000000 1.0
C      1  0.4771090000000  0.5369700000000  0.5064370000000 1.0
C      1  0.5287880000000  0.4577230000000  0.5083380000000 1.0
C      1  0.4655570000000  0.4014130000000  0.4978760000000 1.0
C      1  0.4152340000000  0.5231220000000  0.4540410000000 1.0
C      1  0.4658590000000  0.4666480000000  0.4826090000000 1.0
C      1  0.5177730000000  0.5293310000000  0.4635150000000 1.0
C      1  0.4613830000000  0.5245700000000  0.4609380000000 1.0
C      1  0.4083010000000  0.4586550000000  0.4441460000000 1.0
C      1  0.4991860000000  0.5932530000000  0.4857180000000 1.0
C      1  0.4678080000000  0.5302360000000  0.5774820000000 1.0
C      1  0.5219840000000  0.4255500000000  0.5736040000000 1.0
C      1  0.4878760000000  0.5152850000000  0.5909210000000 1.0
C      1  0.5502290000000  0.4611630000000  0.5886300000000 1.0
C      1  0.6103880000000  0.5552800000000  0.5237970000000 1.0
C      1  0.5600260000000  0.6254120000000  0.3961350000000 1.0
C      1  0.5616510000000  0.4840190000000  0.4560590000000 1.0
C      1  0.5211030000000  0.4654430000000  0.5347730000000 1.0
C      1  0.5611990000000  0.5637400000000  0.4720630000000 1.0
C      1  0.6258910000000  0.5364550000000  0.5342150000000 1.0
C      1  0.5397220000000  0.4210750000000  0.4749390000000 1.0
C      1  0.5017370000000  0.5518240000000  0.4585200000000 1.0
C      1  0.5726850000000  0.5123140000000  0.4598500000000 1.0
C      1  0.4978620000000  0.4392500000000  0.4519440000000 1.0
C      1  0.4418790000000  0.4557540000000  0.4961320000000 1.0
C      1  0.5155120000000  0.4716110000000  0.4852740000000 1.0
C      1  0.4149290000000  0.4646790000000  0.4929590000000 1.0
C      1  0.6431920000000  0.4896590000000  0.5504060000000 1.0
C      1  0.4453810000000  0.4885100000000  0.4302860000000 1.0
C      1  0.4623890000000  0.4832560000000  0.6173230000000 1.0
C      1  0.4742880000000  0.4391910000000  0.5317740000000 1.0
C      1  0.4946270000000  0.4577310000000  0.5435590000000 1.0
C      1  0.4937940000000  0.5822970000000  0.5118220000000 1.0
C      1  0.5320770000000  0.4072310000000  0.4984840000000 1.0
C      1  0.4400220000000  0.5113670000000  0.4468740000000 1.0
C      1  0.5236670000000  0.4264900000000  0.4511320000000 1.0
C      1  0.5410460000000  0.5802060000000  0.4594240000000 1.0
C      1  0.5383860000000  0.4305900000000  0.4271120000000 1.0
C      1  0.5555190000000  0.5168530000000  0.4977850000000 1.0
C      1  0.4802220000000  0.4438310000000  0.4298740000000 1.0
C      1  0.4594830000000  0.4843190000000  0.5274670000000 1.0
C      1  0.5730410000000  0.4615700000000  0.4727800000000 1.0
C      1  0.4849060000000  0.4884570000000  0.6014360000000 1.0
C      1  0.4845040000000  0.4658890000000  0.4124580000000 1.0
C      1  0.5642080000000  0.5679960000000  0.5006200000000 1.0
C      1  0.5243730000000  0.4495350000000  0.5887090000000 1.0
C      1  0.5135550000000  0.5268470000000  0.5908860000000 1.0
C      1  0.4006110000000  0.4582780000000  0.4698020000000 1.0
C      1  0.4470810000000  0.4160540000000  0.4515540000000 1.0
C      1  0.4101750000000  0.5414950000000  0.4732710000000 1.0
C      1  0.5131800000000  0.5767450000000  0.4665910000000 1.0
C      1  0.5410330000000  0.5684470000000  0.5170980000000 1.0
C      1  0.5262750000000  0.4111080000000  0.5512320000000 1.0
C      1  0.5311960000000  0.4836050000000  0.4622330000000 1.0
C      1  0.4635560000000  0.5629500000000  0.4307000000000 1.0
C      1  0.5361060000000  0.5238240000000  0.5767740000000 1.0
C      1  0.5444160000000  0.5018390000000  0.5613650000000 1.0
C      1  0.4539490000000  0.4026670000000  0.4737590000000 1.0
C      1  0.4512350000000  0.4555230000000  0.5235060000000 1.0
C      1  0.5298050000000  0.4049210000000  0.5252500000000 1.0
C      1  0.4343560000000  0.4618350000000  0.4343040000000 1.0
C      1  0.4523050000000  0.4389010000000  0.4357620000000 1.0
C      1  0.4752640000000  0.5469270000000  0.4494980000000 1.0
C      1  0.4647550000000  0.5190570000000  0.4885580000000 1.0
C      1  0.5596250000000  0.4821640000000  0.5746550000000 1.0
C      1  0.4677100000000  0.5796760000000  0.5238640000000 1.0
C      1  0.4915950000000  0.4559970000000  0.4741480000000 1.0
C      1  0.5011020000000  0.4937760000000  0.5011130000000 1.0
C      1  0.4707140000000  0.4922520000000  0.4993300000000 1.0
C      1  0.6362200000000  0.5136630000000  0.5429880000000 1.0
C      1  0.5895670000000  0.5669880000000  0.5122650000000 1.0
C      1  0.5125890000000  0.5102510000000  0.5222360000000 1.0
C      1  0.4491780000000  0.5612840000000  0.5361770000000 1.0
C      1  0.5030870000000  0.4667880000000  0.5968770000000 1.0
C      1  0.5482620000000  0.5986220000000  0.4397550000000 1.0
C      1  0.4782450000000  0.4815370000000  0.5488990000000 1.0
C      1  0.5276230000000  0.4936870000000  0.5401040000000 1.0
C      1  0.4749070000000  0.4138200000000  0.5197950000000 1.0
C      1  0.3977820000000  0.5380030000000  0.5614900000000 1.0
C      1  0.5136470000000  0.5629130000000  0.5208160000000 1.0
C      1  0.4575500000000  0.5480290000000  0.5601460000000 1.0
C      1  0.4684140000000  0.4878490000000  0.4134550000000 1.0
C      1  0.5637940000000  0.4364700000000  0.4767630000000 1.0
C      1  0.4047000000000  0.5062230000000  0.5258350000000 1.0
C      1  0.4180960000000  0.5534630000000  0.4960390000000 1.0
C      1  0.4405780000000  0.4783660000000  0.6307210000000 1.0
C      1  0.4051000000000  0.4842690000000  0.5107120000000 1.0
C      1  0.5722760000000  0.5395720000000  0.4600470000000 1.0
C      1  0.4093500000000  0.5314310000000  0.5375750000000 1.0
C      1  0.5635870000000  0.4735980000000  0.4275460000000 1.0
C      1  0.4254210000000  0.5505910000000  0.5232390000000 1.0
C      1  0.5536780000000  0.4505730000000  0.4174590000000 1.0
C      1  0.5021980000000  0.5367610000000  0.5207450000000 1.0
C      1  0.4912740000000  0.6186140000000  0.4791710000000 1.0
C      1  0.5173130000000  0.5051460000000  0.4493800000000 1.0
C      1  0.5543360000000  0.6129660000000  0.4183240000000 1.0
END
