TITL C-599896-8500-177 95.3364704766596 125000 -834.55365142833 0 0 137 (C1) n - 1
REM
REM in /home/nfs/bkarasulu/CARBON/AIRSS/Generating-Clusters/TERSOFF/Only-C1/FIRE-HFTN
REM
REM
REM
REM
REM
REM ./C.cell (11c1c37f851c82e70ff6c80c92926a4b)
REM AIRSS Version 0.9.1 bugfix July 2018 build 013d7b7c2542+ Fri, 06 Jul 2018 19:26:36 +0100
REM compiler GCC version 9.2.1 20190827 (Red Hat 9.2.1-1)
REM options -cpp -mtune=generic -march=x86-64 -g -O0 -fpre-include=/usr/include/finclude/math-vector-fortran.h
REM seed -1059379839 1030515548 -734603829 -1477197314 -1222072146 -1425794302 -252011226 -1101581137 825425018 1093941017 579485508 -1091092054 -1132345887 240409155 -510093783 -349674741 -709403824 1128747274 1565085662 2133750904 -2578596 168189493 920129906 -1519096441 452627409 -1904473630 166586310 -436517980 -191905132 680695598 598354229 -262187433 -971635423
REM
CELL 1.54180   50.00000   50.00000   50.00000   90.00000   90.00000   90.00000
LATT -1
SFAC C  
C      1  0.4611120000000  0.4701940000000  0.4100170000000 1.0
C      1  0.4711090000000  0.5094100000000  0.5735750000000 1.0
C      1  0.4103870000000  0.4865620000000  0.5322680000000 1.0
C      1  0.5857370000000  0.4272710000000  0.5202590000000 1.0
C      1  0.4219550000000  0.5575170000000  0.5332020000000 1.0
C      1  0.5132040000000  0.5857850000000  0.4343580000000 1.0
C      1  0.4633080000000  0.4568390000000  0.5027380000000 1.0
C      1  0.5314050000000  0.5095930000000  0.4168460000000 1.0
C      1  0.4473680000000  0.4357320000000  0.5165940000000 1.0
C      1  0.5614360000000  0.5204650000000  0.5352170000000 1.0
C      1  0.5906710000000  0.4395350000000  0.4436720000000 1.0
C      1  0.5265960000000  0.6023600000000  0.4542660000000 1.0
C      1  0.5028140000000  0.5671930000000  0.5864580000000 1.0
C      1  0.4415150000000  0.5134020000000  0.4919860000000 1.0
C      1  0.5095120000000  0.4890030000000  0.4108750000000 1.0
C      1  0.5412870000000  0.3980590000000  0.4778120000000 1.0
C      1  0.5146320000000  0.5210820000000  0.5943350000000 1.0
C      1  0.5329230000000  0.4666290000000  0.5882350000000 1.0
C      1  0.5259080000000  0.6114490000000  0.5272770000000 1.0
C      1  0.5039430000000  0.5109430000000  0.5011480000000 1.0
C      1  0.4952960000000  0.4154770000000  0.5731760000000 1.0
C      1  0.4764250000000  0.5922260000000  0.4844090000000 1.0
C      1  0.5574000000000  0.5616220000000  0.4376470000000 1.0
C      1  0.4823740000000  0.6151760000000  0.5002470000000 1.0
C      1  0.4273540000000  0.4480840000000  0.4485680000000 1.0
C      1  0.4802100000000  0.4934140000000  0.4085040000000 1.0
C      1  0.5334520000000  0.5203040000000  0.5392630000000 1.0
C      1  0.4896750000000  0.5677850000000  0.4777420000000 1.0
C      1  0.4821670000000  0.4229300000000  0.4073350000000 1.0
C      1  0.5603210000000  0.4235960000000  0.5375530000000 1.0
C      1  0.5390400000000  0.4442160000000  0.5256080000000 1.0
C      1  0.4494030000000  0.5348000000000  0.4111840000000 1.0
C      1  0.4631040000000  0.4105690000000  0.5204330000000 1.0
C      1  0.5218680000000  0.4727000000000  0.5612560000000 1.0
C      1  0.5282010000000  0.4398460000000  0.4972460000000 1.0
C      1  0.4498170000000  0.5936690000000  0.4724480000000 1.0
C      1  0.4948350000000  0.6376430000000  0.4912800000000 1.0
C      1  0.4709970000000  0.5598500000000  0.5523940000000 1.0
C      1  0.5131600000000  0.5778810000000  0.5614280000000 1.0
C      1  0.5166250000000  0.4632940000000  0.4217930000000 1.0
C      1  0.5167530000000  0.5692130000000  0.4858990000000 1.0
C      1  0.5194230000000  0.5433190000000  0.5273670000000 1.0
C      1  0.4442120000000  0.4328720000000  0.5674740000000 1.0
C      1  0.5552940000000  0.4374130000000  0.4082780000000 1.0
C      1  0.5181390000000  0.4486400000000  0.5465950000000 1.0
C      1  0.4597200000000  0.5119190000000  0.5132720000000 1.0
C      1  0.4408450000000  0.4491160000000  0.5438970000000 1.0
C      1  0.5622230000000  0.4732640000000  0.4974640000000 1.0
C      1  0.4340260000000  0.4773530000000  0.5468450000000 1.0
C      1  0.5191580000000  0.4781610000000  0.6109340000000 1.0
C      1  0.4364620000000  0.5481660000000  0.4310160000000 1.0
C      1  0.5606950000000  0.5882450000000  0.5458440000000 1.0
C      1  0.5239440000000  0.5053870000000  0.4818170000000 1.0
C      1  0.5925930000000  0.5005580000000  0.4701900000000 1.0
C      1  0.3829260000000  0.5016740000000  0.4808940000000 1.0
C      1  0.5198440000000  0.5482500000000  0.5988690000000 1.0
C      1  0.4753310000000  0.5481560000000  0.4607820000000 1.0
C      1  0.4723980000000  0.5197630000000  0.4174640000000 1.0
C      1  0.4459200000000  0.5480460000000  0.4578990000000 1.0
C      1  0.5661810000000  0.5939660000000  0.5178380000000 1.0
C      1  0.4392190000000  0.4650520000000  0.4283520000000 1.0
C      1  0.5196710000000  0.4245790000000  0.5633350000000 1.0
C      1  0.4785410000000  0.5152820000000  0.6195580000000 1.0
C      1  0.5185040000000  0.4997980000000  0.5529220000000 1.0
C      1  0.4902390000000  0.4085450000000  0.4808630000000 1.0
C      1  0.5202490000000  0.4790930000000  0.4718620000000 1.0
C      1  0.5291520000000  0.4676670000000  0.4473980000000 1.0
C      1  0.5783460000000  0.4630820000000  0.5709510000000 1.0
C      1  0.5428210000000  0.6048770000000  0.5040940000000 1.0
C      1  0.5272400000000  0.4408420000000  0.4068390000000 1.0
C      1  0.3879200000000  0.4794030000000  0.4663350000000 1.0
C      1  0.4321650000000  0.5883520000000  0.4970380000000 1.0
C      1  0.5755630000000  0.5427990000000  0.4450360000000 1.0
C      1  0.4583700000000  0.5955480000000  0.4438260000000 1.0
C      1  0.4467990000000  0.5942900000000  0.5233300000000 1.0
C      1  0.4434370000000  0.4274760000000  0.4656660000000 1.0
C      1  0.4838070000000  0.4974290000000  0.5138280000000 1.0
C      1  0.4687310000000  0.4457990000000  0.3974810000000 1.0
C      1  0.5308740000000  0.5937380000000  0.4809650000000 1.0
C      1  0.5089130000000  0.4618520000000  0.4925830000000 1.0
C      1  0.4070510000000  0.5443670000000  0.4896580000000 1.0
C      1  0.5679090000000  0.4018980000000  0.4814860000000 1.0
C      1  0.5244030000000  0.5375130000000  0.4150680000000 1.0
C      1  0.6004370000000  0.4521690000000  0.5275390000000 1.0
C      1  0.4728900000000  0.4767840000000  0.4606010000000 1.0
C      1  0.4030250000000  0.4380110000000  0.4873800000000 1.0
C      1  0.5784050000000  0.5779920000000  0.5644410000000 1.0
C      1  0.4313460000000  0.5354430000000  0.4780320000000 1.0
C      1  0.5963810000000  0.4421130000000  0.4711860000000 1.0
C      1  0.5574080000000  0.5004820000000  0.4314270000000 1.0
C      1  0.4022810000000  0.4551060000000  0.4637800000000 1.0
C      1  0.5815140000000  0.4675440000000  0.5432830000000 1.0
C      1  0.3919230000000  0.5213300000000  0.4995440000000 1.0
C      1  0.4125060000000  0.5328310000000  0.5433810000000 1.0
C      1  0.6142430000000  0.4665740000000  0.5070450000000 1.0
C      1  0.5089850000000  0.4212030000000  0.3990660000000 1.0
C      1  0.5495940000000  0.4235350000000  0.5668320000000 1.0
C      1  0.4226830000000  0.4284950000000  0.5838650000000 1.0
C      1  0.5776500000000  0.5142940000000  0.4474280000000 1.0
C      1  0.5583780000000  0.4697310000000  0.5254750000000 1.0
C      1  0.4259720000000  0.5208160000000  0.5651470000000 1.0
C      1  0.5287590000000  0.5489710000000  0.5004270000000 1.0
C      1  0.5863870000000  0.4216540000000  0.4910030000000 1.0
C      1  0.4998480000000  0.5599730000000  0.5414850000000 1.0
C      1  0.4700830000000  0.4162120000000  0.4602630000000 1.0
C      1  0.4661780000000  0.6146470000000  0.5233440000000 1.0
C      1  0.4757930000000  0.4125550000000  0.4327490000000 1.0
C      1  0.5930460000000  0.5161830000000  0.4942930000000 1.0
C      1  0.4691650000000  0.4212740000000  0.5737050000000 1.0
C      1  0.4845020000000  0.5004140000000  0.4567180000000 1.0
C      1  0.5304810000000  0.5626370000000  0.4269600000000 1.0
C      1  0.4292260000000  0.4274660000000  0.4925620000000 1.0
C      1  0.5937230000000  0.5666000000000  0.5821800000000 1.0
C      1  0.4836270000000  0.3682730000000  0.5081280000000 1.0
C      1  0.4871310000000  0.4692420000000  0.5096480000000 1.0
C      1  0.4838780000000  0.5909970000000  0.4322010000000 1.0
C      1  0.4535680000000  0.4692530000000  0.4792860000000 1.0
C      1  0.5000390000000  0.5111320000000  0.5705490000000 1.0
C      1  0.4137580000000  0.5665990000000  0.5061700000000 1.0
C      1  0.5521070000000  0.4522890000000  0.4828200000000 1.0
C      1  0.5188630000000  0.4144550000000  0.4841810000000 1.0
C      1  0.5821030000000  0.5217050000000  0.5181520000000 1.0
C      1  0.4790830000000  0.3947760000000  0.5035830000000 1.0
C      1  0.5562470000000  0.4488090000000  0.5823850000000 1.0
C      1  0.4458960000000  0.4996810000000  0.5630780000000 1.0
C      1  0.5704300000000  0.4507650000000  0.4280510000000 1.0
C      1  0.4471060000000  0.5705550000000  0.5404440000000 1.0
C      1  0.4676850000000  0.5300900000000  0.5957120000000 1.0
C      1  0.6044570000000  0.4688780000000  0.4800860000000 1.0
C      1  0.5401700000000  0.5282420000000  0.4842190000000 1.0
C      1  0.4005930000000  0.5129210000000  0.5259160000000 1.0
C      1  0.5325040000000  0.5953260000000  0.5507960000000 1.0
C      1  0.4829430000000  0.5254510000000  0.4443570000000 1.0
C      1  0.4337680000000  0.4883370000000  0.4826310000000 1.0
C      1  0.5563140000000  0.4730200000000  0.4387800000000 1.0
C      1  0.4750690000000  0.5560470000000  0.5825520000000 1.0
C      1  0.5052890000000  0.5032520000000  0.6153730000000 1.0
END
