TITL C-599896-8500-1433 0.00194589454976563 125000 -311.528688955086 0 0 52 (C1) n - 1
REM
REM in /home/nfs/bkarasulu/CARBON/AIRSS/Generating-Clusters/TERSOFF/Only-C1/FIRE-HFTN
REM
REM
REM
REM
REM
REM ./C.cell (11c1c37f851c82e70ff6c80c92926a4b)
REM AIRSS Version 0.9.1 bugfix July 2018 build 013d7b7c2542+ Fri, 06 Jul 2018 19:26:36 +0100
REM compiler GCC version 9.2.1 20190827 (Red Hat 9.2.1-1)
REM options -cpp -mtune=generic -march=x86-64 -g -O0 -fpre-include=/usr/include/finclude/math-vector-fortran.h
REM seed 1913013857 1788884612 -1411263649 -91306552 -976506512 1285437072 -2109400135 727558669 424318549 1442076268 1815142187 651215942 26251030 424619076 436748365 -521708463 -1427696845 57997267 -953282967 2087855486 1681537564 -1122121397 515614655 870673023 -1031853501 -1786260412 -561528953 231019859 1448917321 -808350030 746442821 -500903680 -1471204568
REM
CELL 1.54180   50.00000   50.00000   50.00000   90.00000   90.00000   90.00000
LATT -1
SFAC C  
C      1  0.4677090000000  0.4910380000000  0.4251750000000 1.0
C      1  0.5526560000000  0.5854990000000  0.5000920000000 1.0
C      1  0.5256690000000  0.4325870000000  0.4822140000000 1.0
C      1  0.4606660000000  0.4648650000000  0.5490060000000 1.0
C      1  0.5896240000000  0.4914650000000  0.5290480000000 1.0
C      1  0.4540600000000  0.4703910000000  0.4406240000000 1.0
C      1  0.4662040000000  0.4478380000000  0.4827760000000 1.0
C      1  0.5200940000000  0.4408770000000  0.4548320000000 1.0
C      1  0.5157270000000  0.4100890000000  0.4965300000000 1.0
C      1  0.4327770000000  0.4997440000000  0.6066500000000 1.0
C      1  0.5154340000000  0.5517490000000  0.4820930000000 1.0
C      1  0.6016580000000  0.5086560000000  0.5454030000000 1.0
C      1  0.5287860000000  0.4911850000000  0.4506090000000 1.0
C      1  0.5726850000000  0.5882890000000  0.5173230000000 1.0
C      1  0.5166830000000  0.5374580000000  0.4572320000000 1.0
C      1  0.4977890000000  0.5423600000000  0.5032250000000 1.0
C      1  0.4737330000000  0.4459070000000  0.5323050000000 1.0
C      1  0.4412310000000  0.4950070000000  0.5824580000000 1.0
C      1  0.4688040000000  0.4500500000000  0.4545240000000 1.0
C      1  0.5400440000000  0.5185190000000  0.4523070000000 1.0
C      1  0.5759770000000  0.5054140000000  0.4850750000000 1.0
C      1  0.4847260000000  0.4199580000000  0.5363380000000 1.0
C      1  0.4127640000000  0.5439290000000  0.5499320000000 1.0
C      1  0.4932570000000  0.4387160000000  0.4451130000000 1.0
C      1  0.4419040000000  0.5154590000000  0.4559650000000 1.0
C      1  0.4280880000000  0.5312630000000  0.5305410000000 1.0
C      1  0.4483480000000  0.5117380000000  0.5367140000000 1.0
C      1  0.6067770000000  0.5338620000000  0.5522270000000 1.0
C      1  0.5739450000000  0.4869910000000  0.5063050000000 1.0
C      1  0.4895450000000  0.5603650000000  0.5223100000000 1.0
C      1  0.3987010000000  0.5553170000000  0.5686850000000 1.0
C      1  0.4498880000000  0.4905880000000  0.5563020000000 1.0
C      1  0.4805940000000  0.4548760000000  0.5061660000000 1.0
C      1  0.5011310000000  0.4064810000000  0.5191870000000 1.0
C      1  0.5023410000000  0.4945040000000  0.4915910000000 1.0
C      1  0.5296680000000  0.4554420000000  0.4993720000000 1.0
C      1  0.5344190000000  0.4640870000000  0.4455330000000 1.0
C      1  0.4333830000000  0.4870780000000  0.4531900000000 1.0
C      1  0.5051510000000  0.4693090000000  0.5032570000000 1.0
C      1  0.5648990000000  0.5197160000000  0.4653210000000 1.0
C      1  0.5905150000000  0.5794370000000  0.5349390000000 1.0
C      1  0.4676750000000  0.5165400000000  0.4403540000000 1.0
C      1  0.4314250000000  0.5318930000000  0.4765270000000 1.0
C      1  0.4493560000000  0.4890550000000  0.4969050000000 1.0
C      1  0.5033220000000  0.4958760000000  0.4635480000000 1.0
C      1  0.4631110000000  0.5062140000000  0.5133640000000 1.0
C      1  0.4929020000000  0.5208360000000  0.4523140000000 1.0
C      1  0.6028170000000  0.5598390000000  0.5480490000000 1.0
C      1  0.5331290000000  0.5727520000000  0.4873910000000 1.0
C      1  0.5544370000000  0.4667640000000  0.5056030000000 1.0
C      1  0.4886030000000  0.5152430000000  0.5050250000000 1.0
C      1  0.4251700000000  0.5368830000000  0.5024300000000 1.0
END
