TITL C-599897-7526-189 -16.4503246122829 125000 -801.779545064953 0 0 132 (C1) n - 1
REM
REM in /home/nfs/bkarasulu/CARBON/AIRSS/Generating-Clusters/TERSOFF/Only-C1/FIRE-HFTN
REM
REM
REM
REM
REM
REM ./C.cell (11c1c37f851c82e70ff6c80c92926a4b)
REM AIRSS Version 0.9.1 bugfix July 2018 build 013d7b7c2542+ Fri, 06 Jul 2018 19:26:36 +0100
REM compiler GCC version 9.2.1 20190827 (Red Hat 9.2.1-1)
REM options -cpp -mtune=generic -march=x86-64 -g -O0 -fpre-include=/usr/include/finclude/math-vector-fortran.h
REM seed -1065188171 -1616615775 2013733520 1339312895 -654337461 -1320536991 1693982513 -1324023522 -667919743 -173788923 -881980396 892630860 512185911 -147187536 -176631057 -299888831 1676865267 -771013845 -758198018 -494543837 400832273 692305616 984522660 -347730518 955917644 -1606238079 681959488 -554635367 1762170185 1893056346 -832101462 1878399995 -359002750
REM
CELL 1.54180   50.00000   50.00000   50.00000   90.00000   90.00000   90.00000
LATT -1
SFAC C  
C      1  0.4420030000000  0.4178520000000  0.4567840000000 1.0
C      1  0.5821860000000  0.4239050000000  0.4990210000000 1.0
C      1  0.5828010000000  0.4530450000000  0.4426240000000 1.0
C      1  0.5042990000000  0.4785680000000  0.4217230000000 1.0
C      1  0.5278030000000  0.4716090000000  0.5213540000000 1.0
C      1  0.5248560000000  0.5221500000000  0.4144730000000 1.0
C      1  0.5730840000000  0.5638010000000  0.5278320000000 1.0
C      1  0.5559400000000  0.5029820000000  0.5777110000000 1.0
C      1  0.5240340000000  0.5400160000000  0.5108010000000 1.0
C      1  0.4343110000000  0.3996280000000  0.5073960000000 1.0
C      1  0.5465910000000  0.5153470000000  0.4323560000000 1.0
C      1  0.4158270000000  0.5108050000000  0.5393330000000 1.0
C      1  0.5530380000000  0.4025480000000  0.4692080000000 1.0
C      1  0.4992930000000  0.4350930000000  0.5435830000000 1.0
C      1  0.5979500000000  0.4717880000000  0.4591300000000 1.0
C      1  0.6616660000000  0.5352500000000  0.4711300000000 1.0
C      1  0.4550070000000  0.5488830000000  0.4876280000000 1.0
C      1  0.5364820000000  0.4976290000000  0.5297260000000 1.0
C      1  0.4644590000000  0.5705180000000  0.4466510000000 1.0
C      1  0.4652720000000  0.5674770000000  0.4186640000000 1.0
C      1  0.5533160000000  0.5745540000000  0.5454670000000 1.0
C      1  0.6000400000000  0.4998930000000  0.4600000000000 1.0
C      1  0.4109220000000  0.4883450000000  0.4680930000000 1.0
C      1  0.5518180000000  0.5279920000000  0.4575030000000 1.0
C      1  0.5502200000000  0.5132730000000  0.4824180000000 1.0
C      1  0.4777840000000  0.5435710000000  0.4082270000000 1.0
C      1  0.4607750000000  0.5210270000000  0.5731290000000 1.0
C      1  0.4568300000000  0.5231210000000  0.4016790000000 1.0
C      1  0.5176590000000  0.4766010000000  0.5688560000000 1.0
C      1  0.4897750000000  0.4154410000000  0.4281290000000 1.0
C      1  0.5062630000000  0.5431080000000  0.4182410000000 1.0
C      1  0.4807800000000  0.4373540000000  0.4702850000000 1.0
C      1  0.3947310000000  0.4958540000000  0.4908060000000 1.0
C      1  0.5613370000000  0.4565930000000  0.5743170000000 1.0
C      1  0.4925570000000  0.5019340000000  0.5137810000000 1.0
C      1  0.5329240000000  0.5003830000000  0.5577940000000 1.0
C      1  0.5370230000000  0.4176550000000  0.4876570000000 1.0
C      1  0.3980120000000  0.5132880000000  0.5136480000000 1.0
C      1  0.5363530000000  0.4645250000000  0.5884030000000 1.0
C      1  0.4557080000000  0.4987170000000  0.5893090000000 1.0
C      1  0.5751180000000  0.4821310000000  0.5671460000000 1.0
C      1  0.4260750000000  0.4644840000000  0.4730650000000 1.0
C      1  0.4379460000000  0.5316870000000  0.5016610000000 1.0
C      1  0.4613210000000  0.4386690000000  0.4919480000000 1.0
C      1  0.5247300000000  0.4996900000000  0.6199000000000 1.0
C      1  0.4119160000000  0.5249000000000  0.4266460000000 1.0
C      1  0.5615380000000  0.4336010000000  0.5583790000000 1.0
C      1  0.3936490000000  0.5437410000000  0.4366160000000 1.0
C      1  0.5027870000000  0.4610620000000  0.5325160000000 1.0
C      1  0.5554490000000  0.4885590000000  0.4279280000000 1.0
C      1  0.5371770000000  0.4631320000000  0.4967450000000 1.0
C      1  0.4454360000000  0.4627710000000  0.4952170000000 1.0
C      1  0.4738020000000  0.4947100000000  0.6105470000000 1.0
C      1  0.5891260000000  0.4260270000000  0.4484250000000 1.0
C      1  0.4261640000000  0.6024870000000  0.5436400000000 1.0
C      1  0.4704990000000  0.4204650000000  0.4484260000000 1.0
C      1  0.4643150000000  0.5228340000000  0.5439100000000 1.0
C      1  0.4909350000000  0.4578100000000  0.4072560000000 1.0
C      1  0.4682450000000  0.5426540000000  0.4620280000000 1.0
C      1  0.5015260000000  0.4762810000000  0.4499800000000 1.0
C      1  0.6091650000000  0.5226550000000  0.4743500000000 1.0
C      1  0.4743620000000  0.4276360000000  0.5543110000000 1.0
C      1  0.4943450000000  0.6061350000000  0.5165250000000 1.0
C      1  0.4569100000000  0.4953320000000  0.4110810000000 1.0
C      1  0.4444200000000  0.5105220000000  0.5241280000000 1.0
C      1  0.4393970000000  0.5788070000000  0.5455040000000 1.0
C      1  0.5467520000000  0.4214700000000  0.5378030000000 1.0
C      1  0.4368760000000  0.4003560000000  0.5340490000000 1.0
C      1  0.4602650000000  0.5701920000000  0.5280330000000 1.0
C      1  0.4531280000000  0.4812510000000  0.5161300000000 1.0
C      1  0.6363440000000  0.5292280000000  0.4724120000000 1.0
C      1  0.4811190000000  0.4785930000000  0.5252550000000 1.0
C      1  0.5977280000000  0.4474830000000  0.5045780000000 1.0
C      1  0.5923910000000  0.5140050000000  0.5341310000000 1.0
C      1  0.6094990000000  0.4592310000000  0.4818340000000 1.0
C      1  0.5400860000000  0.5169480000000  0.5090810000000 1.0
C      1  0.3883450000000  0.5567900000000  0.4593190000000 1.0
C      1  0.4868050000000  0.5926620000000  0.4894590000000 1.0
C      1  0.5774650000000  0.5621180000000  0.4794690000000 1.0
C      1  0.4273460000000  0.4594090000000  0.5975550000000 1.0
C      1  0.4170160000000  0.5446870000000  0.3815820000000 1.0
C      1  0.4664260000000  0.5129440000000  0.4544880000000 1.0
C      1  0.5195530000000  0.4148570000000  0.5431740000000 1.0
C      1  0.5743830000000  0.5789460000000  0.5024720000000 1.0
C      1  0.4332310000000  0.4821420000000  0.5825070000000 1.0
C      1  0.4762060000000  0.5490180000000  0.5392290000000 1.0
C      1  0.4890390000000  0.4977980000000  0.4630940000000 1.0
C      1  0.5067140000000  0.4345270000000  0.4148930000000 1.0
C      1  0.4095040000000  0.5376560000000  0.5013360000000 1.0
C      1  0.4203160000000  0.5031820000000  0.4444050000000 1.0
C      1  0.5042200000000  0.4518260000000  0.4654520000000 1.0
C      1  0.5391860000000  0.5982410000000  0.5351550000000 1.0
C      1  0.5157660000000  0.5801870000000  0.4825790000000 1.0
C      1  0.4744910000000  0.5943210000000  0.4609740000000 1.0
C      1  0.4169450000000  0.4889880000000  0.5600960000000 1.0
C      1  0.4981490000000  0.5042130000000  0.4881310000000 1.0
C      1  0.5964600000000  0.4644810000000  0.5271980000000 1.0
C      1  0.4445600000000  0.4146530000000  0.4864770000000 1.0
C      1  0.5421530000000  0.5547980000000  0.5901330000000 1.0
C      1  0.4256800000000  0.4419220000000  0.4546430000000 1.0
C      1  0.5075260000000  0.5765410000000  0.5610730000000 1.0
C      1  0.4162790000000  0.5374530000000  0.5567070000000 1.0
C      1  0.4978960000000  0.4987170000000  0.6215920000000 1.0
C      1  0.4597870000000  0.5504310000000  0.5803370000000 1.0
C      1  0.5100300000000  0.5525160000000  0.4905840000000 1.0
C      1  0.5357130000000  0.4417500000000  0.4208240000000 1.0
C      1  0.4981350000000  0.5440680000000  0.4658450000000 1.0
C      1  0.5117140000000  0.5565710000000  0.4428500000000 1.0
C      1  0.4522080000000  0.4129830000000  0.5519410000000 1.0
C      1  0.5899120000000  0.4869960000000  0.5432510000000 1.0
C      1  0.5874640000000  0.5381940000000  0.5201180000000 1.0
C      1  0.5134330000000  0.4987670000000  0.4048830000000 1.0
C      1  0.4481240000000  0.4988270000000  0.4385390000000 1.0
C      1  0.4658950000000  0.4702100000000  0.4007250000000 1.0
C      1  0.5579840000000  0.4601510000000  0.4293910000000 1.0
C      1  0.5102200000000  0.5973110000000  0.5389360000000 1.0
C      1  0.4643750000000  0.5722840000000  0.5009370000000 1.0
C      1  0.4200310000000  0.4141950000000  0.6233150000000 1.0
C      1  0.5442280000000  0.4900390000000  0.6021220000000 1.0
C      1  0.4282320000000  0.5315490000000  0.4029760000000 1.0
C      1  0.5347510000000  0.5659980000000  0.5664390000000 1.0
C      1  0.4233560000000  0.4368870000000  0.6109210000000 1.0
C      1  0.5319230000000  0.5733930000000  0.4573130000000 1.0
C      1  0.5557040000000  0.4196620000000  0.5112100000000 1.0
C      1  0.5926990000000  0.5391930000000  0.4906510000000 1.0
C      1  0.5130250000000  0.3886030000000  0.5477400000000 1.0
C      1  0.3955750000000  0.5552160000000  0.4849980000000 1.0
C      1  0.4841480000000  0.5605100000000  0.5651710000000 1.0
C      1  0.5561640000000  0.5569290000000  0.4612820000000 1.0
C      1  0.5804520000000  0.4120280000000  0.4712540000000 1.0
C      1  0.5266150000000  0.4432510000000  0.4803520000000 1.0
C      1  0.4341780000000  0.5587500000000  0.5658520000000 1.0
END
