TITL C-599891-72-531 -462.590222241275 125000 -1119.20009924566 0 0 182 (C1) n - 1
REM
REM in /home/nfs/bkarasulu/CARBON/AIRSS/Generating-Clusters/TERSOFF/Only-C1/FIRE-HFTN
REM
REM
REM
REM
REM
REM ./C.cell (11c1c37f851c82e70ff6c80c92926a4b)
REM AIRSS Version 0.9.1 bugfix July 2018 build 013d7b7c2542+ Fri, 06 Jul 2018 19:26:36 +0100
REM compiler GCC version 9.2.1 20190827 (Red Hat 9.2.1-1)
REM options -cpp -mtune=generic -march=x86-64 -g -O0 -fpre-include=/usr/include/finclude/math-vector-fortran.h
REM seed 1063237260 1541607719 -152626491 694801128 1355047600 63101718 -1095542899 1631307373 -645132981 -1474299695 1187390630 -1002628907 -412015085 1136737312 -1970369163 1479871260 1425531550 -461885802 1175922588 144262833 -1260391961 -1132635929 -1458817204 -977391737 2094612159 -1252704858 -383937528 -960552935 661730 859426493 -52888973 316954117 -2141690289
REM
CELL 1.54180   50.00000   50.00000   50.00000   90.00000   90.00000   90.00000
LATT -1
SFAC C  
C      1  0.4252910000000  0.4467190000000  0.4169890000000 1.0
C      1  0.4145400000000  0.5370040000000  0.4238320000000 1.0
C      1  0.4496280000000  0.5682470000000  0.4690000000000 1.0
C      1  0.5135180000000  0.5038570000000  0.4121310000000 1.0
C      1  0.4021480000000  0.5542950000000  0.5313010000000 1.0
C      1  0.5531120000000  0.4325570000000  0.6012510000000 1.0
C      1  0.5871420000000  0.4916330000000  0.4790170000000 1.0
C      1  0.5010490000000  0.6478830000000  0.4564090000000 1.0
C      1  0.4416580000000  0.6238790000000  0.3570830000000 1.0
C      1  0.5671850000000  0.4833330000000  0.4354630000000 1.0
C      1  0.4766920000000  0.4292450000000  0.4584370000000 1.0
C      1  0.5997160000000  0.5824580000000  0.4279840000000 1.0
C      1  0.4874210000000  0.3919990000000  0.5625290000000 1.0
C      1  0.4610280000000  0.5350440000000  0.5250030000000 1.0
C      1  0.4890810000000  0.4692700000000  0.5726830000000 1.0
C      1  0.5414720000000  0.5975550000000  0.5258230000000 1.0
C      1  0.5140030000000  0.4340980000000  0.5421190000000 1.0
C      1  0.4278420000000  0.4361320000000  0.4689070000000 1.0
C      1  0.5074830000000  0.3926470000000  0.5176350000000 1.0
C      1  0.5422890000000  0.3997660000000  0.4481740000000 1.0
C      1  0.4866400000000  0.3768120000000  0.5030950000000 1.0
C      1  0.4467410000000  0.4774340000000  0.5156350000000 1.0
C      1  0.4016660000000  0.5428960000000  0.5039870000000 1.0
C      1  0.5304120000000  0.5156800000000  0.4338190000000 1.0
C      1  0.5957680000000  0.4507260000000  0.5132950000000 1.0
C      1  0.4397330000000  0.6406620000000  0.3372260000000 1.0
C      1  0.4132580000000  0.4872070000000  0.5880430000000 1.0
C      1  0.5052840000000  0.6109600000000  0.5617720000000 1.0
C      1  0.4794970000000  0.5260750000000  0.4435940000000 1.0
C      1  0.5899560000000  0.5342330000000  0.4514030000000 1.0
C      1  0.4896810000000  0.5740390000000  0.5264640000000 1.0
C      1  0.5213180000000  0.5315030000000  0.5147050000000 1.0
C      1  0.5578350000000  0.4936140000000  0.4795550000000 1.0
C      1  0.5413900000000  0.5566980000000  0.5872110000000 1.0
C      1  0.5880610000000  0.5165550000000  0.4038550000000 1.0
C      1  0.5306110000000  0.5759460000000  0.4739380000000 1.0
C      1  0.5051460000000  0.5100260000000  0.5042910000000 1.0
C      1  0.4357710000000  0.5016510000000  0.5034840000000 1.0
C      1  0.4231990000000  0.4352080000000  0.4410260000000 1.0
C      1  0.5249250000000  0.4802310000000  0.3991370000000 1.0
C      1  0.5771690000000  0.4739330000000  0.5780190000000 1.0
C      1  0.5695750000000  0.3996530000000  0.4577050000000 1.0
C      1  0.6017990000000  0.4892520000000  0.5749780000000 1.0
C      1  0.5913360000000  0.4415000000000  0.4513530000000 1.0
C      1  0.4191420000000  0.4916510000000  0.3987280000000 1.0
C      1  0.5363790000000  0.4095050000000  0.4220510000000 1.0
C      1  0.4049480000000  0.5604690000000  0.4794360000000 1.0
C      1  0.6128720000000  0.5266900000000  0.4953380000000 1.0
C      1  0.5870890000000  0.4197020000000  0.4692930000000 1.0
C      1  0.4867390000000  0.5119270000000  0.4016350000000 1.0
C      1  0.5987230000000  0.5494700000000  0.5070920000000 1.0
C      1  0.4008110000000  0.5343070000000  0.5521880000000 1.0
C      1  0.5314880000000  0.3981340000000  0.4973140000000 1.0
C      1  0.4696490000000  0.6067560000000  0.4473560000000 1.0
C      1  0.4757760000000  0.4213030000000  0.3997550000000 1.0
C      1  0.6171480000000  0.4706290000000  0.5566680000000 1.0
C      1  0.5359470000000  0.5679350000000  0.5613450000000 1.0
C      1  0.4266450000000  0.4997360000000  0.4571060000000 1.0
C      1  0.5499620000000  0.4854260000000  0.3868540000000 1.0
C      1  0.4080260000000  0.4057980000000  0.5220710000000 1.0
C      1  0.4835340000000  0.4505090000000  0.4393170000000 1.0
C      1  0.4780040000000  0.3843320000000  0.4783470000000 1.0
C      1  0.4832680000000  0.4488530000000  0.4086770000000 1.0
C      1  0.4511060000000  0.4877870000000  0.4552190000000 1.0
C      1  0.4938760000000  0.4739330000000  0.4533180000000 1.0
C      1  0.5717000000000  0.5400790000000  0.5136120000000 1.0
C      1  0.4944360000000  0.5143690000000  0.5541400000000 1.0
C      1  0.4436210000000  0.6068240000000  0.3772770000000 1.0
C      1  0.5462490000000  0.5421940000000  0.5019340000000 1.0
C      1  0.5671900000000  0.5459490000000  0.5909280000000 1.0
C      1  0.4093280000000  0.5446300000000  0.4532480000000 1.0
C      1  0.4785900000000  0.4993640000000  0.4582610000000 1.0
C      1  0.4612680000000  0.5854670000000  0.5692740000000 1.0
C      1  0.4289900000000  0.5778150000000  0.4870160000000 1.0
C      1  0.5736160000000  0.5194670000000  0.5317140000000 1.0
C      1  0.4907500000000  0.4671270000000  0.6010450000000 1.0
C      1  0.5066620000000  0.5646750000000  0.5507250000000 1.0
C      1  0.3953980000000  0.4848280000000  0.5662920000000 1.0
C      1  0.5515310000000  0.5566460000000  0.4780530000000 1.0
C      1  0.3850790000000  0.4777390000000  0.4581950000000 1.0
C      1  0.4689330000000  0.3969920000000  0.3933920000000 1.0
C      1  0.6092230000000  0.5595250000000  0.4143190000000 1.0
C      1  0.4483500000000  0.5727090000000  0.4193430000000 1.0
C      1  0.5004940000000  0.5101920000000  0.6236520000000 1.0
C      1  0.5330490000000  0.5932830000000  0.4977030000000 1.0
C      1  0.4745270000000  0.4923100000000  0.3854240000000 1.0
C      1  0.5483790000000  0.4869150000000  0.5064370000000 1.0
C      1  0.5095790000000  0.5357450000000  0.5419770000000 1.0
C      1  0.4582080000000  0.5220450000000  0.4981440000000 1.0
C      1  0.5319120000000  0.4920080000000  0.5754520000000 1.0
C      1  0.4827190000000  0.4900960000000  0.6158350000000 1.0
C      1  0.5539630000000  0.4173150000000  0.5028440000000 1.0
C      1  0.5189640000000  0.5562210000000  0.6044860000000 1.0
C      1  0.3896150000000  0.4590990000000  0.5555010000000 1.0
C      1  0.5237770000000  0.6144550000000  0.5418000000000 1.0
C      1  0.5827810000000  0.4259460000000  0.4980680000000 1.0
C      1  0.3900550000000  0.4990500000000  0.5199780000000 1.0
C      1  0.5443320000000  0.4469480000000  0.4509040000000 1.0
C      1  0.5692580000000  0.4561820000000  0.4415550000000 1.0
C      1  0.5458420000000  0.4578560000000  0.6082810000000 1.0
C      1  0.3885770000000  0.4644210000000  0.4827580000000 1.0
C      1  0.5845800000000  0.5669760000000  0.5502540000000 1.0
C      1  0.4634490000000  0.5141320000000  0.5497350000000 1.0
C      1  0.6038000000000  0.5677620000000  0.5284490000000 1.0
C      1  0.4025640000000  0.4936270000000  0.4431970000000 1.0
C      1  0.5291580000000  0.4300750000000  0.4060840000000 1.0
C      1  0.5648200000000  0.4256080000000  0.5760170000000 1.0
C      1  0.4393000000000  0.5778380000000  0.5139440000000 1.0
C      1  0.4971290000000  0.4206910000000  0.5234920000000 1.0
C      1  0.5012850000000  0.4858330000000  0.5188120000000 1.0
C      1  0.5408570000000  0.4619710000000  0.5168540000000 1.0
C      1  0.4703720000000  0.4308040000000  0.5239900000000 1.0
C      1  0.5061430000000  0.4639090000000  0.4766000000000 1.0
C      1  0.4225300000000  0.5369910000000  0.5699690000000 1.0
C      1  0.4356010000000  0.5839570000000  0.5599720000000 1.0
C      1  0.4057550000000  0.4406090000000  0.4861600000000 1.0
C      1  0.5720110000000  0.5006260000000  0.3894380000000 1.0
C      1  0.3910210000000  0.5069720000000  0.5478790000000 1.0
C      1  0.5308620000000  0.5443000000000  0.4357990000000 1.0
C      1  0.5133240000000  0.4537690000000  0.4020250000000 1.0
C      1  0.5970630000000  0.5349340000000  0.4232380000000 1.0
C      1  0.4552280000000  0.4954770000000  0.6144180000000 1.0
C      1  0.4639290000000  0.5636970000000  0.5210210000000 1.0
C      1  0.4849220000000  0.6280080000000  0.4514610000000 1.0
C      1  0.4088350000000  0.5141170000000  0.5047870000000 1.0
C      1  0.4456900000000  0.5899330000000  0.3975720000000 1.0
C      1  0.5832890000000  0.5814690000000  0.4494980000000 1.0
C      1  0.6003320000000  0.5164670000000  0.4708590000000 1.0
C      1  0.5567390000000  0.4012870000000  0.5646040000000 1.0
C      1  0.4787540000000  0.6050010000000  0.6416760000000 1.0
C      1  0.5744020000000  0.5570170000000  0.4610290000000 1.0
C      1  0.4621970000000  0.4343070000000  0.5512520000000 1.0
C      1  0.4924030000000  0.4049420000000  0.4644850000000 1.0
C      1  0.4476150000000  0.4050280000000  0.5874600000000 1.0
C      1  0.5092440000000  0.4851760000000  0.5555700000000 1.0
C      1  0.4550610000000  0.4833790000000  0.5427210000000 1.0
C      1  0.6002540000000  0.5126980000000  0.5378110000000 1.0
C      1  0.4680400000000  0.5278870000000  0.4174220000000 1.0
C      1  0.4909370000000  0.5494960000000  0.4549090000000 1.0
C      1  0.4380170000000  0.4998650000000  0.5930590000000 1.0
C      1  0.4918480000000  0.4659090000000  0.5012500000000 1.0
C      1  0.4553590000000  0.4381230000000  0.4774470000000 1.0
C      1  0.5157350000000  0.5625410000000  0.4528810000000 1.0
C      1  0.4955420000000  0.4213930000000  0.6289090000000 1.0
C      1  0.4638140000000  0.4526280000000  0.5034740000000 1.0
C      1  0.5268270000000  0.4581610000000  0.5404960000000 1.0
C      1  0.3831670000000  0.4734860000000  0.5099950000000 1.0
C      1  0.4015730000000  0.4306210000000  0.5131450000000 1.0
C      1  0.5993880000000  0.4508330000000  0.5428080000000 1.0
C      1  0.5521190000000  0.4790070000000  0.5903340000000 1.0
C      1  0.4636030000000  0.4685840000000  0.3961140000000 1.0
C      1  0.3887070000000  0.4514120000000  0.5284970000000 1.0
C      1  0.5105590000000  0.3838910000000  0.5467740000000 1.0
C      1  0.5880130000000  0.5443270000000  0.5711960000000 1.0
C      1  0.4353420000000  0.4680310000000  0.4014350000000 1.0
C      1  0.4831030000000  0.5104710000000  0.4866370000000 1.0
C      1  0.5787490000000  0.4474290000000  0.5634330000000 1.0
C      1  0.4651670000000  0.4619090000000  0.5590080000000 1.0
C      1  0.5485400000000  0.4997200000000  0.4509780000000 1.0
C      1  0.4431880000000  0.5443990000000  0.4160320000000 1.0
C      1  0.6013540000000  0.4783210000000  0.5012730000000 1.0
C      1  0.4657370000000  0.4105150000000  0.5676060000000 1.0
C      1  0.5569180000000  0.5787000000000  0.5441750000000 1.0
C      1  0.5292910000000  0.4489870000000  0.4739710000000 1.0
C      1  0.4286150000000  0.5262460000000  0.4641290000000 1.0
C      1  0.4921500000000  0.5844350000000  0.5721030000000 1.0
C      1  0.6138290000000  0.5029720000000  0.5144340000000 1.0
C      1  0.6283450000000  0.5605470000000  0.3949380000000 1.0
C      1  0.5407050000000  0.4421040000000  0.4982310000000 1.0
C      1  0.5537770000000  0.5014920000000  0.5296670000000 1.0
C      1  0.4498930000000  0.5401290000000  0.4760040000000 1.0
C      1  0.4945820000000  0.4427490000000  0.6139880000000 1.0
C      1  0.4445520000000  0.5199150000000  0.5735160000000 1.0
C      1  0.5367330000000  0.3849380000000  0.5574020000000 1.0
C      1  0.4559360000000  0.5824500000000  0.4452940000000 1.0
C      1  0.5124450000000  0.5336380000000  0.6196140000000 1.0
C      1  0.4213450000000  0.5760610000000  0.5360830000000 1.0
C      1  0.4892960000000  0.5917100000000  0.6218950000000 1.0
C      1  0.5000330000000  0.5773580000000  0.6004530000000 1.0
C      1  0.4064930000000  0.5084680000000  0.4181420000000 1.0
C      1  0.6013630000000  0.5172560000000  0.5661880000000 1.0
C      1  0.5216070000000  0.4000410000000  0.4684950000000 1.0
END
