TITL C-599891-72-1402 0.226061182315959 125000 -549.701320268091 0 0 90 (C1) n - 1
REM
REM in /home/nfs/bkarasulu/CARBON/AIRSS/Generating-Clusters/TERSOFF/Only-C1/FIRE-HFTN
REM
REM
REM
REM
REM
REM ./C.cell (11c1c37f851c82e70ff6c80c92926a4b)
REM AIRSS Version 0.9.1 bugfix July 2018 build 013d7b7c2542+ Fri, 06 Jul 2018 19:26:36 +0100
REM compiler GCC version 9.2.1 20190827 (Red Hat 9.2.1-1)
REM options -cpp -mtune=generic -march=x86-64 -g -O0 -fpre-include=/usr/include/finclude/math-vector-fortran.h
REM seed -1274207432 -2132853829 784957082 -1892280597 1312932320 -663724196 -547002275 -1545053961 1392990530 -739616357 -853835269 265611558 945507614 1584898892 -1434104294 1401953950 1182563496 976204005 -1624245100 -1769375138 1278654252 631274637 1358759438 -500035129 284729009 358966444 -1091880996 2077603635 -756287987 -1061963845 1799118439 -16266547 -166805240
REM
CELL 1.54180   50.00000   50.00000   50.00000   90.00000   90.00000   90.00000
LATT -1
SFAC C  
C      1  0.4262700000000  0.5587240000000  0.4514710000000 1.0
C      1  0.4731020000000  0.4493350000000  0.5559610000000 1.0
C      1  0.4122460000000  0.4606580000000  0.4810150000000 1.0
C      1  0.4505720000000  0.5054720000000  0.4776220000000 1.0
C      1  0.4737660000000  0.5109380000000  0.4633900000000 1.0
C      1  0.5983070000000  0.4908900000000  0.5030090000000 1.0
C      1  0.5209380000000  0.4729650000000  0.6223730000000 1.0
C      1  0.5029260000000  0.4023300000000  0.5272010000000 1.0
C      1  0.5953520000000  0.4521560000000  0.5358370000000 1.0
C      1  0.4976650000000  0.5826800000000  0.4253770000000 1.0
C      1  0.4685600000000  0.5268790000000  0.6864250000000 1.0
C      1  0.5813300000000  0.5043590000000  0.4582350000000 1.0
C      1  0.5486840000000  0.4455140000000  0.5887270000000 1.0
C      1  0.5349890000000  0.5459530000000  0.5125180000000 1.0
C      1  0.4215840000000  0.5095840000000  0.4737100000000 1.0
C      1  0.4668250000000  0.4344590000000  0.5329960000000 1.0
C      1  0.4926170000000  0.4572040000000  0.4459500000000 1.0
C      1  0.4996550000000  0.4911120000000  0.6209420000000 1.0
C      1  0.5821020000000  0.5307730000000  0.4472500000000 1.0
C      1  0.5208160000000  0.5645410000000  0.4271380000000 1.0
C      1  0.5050800000000  0.5109850000000  0.5766980000000 1.0
C      1  0.4601120000000  0.4383880000000  0.4860720000000 1.0
C      1  0.4887080000000  0.5824650000000  0.4719170000000 1.0
C      1  0.5749960000000  0.4408400000000  0.5485340000000 1.0
C      1  0.5392100000000  0.4976110000000  0.4040830000000 1.0
C      1  0.5257360000000  0.5213080000000  0.5279060000000 1.0
C      1  0.4748750000000  0.4996690000000  0.5211270000000 1.0
C      1  0.5228260000000  0.4227600000000  0.5226470000000 1.0
C      1  0.4763730000000  0.5372530000000  0.4554610000000 1.0
C      1  0.4650810000000  0.4843390000000  0.5867680000000 1.0
C      1  0.4991060000000  0.4996660000000  0.4566990000000 1.0
C      1  0.5621900000000  0.4854760000000  0.4472520000000 1.0
C      1  0.5108890000000  0.5884180000000  0.5148970000000 1.0
C      1  0.5180930000000  0.5188780000000  0.5547400000000 1.0
C      1  0.5501060000000  0.4411700000000  0.5610480000000 1.0
C      1  0.4739880000000  0.5855270000000  0.4440750000000 1.0
C      1  0.5276630000000  0.4276680000000  0.4940050000000 1.0
C      1  0.5681860000000  0.5537490000000  0.4435710000000 1.0
C      1  0.5303520000000  0.4966820000000  0.5095920000000 1.0
C      1  0.5118070000000  0.4966150000000  0.3951010000000 1.0
C      1  0.5044020000000  0.4739790000000  0.4676050000000 1.0
C      1  0.5525170000000  0.5071350000000  0.4938250000000 1.0
C      1  0.5106010000000  0.4782490000000  0.4968430000000 1.0
C      1  0.4108790000000  0.4870690000000  0.4923680000000 1.0
C      1  0.6044660000000  0.4715050000000  0.5200900000000 1.0
C      1  0.5473950000000  0.4431550000000  0.4798300000000 1.0
C      1  0.5790960000000  0.5020680000000  0.4865210000000 1.0
C      1  0.4353010000000  0.4858640000000  0.5470030000000 1.0
C      1  0.5017170000000  0.4491800000000  0.5595140000000 1.0
C      1  0.4503500000000  0.5680330000000  0.4378200000000 1.0
C      1  0.4766310000000  0.4078340000000  0.5316690000000 1.0
C      1  0.4976130000000  0.5209540000000  0.4031920000000 1.0
C      1  0.4671870000000  0.5695560000000  0.5169310000000 1.0
C      1  0.4509250000000  0.4777210000000  0.4235960000000 1.0
C      1  0.4583510000000  0.5384850000000  0.7074180000000 1.0
C      1  0.5058570000000  0.4179690000000  0.4777920000000 1.0
C      1  0.4674240000000  0.5212230000000  0.5396050000000 1.0
C      1  0.5214540000000  0.5169200000000  0.4453970000000 1.0
C      1  0.4645690000000  0.4615660000000  0.4404100000000 1.0
C      1  0.4694710000000  0.5238880000000  0.4097500000000 1.0
C      1  0.4519960000000  0.4989070000000  0.5048290000000 1.0
C      1  0.4789390000000  0.5150780000000  0.6650800000000 1.0
C      1  0.4969110000000  0.5519580000000  0.4687380000000 1.0
C      1  0.5383960000000  0.4568710000000  0.6104330000000 1.0
C      1  0.4437210000000  0.5134270000000  0.5537960000000 1.0
C      1  0.5145760000000  0.5363780000000  0.4216410000000 1.0
C      1  0.4790690000000  0.4206480000000  0.4745620000000 1.0
C      1  0.5027220000000  0.4698920000000  0.3984940000000 1.0
C      1  0.5424980000000  0.4991360000000  0.4323150000000 1.0
C      1  0.5142320000000  0.5987960000000  0.4679620000000 1.0
C      1  0.4890830000000  0.4967560000000  0.5951180000000 1.0
C      1  0.4892700000000  0.5033060000000  0.6437210000000 1.0
C      1  0.4277950000000  0.4882740000000  0.5173470000000 1.0
C      1  0.4331220000000  0.4433800000000  0.4790540000000 1.0
C      1  0.4159420000000  0.5354360000000  0.4622800000000 1.0
C      1  0.5054220000000  0.4539810000000  0.4205590000000 1.0
C      1  0.5257750000000  0.4394620000000  0.5464020000000 1.0
C      1  0.5443750000000  0.5694800000000  0.4460640000000 1.0
C      1  0.4640740000000  0.5432980000000  0.4303070000000 1.0
C      1  0.4852410000000  0.5848330000000  0.5020880000000 1.0
C      1  0.5376490000000  0.5834530000000  0.4711840000000 1.0
C      1  0.4547200000000  0.4698850000000  0.5641860000000 1.0
C      1  0.4531950000000  0.5006980000000  0.4097280000000 1.0
C      1  0.5570870000000  0.4605980000000  0.4611620000000 1.0
C      1  0.4873560000000  0.4746050000000  0.5130830000000 1.0
C      1  0.4690960000000  0.5481600000000  0.5327170000000 1.0
C      1  0.5223830000000  0.5372080000000  0.4678400000000 1.0
C      1  0.5332440000000  0.5737860000000  0.5056320000000 1.0
C      1  0.4701800000000  0.4507330000000  0.5098000000000 1.0
C      1  0.5420440000000  0.5332340000000  0.4873610000000 1.0
END
