TITL C-599897-7526-491 3342.481663883 125000 -703.137147102126 0 0 119 (C1) n - 1
REM
REM in /home/nfs/bkarasulu/CARBON/AIRSS/Generating-Clusters/TERSOFF/Only-C1/FIRE-HFTN
REM
REM
REM
REM
REM
REM ./C.cell (11c1c37f851c82e70ff6c80c92926a4b)
REM AIRSS Version 0.9.1 bugfix July 2018 build 013d7b7c2542+ Fri, 06 Jul 2018 19:26:36 +0100
REM compiler GCC version 9.2.1 20190827 (Red Hat 9.2.1-1)
REM options -cpp -mtune=generic -march=x86-64 -g -O0 -fpre-include=/usr/include/finclude/math-vector-fortran.h
REM seed 573309509 -931438787 -588665668 1383468099 -278061390 1929746405 -918224667 197900989 1474452858 1329299821 635865337 1682549698 -1425102040 222329641 1778696819 1230913811 -1788507833 -395420417 -1915334856 -583620775 985538901 -1793635342 -1935800622 -36287803 -2050765747 -1832915147 -1169898229 1855825868 947722856 -1006409301 -66070692 -1100728926 2124899034
REM
CELL 1.54180   50.00000   50.00000   50.00000   90.00000   90.00000   90.00000
LATT -1
SFAC C  
C      1  0.4498030000000  0.5323320000000  0.4723300000000 1.0
C      1  0.4105230000000  0.5703560000000  0.5146320000000 1.0
C      1  0.4210740000000  0.5088540000000  0.4398160000000 1.0
C      1  0.5803270000000  0.4887490000000  0.5423380000000 1.0
C      1  0.5379350000000  0.5840540000000  0.4891300000000 1.0
C      1  0.4045280000000  0.5520150000000  0.4936350000000 1.0
C      1  0.4346220000000  0.4721280000000  0.4881340000000 1.0
C      1  0.5499150000000  0.5204520000000  0.5520180000000 1.0
C      1  0.4667420000000  0.5505150000000  0.4328810000000 1.0
C      1  0.5043770000000  0.4959810000000  0.4550860000000 1.0
C      1  0.4826490000000  0.5953170000000  0.5423050000000 1.0
C      1  0.4339630000000  0.4839220000000  0.4385060000000 1.0
C      1  0.5302970000000  0.5633000000000  0.4207240000000 1.0
C      1  0.4794640000000  0.4210730000000  0.4501970000000 1.0
C      1  0.4285480000000  0.5632460000000  0.5348950000000 1.0
C      1  0.5089840000000  0.5343300000000  0.5404410000000 1.0
C      1  0.4199400000000  0.5392400000000  0.4417080000000 1.0
C      1  0.4540220000000  0.4656870000000  0.5262910000000 1.0
C      1  0.4426770000000  0.5562450000000  0.5810110000000 1.0
C      1  0.5601200000000  0.4964570000000  0.5635290000000 1.0
C      1  0.4724400000000  0.4400710000000  0.5749890000000 1.0
C      1  0.5639590000000  0.5465520000000  0.5495730000000 1.0
C      1  0.4562010000000  0.5543880000000  0.5325010000000 1.0
C      1  0.5003630000000  0.4588830000000  0.4271610000000 1.0
C      1  0.5040030000000  0.5203700000000  0.5934360000000 1.0
C      1  0.5332870000000  0.4394320000000  0.4678680000000 1.0
C      1  0.4314000000000  0.5174050000000  0.4864470000000 1.0
C      1  0.4101100000000  0.5251450000000  0.5568250000000 1.0
C      1  0.5700830000000  0.4811140000000  0.4405550000000 1.0
C      1  0.5010650000000  0.4762010000000  0.5421770000000 1.0
C      1  0.5813960000000  0.5040190000000  0.4825220000000 1.0
C      1  0.5099510000000  0.4131770000000  0.5496270000000 1.0
C      1  0.5572630000000  0.5237310000000  0.4160400000000 1.0
C      1  0.5612300000000  0.5258780000000  0.4901430000000 1.0
C      1  0.4456440000000  0.5048670000000  0.5793270000000 1.0
C      1  0.4572700000000  0.3859440000000  0.5073230000000 1.0
C      1  0.5654390000000  0.4676650000000  0.5283860000000 1.0
C      1  0.5752360000000  0.5457450000000  0.4211200000000 1.0
C      1  0.4833370000000  0.5005870000000  0.4380670000000 1.0
C      1  0.4719480000000  0.5598390000000  0.5765410000000 1.0
C      1  0.5810010000000  0.4800080000000  0.4668050000000 1.0
C      1  0.5384310000000  0.5799200000000  0.5188240000000 1.0
C      1  0.4984310000000  0.5475650000000  0.5823760000000 1.0
C      1  0.4890710000000  0.5803940000000  0.4798330000000 1.0
C      1  0.5730880000000  0.4628190000000  0.4193040000000 1.0
C      1  0.6059880000000  0.5191180000000  0.4778860000000 1.0
C      1  0.5123310000000  0.5091080000000  0.4036190000000 1.0
C      1  0.5956540000000  0.4576020000000  0.4748650000000 1.0
C      1  0.5150110000000  0.5881410000000  0.4700050000000 1.0
C      1  0.4113590000000  0.5110070000000  0.5302450000000 1.0
C      1  0.5291650000000  0.5337390000000  0.4088950000000 1.0
C      1  0.4234330000000  0.4825990000000  0.5333770000000 1.0
C      1  0.4611690000000  0.5253030000000  0.5340510000000 1.0
C      1  0.5968840000000  0.5116430000000  0.5369710000000 1.0
C      1  0.4972490000000  0.4845430000000  0.6253520000000 1.0
C      1  0.5016980000000  0.3951540000000  0.4929450000000 1.0
C      1  0.5323460000000  0.4659050000000  0.3909400000000 1.0
C      1  0.5195790000000  0.4577620000000  0.5371210000000 1.0
C      1  0.5421870000000  0.4146710000000  0.4785260000000 1.0
C      1  0.5295680000000  0.5084900000000  0.4507410000000 1.0
C      1  0.5458340000000  0.4572860000000  0.5473190000000 1.0
C      1  0.5573630000000  0.4583880000000  0.3978070000000 1.0
C      1  0.5991500000000  0.5440820000000  0.4657860000000 1.0
C      1  0.4465300000000  0.4340580000000  0.5636950000000 1.0
C      1  0.5302220000000  0.4111320000000  0.5286900000000 1.0
C      1  0.4455920000000  0.4127680000000  0.5441470000000 1.0
C      1  0.5223870000000  0.4466800000000  0.4427660000000 1.0
C      1  0.4726460000000  0.5709410000000  0.5491160000000 1.0
C      1  0.5173270000000  0.5803850000000  0.4411220000000 1.0
C      1  0.5278630000000  0.4039370000000  0.5006630000000 1.0
C      1  0.5281660000000  0.4570850000000  0.4898420000000 1.0
C      1  0.5069740000000  0.4914790000000  0.6002320000000 1.0
C      1  0.4099090000000  0.5249230000000  0.5033980000000 1.0
C      1  0.4914800000000  0.5517890000000  0.4784860000000 1.0
C      1  0.4850650000000  0.3863460000000  0.5139090000000 1.0
C      1  0.5594010000000  0.5696340000000  0.4246540000000 1.0
C      1  0.6101000000000  0.4369890000000  0.4816220000000 1.0
C      1  0.4664810000000  0.5091460000000  0.5110550000000 1.0
C      1  0.5071080000000  0.5328720000000  0.4932740000000 1.0
C      1  0.4848730000000  0.4913240000000  0.5563310000000 1.0
C      1  0.4640940000000  0.5095990000000  0.5583710000000 1.0
C      1  0.4999640000000  0.4638810000000  0.4944200000000 1.0
C      1  0.5526430000000  0.5023870000000  0.4351510000000 1.0
C      1  0.4900060000000  0.4040660000000  0.4683570000000 1.0
C      1  0.4156930000000  0.5585520000000  0.4664420000000 1.0
C      1  0.5009400000000  0.4392350000000  0.5727330000000 1.0
C      1  0.5310780000000  0.5201390000000  0.5303050000000 1.0
C      1  0.4226180000000  0.4478570000000  0.5680270000000 1.0
C      1  0.5164700000000  0.5550970000000  0.5594060000000 1.0
C      1  0.4744510000000  0.4472910000000  0.4381480000000 1.0
C      1  0.5653890000000  0.5853280000000  0.4478410000000 1.0
C      1  0.4483520000000  0.4587070000000  0.4469700000000 1.0
C      1  0.4360600000000  0.4256500000000  0.4910490000000 1.0
C      1  0.5741740000000  0.5511290000000  0.4801560000000 1.0
C      1  0.4616810000000  0.5888870000000  0.4759940000000 1.0
C      1  0.5617680000000  0.5760760000000  0.4747720000000 1.0
C      1  0.5110200000000  0.4785180000000  0.4059240000000 1.0
C      1  0.4971690000000  0.4886610000000  0.4811630000000 1.0
C      1  0.4212150000000  0.5518750000000  0.5603240000000 1.0
C      1  0.4454250000000  0.4959410000000  0.4964350000000 1.0
C      1  0.5186660000000  0.4687020000000  0.5847930000000 1.0
C      1  0.4105440000000  0.4656370000000  0.5519270000000 1.0
C      1  0.5416020000000  0.5663330000000  0.5456190000000 1.0
C      1  0.5294970000000  0.5351940000000  0.4569250000000 1.0
C      1  0.4908690000000  0.5099380000000  0.4979040000000 1.0
C      1  0.4406920000000  0.5502960000000  0.4241660000000 1.0
C      1  0.4764990000000  0.4575510000000  0.5113230000000 1.0
C      1  0.4386080000000  0.4484420000000  0.4735430000000 1.0
C      1  0.4643260000000  0.3932450000000  0.5549440000000 1.0
C      1  0.5903960000000  0.5382550000000  0.5415690000000 1.0
C      1  0.5515490000000  0.4664340000000  0.5034340000000 1.0
C      1  0.5441290000000  0.4734120000000  0.5716810000000 1.0
C      1  0.4722490000000  0.5424670000000  0.4596700000000 1.0
C      1  0.4364620000000  0.5803040000000  0.4687300000000 1.0
C      1  0.5350360000000  0.5263520000000  0.5024730000000 1.0
C      1  0.4418130000000  0.4094550000000  0.5144110000000 1.0
C      1  0.5982600000000  0.5448980000000  0.4374700000000 1.0
C      1  0.4894960000000  0.3933670000000  0.5420690000000 1.0
C      1  0.4188490000000  0.5088410000000  0.5785240000000 1.0
END
