TITL C-599897-7526-1080 3.75678122225387e-05 125000 -608.658426524918 0 0 100 (C1) n - 1
REM
REM in /home/nfs/bkarasulu/CARBON/AIRSS/Generating-Clusters/TERSOFF/Only-C1/FIRE-HFTN
REM
REM
REM
REM
REM
REM ./C.cell (11c1c37f851c82e70ff6c80c92926a4b)
REM AIRSS Version 0.9.1 bugfix July 2018 build 013d7b7c2542+ Fri, 06 Jul 2018 19:26:36 +0100
REM compiler GCC version 9.2.1 20190827 (Red Hat 9.2.1-1)
REM options -cpp -mtune=generic -march=x86-64 -g -O0 -fpre-include=/usr/include/finclude/math-vector-fortran.h
REM seed -384880250 -1577284544 -578169634 1138933800 1324876206 2133432826 1399839077 1062142065 -414026896 -599747828 1178205170 169688606 -1627466953 1010222721 -1641792934 413749087 -7584993 -826128603 1583796132 -592772687 -897268684 -469619338 1130951471 -1275552846 1896278393 -224268642 -311811442 -1266635855 -1286383509 786688491 1954772210 -1603600987 973740456
REM
CELL 1.54180   50.00000   50.00000   50.00000   90.00000   90.00000   90.00000
LATT -1
SFAC C  
C      1  0.5065790000000  0.4818220000000  0.5450410000000 1.0
C      1  0.4949810000000  0.4238090000000  0.5599540000000 1.0
C      1  0.4645130000000  0.4374720000000  0.4613820000000 1.0
C      1  0.4810530000000  0.5277650000000  0.5908910000000 1.0
C      1  0.4463790000000  0.4219640000000  0.4799800000000 1.0
C      1  0.4532520000000  0.4357740000000  0.4342620000000 1.0
C      1  0.5163050000000  0.5720840000000  0.5138960000000 1.0
C      1  0.5251060000000  0.4946870000000  0.5290220000000 1.0
C      1  0.5076940000000  0.5211200000000  0.4496740000000 1.0
C      1  0.4207150000000  0.5191200000000  0.5323120000000 1.0
C      1  0.5359260000000  0.5149930000000  0.4043510000000 1.0
C      1  0.5258710000000  0.5362820000000  0.5749920000000 1.0
C      1  0.5163430000000  0.4352210000000  0.4596870000000 1.0
C      1  0.4620940000000  0.5113770000000  0.4322850000000 1.0
C      1  0.4377420000000  0.5005510000000  0.5488130000000 1.0
C      1  0.4371750000000  0.5711300000000  0.5249840000000 1.0
C      1  0.4906740000000  0.5845020000000  0.4460750000000 1.0
C      1  0.5547870000000  0.4441100000000  0.5972740000000 1.0
C      1  0.4565040000000  0.4235860000000  0.5067300000000 1.0
C      1  0.4601010000000  0.5701170000000  0.5704870000000 1.0
C      1  0.4442600000000  0.5793230000000  0.5509680000000 1.0
C      1  0.4920820000000  0.4274960000000  0.4731410000000 1.0
C      1  0.4457830000000  0.5294680000000  0.4492290000000 1.0
C      1  0.4476470000000  0.4901200000000  0.5744040000000 1.0
C      1  0.5886620000000  0.4749880000000  0.5351190000000 1.0
C      1  0.5031760000000  0.4322520000000  0.5303500000000 1.0
C      1  0.4957670000000  0.5021820000000  0.4880760000000 1.0
C      1  0.5224870000000  0.4462400000000  0.4339450000000 1.0
C      1  0.5597710000000  0.5534050000000  0.4562440000000 1.0
C      1  0.4561440000000  0.5314610000000  0.5042780000000 1.0
C      1  0.5369420000000  0.4254170000000  0.5907790000000 1.0
C      1  0.5305950000000  0.4640660000000  0.4949050000000 1.0
C      1  0.5419010000000  0.4758840000000  0.5163530000000 1.0
C      1  0.4459410000000  0.4964920000000  0.4141100000000 1.0
C      1  0.4929670000000  0.5666140000000  0.4987620000000 1.0
C      1  0.4867630000000  0.4226250000000  0.5041270000000 1.0
C      1  0.5770930000000  0.4600570000000  0.4659620000000 1.0
C      1  0.5761050000000  0.5275880000000  0.4544300000000 1.0
C      1  0.4727580000000  0.4398660000000  0.5717750000000 1.0
C      1  0.4275430000000  0.4789220000000  0.4274620000000 1.0
C      1  0.5610130000000  0.4758870000000  0.4463500000000 1.0
C      1  0.4056900000000  0.4778480000000  0.5011460000000 1.0
C      1  0.4885130000000  0.5013000000000  0.4403390000000 1.0
C      1  0.5364540000000  0.4279450000000  0.5244350000000 1.0
C      1  0.4362020000000  0.5427510000000  0.5218380000000 1.0
C      1  0.5161300000000  0.5094970000000  0.5069570000000 1.0
C      1  0.4549490000000  0.5029500000000  0.5036930000000 1.0
C      1  0.5617020000000  0.5663250000000  0.5299760000000 1.0
C      1  0.4887920000000  0.4835620000000  0.4646800000000 1.0
C      1  0.5359220000000  0.4427460000000  0.4777820000000 1.0
C      1  0.5339990000000  0.5138750000000  0.4604920000000 1.0
C      1  0.5691250000000  0.4663780000000  0.5943290000000 1.0
C      1  0.5775110000000  0.5416680000000  0.5272110000000 1.0
C      1  0.4558140000000  0.4907160000000  0.5288230000000 1.0
C      1  0.4206420000000  0.5173820000000  0.4591030000000 1.0
C      1  0.5119210000000  0.5720420000000  0.5419310000000 1.0
C      1  0.5590040000000  0.5046270000000  0.4500120000000 1.0
C      1  0.5928860000000  0.5242900000000  0.4782820000000 1.0
C      1  0.5608770000000  0.5600030000000  0.4849280000000 1.0
C      1  0.5817050000000  0.5415420000000  0.4983020000000 1.0
C      1  0.5796190000000  0.4862460000000  0.5798890000000 1.0
C      1  0.6058610000000  0.4995910000000  0.4812320000000 1.0
C      1  0.4643630000000  0.5806350000000  0.4573280000000 1.0
C      1  0.4065810000000  0.5066560000000  0.5086850000000 1.0
C      1  0.4025750000000  0.4744830000000  0.4722170000000 1.0
C      1  0.4450720000000  0.4454030000000  0.5210970000000 1.0
C      1  0.4140250000000  0.4898390000000  0.4504920000000 1.0
C      1  0.5822450000000  0.4500740000000  0.5269470000000 1.0
C      1  0.4510120000000  0.5953780000000  0.4781740000000 1.0
C      1  0.5724990000000  0.5222860000000  0.5478660000000 1.0
C      1  0.5353320000000  0.4879750000000  0.4076530000000 1.0
C      1  0.5513470000000  0.5301150000000  0.5656710000000 1.0
C      1  0.5160830000000  0.5758790000000  0.4409330000000 1.0
C      1  0.5361880000000  0.5189930000000  0.4890440000000 1.0
C      1  0.4599720000000  0.5094740000000  0.5910470000000 1.0
C      1  0.5389670000000  0.5587800000000  0.4363450000000 1.0
C      1  0.4078120000000  0.5233590000000  0.4843350000000 1.0
C      1  0.5441730000000  0.5710530000000  0.5066540000000 1.0
C      1  0.5408460000000  0.4672820000000  0.4268790000000 1.0
C      1  0.5999850000000  0.4738870000000  0.4755340000000 1.0
C      1  0.5640320000000  0.4390880000000  0.4824700000000 1.0
C      1  0.4662780000000  0.4669770000000  0.4689660000000 1.0
C      1  0.4645470000000  0.4644460000000  0.5292050000000 1.0
C      1  0.5090750000000  0.5202080000000  0.5922800000000 1.0
C      1  0.5077580000000  0.5568840000000  0.5648650000000 1.0
C      1  0.4744550000000  0.5462030000000  0.4860580000000 1.0
C      1  0.4494330000000  0.4841710000000  0.4834250000000 1.0
C      1  0.4334970000000  0.4514930000000  0.4244200000000 1.0
C      1  0.5158720000000  0.4161680000000  0.5772310000000 1.0
C      1  0.4937710000000  0.5282110000000  0.4740800000000 1.0
C      1  0.5828650000000  0.4958540000000  0.5533350000000 1.0
C      1  0.4475220000000  0.4989670000000  0.3870390000000 1.0
C      1  0.4401780000000  0.5885160000000  0.5023300000000 1.0
C      1  0.4921830000000  0.4608320000000  0.5328960000000 1.0
C      1  0.5635290000000  0.4342190000000  0.5122780000000 1.0
C      1  0.4578940000000  0.5526960000000  0.4611240000000 1.0
C      1  0.5378990000000  0.5403080000000  0.4140480000000 1.0
C      1  0.4813710000000  0.5532160000000  0.5765950000000 1.0
C      1  0.4573270000000  0.4622940000000  0.5767620000000 1.0
C      1  0.4189230000000  0.4565760000000  0.5154500000000 1.0
END
