TITL C-599892-9790-1318 16.720849143695 125000 -271.31486699358 0 0 46 (C1) n - 1
REM
REM in /home/nfs/bkarasulu/CARBON/AIRSS/Generating-Clusters/TERSOFF/Only-C1/FIRE-HFTN
REM
REM
REM
REM
REM
REM ./C.cell (11c1c37f851c82e70ff6c80c92926a4b)
REM AIRSS Version 0.9.1 bugfix July 2018 build 013d7b7c2542+ Fri, 06 Jul 2018 19:26:36 +0100
REM compiler GCC version 9.2.1 20190827 (Red Hat 9.2.1-1)
REM options -cpp -mtune=generic -march=x86-64 -g -O0 -fpre-include=/usr/include/finclude/math-vector-fortran.h
REM seed -110580524 45959634 -1215276788 -1763547419 1765658359 -1102889465 1382579702 -97291324 -664000669 77610716 280223117 -1799380030 -1112895723 -1798824110 1634555688 1394110796 1945940779 -1907126653 1153932795 -1961157562 165869521 -1289167566 -993757598 1954140718 2118534133 1714685638 -1359784174 1073798298 1381786044 1166201079 -1485312651 1090511327 -1942504674
REM
CELL 1.54180   50.00000   50.00000   50.00000   90.00000   90.00000   90.00000
LATT -1
SFAC C  
C      1  0.4199390000000  0.5279990000000  0.5644100000000 1.0
C      1  0.5390640000000  0.5249000000000  0.5035250000000 1.0
C      1  0.5699240000000  0.2929990000000  0.4434950000000 1.0
C      1  0.4935410000000  0.5266230000000  0.4600450000000 1.0
C      1  0.5837670000000  0.4695370000000  0.4795490000000 1.0
C      1  0.4284040000000  0.5244530000000  0.5393090000000 1.0
C      1  0.4895440000000  0.4563580000000  0.4398910000000 1.0
C      1  0.5148300000000  0.5631360000000  0.4855790000000 1.0
C      1  0.5764330000000  0.4438170000000  0.4782250000000 1.0
C      1  0.5475570000000  0.3361620000000  0.4635200000000 1.0
C      1  0.5286450000000  0.4773600000000  0.5036500000000 1.0
C      1  0.4685250000000  0.5712990000000  0.5842820000000 1.0
C      1  0.5287240000000  0.4281410000000  0.4940440000000 1.0
C      1  0.5193710000000  0.5570610000000  0.5343860000000 1.0
C      1  0.4723940000000  0.5431640000000  0.5327710000000 1.0
C      1  0.4924570000000  0.5595740000000  0.5434250000000 1.0
C      1  0.4869310000000  0.6131950000000  0.4609240000000 1.0
C      1  0.5125420000000  0.6109440000000  0.4691310000000 1.0
C      1  0.4764700000000  0.4260050000000  0.5148760000000 1.0
C      1  0.4900260000000  0.4494470000000  0.5146750000000 1.0
C      1  0.4438400000000  0.5542050000000  0.4786060000000 1.0
C      1  0.4676790000000  0.5670100000000  0.4695400000000 1.0
C      1  0.5162560000000  0.4523230000000  0.5042320000000 1.0
C      1  0.4777840000000  0.5034600000000  0.4630790000000 1.0
C      1  0.4680890000000  0.5939580000000  0.4613040000000 1.0
C      1  0.4468020000000  0.5301340000000  0.4937820000000 1.0
C      1  0.4275610000000  0.5415300000000  0.5861910000000 1.0
C      1  0.4952480000000  0.6044470000000  0.5619160000000 1.0
C      1  0.5247740000000  0.5485230000000  0.5077600000000 1.0
C      1  0.5588340000000  0.3144020000000  0.4534240000000 1.0
C      1  0.4927440000000  0.5527220000000  0.4706190000000 1.0
C      1  0.5402570000000  0.5622880000000  0.5513560000000 1.0
C      1  0.4470670000000  0.5583430000000  0.5933000000000 1.0
C      1  0.5252210000000  0.3797900000000  0.4836480000000 1.0
C      1  0.4858150000000  0.5788060000000  0.5634930000000 1.0
C      1  0.5549540000000  0.4291400000000  0.4841670000000 1.0
C      1  0.4490460000000  0.5318900000000  0.5219120000000 1.0
C      1  0.4555100000000  0.5071410000000  0.4799920000000 1.0
C      1  0.4880810000000  0.4036710000000  0.5048880000000 1.0
C      1  0.4190360000000  0.5641800000000  0.4729030000000 1.0
C      1  0.5715330000000  0.4918590000000  0.4879030000000 1.0
C      1  0.4835830000000  0.4793620000000  0.4505920000000 1.0
C      1  0.5362920000000  0.3579210000000  0.4736110000000 1.0
C      1  0.5464240000000  0.4985280000000  0.4986250000000 1.0
C      1  0.5242400000000  0.5889960000000  0.4794860000000 1.0
C      1  0.5142390000000  0.4031960000000  0.4939590000000 1.0
END
