TITL C-599890-3321-1061 297.966280420196 125000 -1011.96420600255 0 0 168 (C1) n - 1
REM
REM in /home/nfs/bkarasulu/CARBON/AIRSS/Generating-Clusters/TERSOFF/Only-C1/FIRE-HFTN
REM
REM
REM
REM
REM
REM ./C.cell (11c1c37f851c82e70ff6c80c92926a4b)
REM AIRSS Version 0.9.1 bugfix July 2018 build 013d7b7c2542+ Fri, 06 Jul 2018 19:26:36 +0100
REM compiler GCC version 9.2.1 20190827 (Red Hat 9.2.1-1)
REM options -cpp -mtune=generic -march=x86-64 -g -O0 -fpre-include=/usr/include/finclude/math-vector-fortran.h
REM seed 571215377 1957767821 -2078217379 -1335693532 1028071247 829086350 -1516066719 998279995 515773412 177104109 717731917 1971811993 -758944070 1025818680 106759489 -651988231 1709542523 936821609 1141880095 -240673341 -2024477760 1387975412 2008813942 1777556163 1280959964 1398422339 2014464331 -1286193180 1314350968 -1806964987 -556309865 -353396999 -374717709
REM
CELL 1.54180   50.00000   50.00000   50.00000   90.00000   90.00000   90.00000
LATT -1
SFAC C  
C      1  0.5946080000000  0.5063100000000  0.4948330000000 1.0
C      1  0.5017070000000  0.4316960000000  0.6117350000000 1.0
C      1  0.5219450000000  0.4914740000000  0.5564690000000 1.0
C      1  0.5443300000000  0.4018020000000  0.4710720000000 1.0
C      1  0.4556450000000  0.5813090000000  0.4594750000000 1.0
C      1  0.4359060000000  0.4926060000000  0.5519780000000 1.0
C      1  0.4838770000000  0.4167610000000  0.6234930000000 1.0
C      1  0.5829180000000  0.5182700000000  0.4375480000000 1.0
C      1  0.5726690000000  0.5004890000000  0.5373330000000 1.0
C      1  0.4247740000000  0.4772380000000  0.5731600000000 1.0
C      1  0.4819800000000  0.4114460000000  0.4339960000000 1.0
C      1  0.5585640000000  0.4384010000000  0.5654590000000 1.0
C      1  0.5558320000000  0.4240240000000  0.4252680000000 1.0
C      1  0.3785130000000  0.4509890000000  0.4982050000000 1.0
C      1  0.5264260000000  0.4026720000000  0.5338440000000 1.0
C      1  0.5622760000000  0.4667350000000  0.5068870000000 1.0
C      1  0.5027480000000  0.4282130000000  0.5053340000000 1.0
C      1  0.3860400000000  0.4434270000000  0.5227150000000 1.0
C      1  0.4845020000000  0.4623610000000  0.4313860000000 1.0
C      1  0.4827760000000  0.4876950000000  0.6218010000000 1.0
C      1  0.3949260000000  0.4632530000000  0.4534300000000 1.0
C      1  0.5498470000000  0.5729220000000  0.5819680000000 1.0
C      1  0.5548800000000  0.4177340000000  0.4933040000000 1.0
C      1  0.5146900000000  0.4178600000000  0.5566390000000 1.0
C      1  0.4278670000000  0.5673780000000  0.4640430000000 1.0
C      1  0.5416770000000  0.4790690000000  0.4520030000000 1.0
C      1  0.5184350000000  0.4690790000000  0.4907250000000 1.0
C      1  0.6256250000000  0.4850730000000  0.5412840000000 1.0
C      1  0.5046250000000  0.4007200000000  0.5145950000000 1.0
C      1  0.4393520000000  0.3965980000000  0.4767250000000 1.0
C      1  0.4880890000000  0.5472560000000  0.4682950000000 1.0
C      1  0.4862390000000  0.4989680000000  0.4658180000000 1.0
C      1  0.5480380000000  0.5171900000000  0.3975330000000 1.0
C      1  0.5299690000000  0.4206360000000  0.4133160000000 1.0
C      1  0.4340610000000  0.4606650000000  0.4790250000000 1.0
C      1  0.4002310000000  0.5608230000000  0.5059760000000 1.0
C      1  0.4484580000000  0.5515250000000  0.5214410000000 1.0
C      1  0.4398390000000  0.5288500000000  0.5074620000000 1.0
C      1  0.4034420000000  0.5658970000000  0.5338280000000 1.0
C      1  0.4805990000000  0.5182080000000  0.5673620000000 1.0
C      1  0.5962760000000  0.4922400000000  0.4473130000000 1.0
C      1  0.5205330000000  0.4469810000000  0.5974520000000 1.0
C      1  0.5037530000000  0.5523890000000  0.5488550000000 1.0
C      1  0.4510390000000  0.5227480000000  0.4830950000000 1.0
C      1  0.4575060000000  0.4823300000000  0.6149620000000 1.0
C      1  0.4419990000000  0.5764720000000  0.5621080000000 1.0
C      1  0.5174440000000  0.5951880000000  0.4993390000000 1.0
C      1  0.4184670000000  0.5774370000000  0.4899790000000 1.0
C      1  0.5545070000000  0.4760570000000  0.6164540000000 1.0
C      1  0.4061600000000  0.4575800000000  0.5654030000000 1.0
C      1  0.5038030000000  0.4464610000000  0.4509300000000 1.0
C      1  0.3478900000000  0.4662730000000  0.4642350000000 1.0
C      1  0.4704920000000  0.4807190000000  0.4515990000000 1.0
C      1  0.4368310000000  0.4785480000000  0.5984790000000 1.0
C      1  0.5895870000000  0.4677800000000  0.4319550000000 1.0
C      1  0.6250660000000  0.5237860000000  0.5765980000000 1.0
C      1  0.4390050000000  0.4778500000000  0.4526300000000 1.0
C      1  0.6183790000000  0.4647590000000  0.5221300000000 1.0
C      1  0.4913970000000  0.3828410000000  0.4726380000000 1.0
C      1  0.5142280000000  0.5836530000000  0.4305000000000 1.0
C      1  0.5816710000000  0.4392240000000  0.5515830000000 1.0
C      1  0.6069600000000  0.4891870000000  0.4750210000000 1.0
C      1  0.5603690000000  0.5357330000000  0.4757110000000 1.0
C      1  0.5058050000000  0.4940720000000  0.4856660000000 1.0
C      1  0.5270440000000  0.5379020000000  0.5597280000000 1.0
C      1  0.4851890000000  0.4416140000000  0.5270460000000 1.0
C      1  0.5010540000000  0.4731250000000  0.4090790000000 1.0
C      1  0.5184290000000  0.3883530000000  0.4703670000000 1.0
C      1  0.5507460000000  0.4077060000000  0.5198640000000 1.0
C      1  0.4376320000000  0.4701890000000  0.5073920000000 1.0
C      1  0.4131120000000  0.4386510000000  0.4459690000000 1.0
C      1  0.5252500000000  0.5769620000000  0.4768450000000 1.0
C      1  0.4591710000000  0.4503470000000  0.4166910000000 1.0
C      1  0.3957390000000  0.5324290000000  0.4999940000000 1.0
C      1  0.4374970000000  0.5974320000000  0.5038010000000 1.0
C      1  0.6041690000000  0.5329490000000  0.5000210000000 1.0
C      1  0.5093880000000  0.4939190000000  0.6147480000000 1.0
C      1  0.6198400000000  0.5672880000000  0.5313480000000 1.0
C      1  0.4761230000000  0.4873560000000  0.5304000000000 1.0
C      1  0.4886840000000  0.5669310000000  0.3926460000000 1.0
C      1  0.4165790000000  0.4143830000000  0.5475540000000 1.0
C      1  0.6169920000000  0.5671720000000  0.5581040000000 1.0
C      1  0.5799370000000  0.5356870000000  0.5700790000000 1.0
C      1  0.4665680000000  0.5706230000000  0.5733090000000 1.0
C      1  0.4767810000000  0.3906910000000  0.5160250000000 1.0
C      1  0.4550570000000  0.6106150000000  0.4585580000000 1.0
C      1  0.4211160000000  0.4132690000000  0.4618200000000 1.0
C      1  0.3892050000000  0.5256470000000  0.4734000000000 1.0
C      1  0.4596840000000  0.4304120000000  0.3662500000000 1.0
C      1  0.5835820000000  0.5797300000000  0.5032250000000 1.0
C      1  0.6201010000000  0.4692320000000  0.4928530000000 1.0
C      1  0.5281840000000  0.4723620000000  0.6092960000000 1.0
C      1  0.5768960000000  0.4908500000000  0.5116820000000 1.0
C      1  0.5253920000000  0.4923000000000  0.5289280000000 1.0
C      1  0.5117200000000  0.5137660000000  0.5724530000000 1.0
C      1  0.4973750000000  0.5541180000000  0.5217840000000 1.0
C      1  0.5268250000000  0.5198570000000  0.3815060000000 1.0
C      1  0.4355940000000  0.4533490000000  0.4320420000000 1.0
C      1  0.6145710000000  0.5020040000000  0.5611330000000 1.0
C      1  0.4672510000000  0.4017870000000  0.5413320000000 1.0
C      1  0.5762490000000  0.5436290000000  0.4526230000000 1.0
C      1  0.5748860000000  0.4460520000000  0.4233040000000 1.0
C      1  0.5092360000000  0.5933060000000  0.5718570000000 1.0
C      1  0.4860580000000  0.4234280000000  0.5499050000000 1.0
C      1  0.5005420000000  0.5236870000000  0.3778700000000 1.0
C      1  0.4565910000000  0.5331970000000  0.4021560000000 1.0
C      1  0.5145810000000  0.5491150000000  0.6066700000000 1.0
C      1  0.5160280000000  0.5471490000000  0.4773680000000 1.0
C      1  0.5127680000000  0.5374970000000  0.5054970000000 1.0
C      1  0.5351180000000  0.4704530000000  0.5135200000000 1.0
C      1  0.4740350000000  0.5234470000000  0.4678780000000 1.0
C      1  0.5657530000000  0.5951480000000  0.5189060000000 1.0
C      1  0.4766620000000  0.4565130000000  0.4851780000000 1.0
C      1  0.4800600000000  0.5472840000000  0.5656560000000 1.0
C      1  0.4551150000000  0.6362200000000  0.4537270000000 1.0
C      1  0.5540390000000  0.4577890000000  0.4629580000000 1.0
C      1  0.4817080000000  0.5949760000000  0.5662790000000 1.0
C      1  0.5359830000000  0.5981490000000  0.5215530000000 1.0
C      1  0.4469180000000  0.5468780000000  0.4252390000000 1.0
C      1  0.5619520000000  0.5682280000000  0.4434340000000 1.0
C      1  0.4251630000000  0.5429160000000  0.4452790000000 1.0
C      1  0.5035250000000  0.4460950000000  0.4813040000000 1.0
C      1  0.4652380000000  0.6054290000000  0.5458580000000 1.0
C      1  0.5861290000000  0.5093960000000  0.5593580000000 1.0
C      1  0.4079620000000  0.5191880000000  0.4526250000000 1.0
C      1  0.4727770000000  0.5679930000000  0.4808930000000 1.0
C      1  0.5535920000000  0.5469840000000  0.5696780000000 1.0
C      1  0.5602620000000  0.5399950000000  0.5025490000000 1.0
C      1  0.5573670000000  0.5132290000000  0.4234040000000 1.0
C      1  0.4685940000000  0.4638270000000  0.5136960000000 1.0
C      1  0.4112350000000  0.4900080000000  0.4497980000000 1.0
C      1  0.5138150000000  0.4688800000000  0.3861420000000 1.0
C      1  0.5753190000000  0.6005090000000  0.5458560000000 1.0
C      1  0.4402270000000  0.4021320000000  0.5483020000000 1.0
C      1  0.3831620000000  0.5718180000000  0.5508890000000 1.0
C      1  0.6014780000000  0.4448840000000  0.5340490000000 1.0
C      1  0.4560370000000  0.4409840000000  0.4736370000000 1.0
C      1  0.5388760000000  0.5062280000000  0.4447950000000 1.0
C      1  0.4661700000000  0.3874300000000  0.4884770000000 1.0
C      1  0.5313820000000  0.4347080000000  0.5734170000000 1.0
C      1  0.5244430000000  0.4607760000000  0.3637420000000 1.0
C      1  0.5350430000000  0.5274010000000  0.4641340000000 1.0
C      1  0.4594020000000  0.4405970000000  0.3907050000000 1.0
C      1  0.4308280000000  0.5636550000000  0.5407450000000 1.0
C      1  0.5588000000000  0.4057380000000  0.4469330000000 1.0
C      1  0.6040270000000  0.5602910000000  0.5089700000000 1.0
C      1  0.5554000000000  0.5956490000000  0.5653180000000 1.0
C      1  0.4243760000000  0.4900540000000  0.5247640000000 1.0
C      1  0.4889130000000  0.5765150000000  0.4192870000000 1.0
C      1  0.4901560000000  0.6059490000000  0.5037060000000 1.0
C      1  0.4154140000000  0.5149340000000  0.5131060000000 1.0
C      1  0.4655820000000  0.4221550000000  0.4532780000000 1.0
C      1  0.4634850000000  0.6058390000000  0.5171270000000 1.0
C      1  0.4800560000000  0.5402930000000  0.3872490000000 1.0
C      1  0.3734390000000  0.4602170000000  0.4719650000000 1.0
C      1  0.5290900000000  0.6005570000000  0.5511230000000 1.0
C      1  0.6072510000000  0.5468700000000  0.5749490000000 1.0
C      1  0.5356180000000  0.5803280000000  0.4493700000000 1.0
C      1  0.5626400000000  0.4454210000000  0.4872890000000 1.0
C      1  0.5138600000000  0.5199020000000  0.6022980000000 1.0
C      1  0.4011880000000  0.4378360000000  0.5458230000000 1.0
C      1  0.5046640000000  0.4120820000000  0.4188290000000 1.0
C      1  0.4611960000000  0.4204940000000  0.3421900000000 1.0
C      1  0.5134310000000  0.5099090000000  0.5090200000000 1.0
C      1  0.4723750000000  0.5624070000000  0.5100770000000 1.0
C      1  0.4639140000000  0.5005090000000  0.5523210000000 1.0
C      1  0.5219770000000  0.5741530000000  0.5925460000000 1.0
C      1  0.4642720000000  0.5697490000000  0.4328830000000 1.0
END
