TITL C-599897-7526-509 0.0727835343219622 125000 -253.368878744613 0 0 43 (C1) n - 1
REM
REM in /home/nfs/bkarasulu/CARBON/AIRSS/Generating-Clusters/TERSOFF/Only-C1/FIRE-HFTN
REM
REM
REM
REM
REM
REM ./C.cell (11c1c37f851c82e70ff6c80c92926a4b)
REM AIRSS Version 0.9.1 bugfix July 2018 build 013d7b7c2542+ Fri, 06 Jul 2018 19:26:36 +0100
REM compiler GCC version 9.2.1 20190827 (Red Hat 9.2.1-1)
REM options -cpp -mtune=generic -march=x86-64 -g -O0 -fpre-include=/usr/include/finclude/math-vector-fortran.h
REM seed 89156274 -2120129176 806678672 1281722451 1005774996 -914077886 -1518146689 -76002282 996140149 -1490156879 -237892878 519516510 -134916164 -218795397 847119047 -1238342310 1796303963 1180462959 -1093627534 1498826418 -1791901969 161951450 159222975 1925384457 1784157495 193423710 808387763 -1000293758 1674606287 -1404092135 214852107 850964166 -344097184
REM
CELL 1.54180   50.00000   50.00000   50.00000   90.00000   90.00000   90.00000
LATT -1
SFAC C  
C      1  0.5542010000000  0.5412950000000  0.4334740000000 1.0
C      1  0.4953210000000  0.5372660000000  0.5123260000000 1.0
C      1  0.5239560000000  0.5330260000000  0.5132060000000 1.0
C      1  0.5270510000000  0.5442410000000  0.4414180000000 1.0
C      1  0.4149920000000  0.4779620000000  0.4553110000000 1.0
C      1  0.4887640000000  0.4851700000000  0.4571580000000 1.0
C      1  0.4495670000000  0.5292610000000  0.5292100000000 1.0
C      1  0.4623110000000  0.5254510000000  0.4783110000000 1.0
C      1  0.4524930000000  0.4368520000000  0.4930230000000 1.0
C      1  0.4909230000000  0.4313700000000  0.4617790000000 1.0
C      1  0.5575870000000  0.4657480000000  0.4666130000000 1.0
C      1  0.5624720000000  0.4905770000000  0.4760160000000 1.0
C      1  0.4803950000000  0.4928410000000  0.5089810000000 1.0
C      1  0.5596180000000  0.5188290000000  0.4759070000000 1.0
C      1  0.4320000000000  0.5126190000000  0.5120620000000 1.0
C      1  0.4919670000000  0.5299310000000  0.5589630000000 1.0
C      1  0.4242730000000  0.4644210000000  0.5237890000000 1.0
C      1  0.5070120000000  0.5271520000000  0.4317270000000 1.0
C      1  0.5146320000000  0.5774150000000  0.4754200000000 1.0
C      1  0.5708090000000  0.4963460000000  0.6497260000000 1.0
C      1  0.5579350000000  0.5018740000000  0.6277400000000 1.0
C      1  0.5709820000000  0.5310750000000  0.4524260000000 1.0
C      1  0.4490550000000  0.4534360000000  0.5157160000000 1.0
C      1  0.5299950000000  0.5133510000000  0.5334540000000 1.0
C      1  0.4937860000000  0.5046190000000  0.4375790000000 1.0
C      1  0.4177380000000  0.4907260000000  0.5231260000000 1.0
C      1  0.4667700000000  0.4441940000000  0.4696020000000 1.0
C      1  0.5448470000000  0.5074940000000  0.6053860000000 1.0
C      1  0.5183330000000  0.5185720000000  0.5593430000000 1.0
C      1  0.4831180000000  0.5181410000000  0.4954970000000 1.0
C      1  0.4390380000000  0.5101530000000  0.4834260000000 1.0
C      1  0.4772530000000  0.5370420000000  0.5356730000000 1.0
C      1  0.4710270000000  0.4706260000000  0.5206100000000 1.0
C      1  0.5317880000000  0.5130810000000  0.5830300000000 1.0
C      1  0.4384370000000  0.4863600000000  0.4667700000000 1.0
C      1  0.5221720000000  0.4765580000000  0.4999170000000 1.0
C      1  0.5176910000000  0.4325890000000  0.4586420000000 1.0
C      1  0.5415840000000  0.4450200000000  0.4601030000000 1.0
C      1  0.5380640000000  0.5352350000000  0.4880530000000 1.0
C      1  0.5320650000000  0.4872160000000  0.5226970000000 1.0
C      1  0.5092040000000  0.4796970000000  0.4764070000000 1.0
C      1  0.5253080000000  0.5531720000000  0.4687410000000 1.0
C      1  0.4634630000000  0.4719970000000  0.4616420000000 1.0
END
