TITL C-599891-72-894 452.619311891017 125000 -632.288231873364 0 0 105 (C1) n - 1
REM
REM in /home/nfs/bkarasulu/CARBON/AIRSS/Generating-Clusters/TERSOFF/Only-C1/FIRE-HFTN
REM
REM
REM
REM
REM
REM ./C.cell (11c1c37f851c82e70ff6c80c92926a4b)
REM AIRSS Version 0.9.1 bugfix July 2018 build 013d7b7c2542+ Fri, 06 Jul 2018 19:26:36 +0100
REM compiler GCC version 9.2.1 20190827 (Red Hat 9.2.1-1)
REM options -cpp -mtune=generic -march=x86-64 -g -O0 -fpre-include=/usr/include/finclude/math-vector-fortran.h
REM seed -611170635 -1461024029 -1010183221 -1168094224 -1304487176 -1955408586 -1891299047 -507032162 -1540060929 -1030618039 274466761 -1927809806 1046557428 456847765 1252426216 1040852516 769139265 -847459565 -468691792 -1360321263 1371813758 -1833148905 -310984078 -444324996 349360114 -1274660336 2079710658 -1290958894 -359960200 -57367489 -687604841 -440372038 -1147906593
REM
CELL 1.54180   50.00000   50.00000   50.00000   90.00000   90.00000   90.00000
LATT -1
SFAC C  
C      1  0.4259760000000  0.5279230000000  0.4371940000000 1.0
C      1  0.4782400000000  0.4888050000000  0.4225150000000 1.0
C      1  0.5282230000000  0.4979680000000  0.4181180000000 1.0
C      1  0.4453890000000  0.5349220000000  0.5580650000000 1.0
C      1  0.4483830000000  0.4444990000000  0.5682500000000 1.0
C      1  0.4683950000000  0.4817860000000  0.4683420000000 1.0
C      1  0.5246510000000  0.4830970000000  0.5469100000000 1.0
C      1  0.4346140000000  0.5082100000000  0.5057050000000 1.0
C      1  0.5075620000000  0.4626460000000  0.5560420000000 1.0
C      1  0.4208210000000  0.5173200000000  0.4834010000000 1.0
C      1  0.5544780000000  0.4567130000000  0.4452150000000 1.0
C      1  0.5628460000000  0.4658010000000  0.5657010000000 1.0
C      1  0.5325480000000  0.4454780000000  0.4295940000000 1.0
C      1  0.5014370000000  0.5355730000000  0.4265320000000 1.0
C      1  0.5419410000000  0.5516220000000  0.4109230000000 1.0
C      1  0.5696020000000  0.4812660000000  0.4355740000000 1.0
C      1  0.5848580000000  0.5392990000000  0.4376560000000 1.0
C      1  0.5005080000000  0.4140770000000  0.6584530000000 1.0
C      1  0.5431940000000  0.5011170000000  0.4882370000000 1.0
C      1  0.5300970000000  0.4110950000000  0.5245750000000 1.0
C      1  0.4223560000000  0.4998740000000  0.4337370000000 1.0
C      1  0.4222200000000  0.5028900000000  0.5310240000000 1.0
C      1  0.5512330000000  0.5722890000000  0.4814300000000 1.0
C      1  0.5013210000000  0.4347620000000  0.6426070000000 1.0
C      1  0.4840500000000  0.5454740000000  0.5834470000000 1.0
C      1  0.5165820000000  0.5612610000000  0.4258630000000 1.0
C      1  0.5447020000000  0.5414640000000  0.5514860000000 1.0
C      1  0.4866600000000  0.4696240000000  0.5156400000000 1.0
C      1  0.4664950000000  0.5220920000000  0.5736740000000 1.0
C      1  0.5125520000000  0.5180070000000  0.4056390000000 1.0
C      1  0.5196210000000  0.4884490000000  0.4429830000000 1.0
C      1  0.4628550000000  0.5086810000000  0.5055600000000 1.0
C      1  0.4756270000000  0.4004850000000  0.5128610000000 1.0
C      1  0.5288780000000  0.5575980000000  0.5359740000000 1.0
C      1  0.5234830000000  0.5149350000000  0.5860830000000 1.0
C      1  0.4289280000000  0.4750850000000  0.4426190000000 1.0
C      1  0.4907330000000  0.4668290000000  0.4122250000000 1.0
C      1  0.4221640000000  0.5292240000000  0.5430800000000 1.0
C      1  0.4896220000000  0.5275970000000  0.4514200000000 1.0
C      1  0.5265970000000  0.5849800000000  0.4841310000000 1.0
C      1  0.5028690000000  0.4754580000000  0.6087500000000 1.0
C      1  0.5817940000000  0.5387980000000  0.4981360000000 1.0
C      1  0.4236140000000  0.4538320000000  0.5212790000000 1.0
C      1  0.5966980000000  0.5191150000000  0.4548240000000 1.0
C      1  0.5096210000000  0.4162720000000  0.5454680000000 1.0
C      1  0.5537370000000  0.4486330000000  0.4733970000000 1.0
C      1  0.5496260000000  0.4334180000000  0.5249230000000 1.0
C      1  0.4772760000000  0.5012000000000  0.4489670000000 1.0
C      1  0.4322450000000  0.4665820000000  0.5655190000000 1.0
C      1  0.5347650000000  0.5269050000000  0.4970090000000 1.0
C      1  0.5929470000000  0.4917330000000  0.4480500000000 1.0
C      1  0.4149390000000  0.5511400000000  0.5249560000000 1.0
C      1  0.5708180000000  0.5801090000000  0.4628360000000 1.0
C      1  0.5041780000000  0.4448210000000  0.4248890000000 1.0
C      1  0.5276360000000  0.4907170000000  0.4679260000000 1.0
C      1  0.4505550000000  0.4114910000000  0.5041880000000 1.0
C      1  0.5470750000000  0.5172120000000  0.5680630000000 1.0
C      1  0.5495120000000  0.4431380000000  0.5535560000000 1.0
C      1  0.4225840000000  0.4757780000000  0.5401060000000 1.0
C      1  0.5219730000000  0.3935670000000  0.5042840000000 1.0
C      1  0.4777910000000  0.5696350000000  0.5678680000000 1.0
C      1  0.4955050000000  0.5454220000000  0.4732700000000 1.0
C      1  0.5627750000000  0.5317680000000  0.4211870000000 1.0
C      1  0.4620870000000  0.4373870000000  0.4509610000000 1.0
C      1  0.4952700000000  0.3865630000000  0.4979620000000 1.0
C      1  0.4818450000000  0.4127970000000  0.5392830000000 1.0
C      1  0.5100600000000  0.5394540000000  0.5929750000000 1.0
C      1  0.4795860000000  0.4964890000000  0.5687220000000 1.0
C      1  0.4826740000000  0.5273830000000  0.5128750000000 1.0
C      1  0.4759680000000  0.5891510000000  0.4855750000000 1.0
C      1  0.5648000000000  0.4943290000000  0.5581090000000 1.0
C      1  0.4679680000000  0.5788490000000  0.4388850000000 1.0
C      1  0.4234340000000  0.5650570000000  0.5028570000000 1.0
C      1  0.5995270000000  0.5266460000000  0.4818870000000 1.0
C      1  0.4597480000000  0.5574980000000  0.5475100000000 1.0
C      1  0.5860260000000  0.5664110000000  0.4453810000000 1.0
C      1  0.5562530000000  0.5026310000000  0.4199200000000 1.0
C      1  0.4891140000000  0.3678570000000  0.4791370000000 1.0
C      1  0.4772530000000  0.5515700000000  0.5256580000000 1.0
C      1  0.5016770000000  0.5701910000000  0.5248180000000 1.0
C      1  0.5698680000000  0.4933520000000  0.5293420000000 1.0
C      1  0.4576340000000  0.4281970000000  0.5468140000000 1.0
C      1  0.4401080000000  0.4307770000000  0.5226130000000 1.0
C      1  0.4964710000000  0.5810360000000  0.4323750000000 1.0
C      1  0.5030370000000  0.4940480000000  0.5878770000000 1.0
C      1  0.5181210000000  0.5054180000000  0.5343990000000 1.0
C      1  0.5285910000000  0.5359370000000  0.3891330000000 1.0
C      1  0.5559020000000  0.4831070000000  0.5066810000000 1.0
C      1  0.4508100000000  0.5677910000000  0.4192600000000 1.0
C      1  0.4858410000000  0.4295110000000  0.4403840000000 1.0
C      1  0.5548640000000  0.5471090000000  0.4945030000000 1.0
C      1  0.4504140000000  0.4625650000000  0.4565840000000 1.0
C      1  0.5444050000000  0.4545940000000  0.5027430000000 1.0
C      1  0.5021390000000  0.4556540000000  0.6263180000000 1.0
C      1  0.5009320000000  0.5751020000000  0.4938440000000 1.0
C      1  0.4347460000000  0.5624800000000  0.4761470000000 1.0
C      1  0.4263140000000  0.5373060000000  0.4641800000000 1.0
C      1  0.5120400000000  0.4580620000000  0.5058070000000 1.0
C      1  0.4945660000000  0.5863740000000  0.5506200000000 1.0
C      1  0.4574210000000  0.5788340000000  0.4663490000000 1.0
C      1  0.4728880000000  0.4843970000000  0.4958770000000 1.0
C      1  0.4347540000000  0.5462630000000  0.4178540000000 1.0
C      1  0.4821480000000  0.4743440000000  0.5465740000000 1.0
C      1  0.5207150000000  0.4383840000000  0.5603260000000 1.0
C      1  0.5110040000000  0.5215320000000  0.5129430000000 1.0
END
