TITL C-599895-9959-1048 -83.8670248305457 125000 -145.519922321548 0 0 26 (C1) n - 1
REM
REM in /home/nfs/bkarasulu/CARBON/AIRSS/Generating-Clusters/TERSOFF/Only-C1/FIRE-HFTN
REM
REM
REM
REM
REM
REM ./C.cell (11c1c37f851c82e70ff6c80c92926a4b)
REM AIRSS Version 0.9.1 bugfix July 2018 build 013d7b7c2542+ Fri, 06 Jul 2018 19:26:36 +0100
REM compiler GCC version 9.2.1 20190827 (Red Hat 9.2.1-1)
REM options -cpp -mtune=generic -march=x86-64 -g -O0 -fpre-include=/usr/include/finclude/math-vector-fortran.h
REM seed -1147155761 1935586226 -1361008683 848748570 1944273255 -775300731 332829235 787458549 63403077 6803675 -184910836 -538678336 -2142937698 -888211935 120253523 7212719 -1179567376 -1989639011 1591917895 -149315843 1728775674 -202112754 1932882178 -1034546261 -895560110 805958797 -798803408 -804056837 675979644 -1165042742 -1839358499 117792840 692130956
REM
CELL 1.54180   50.00000   50.00000   50.00000   90.00000   90.00000   90.00000
LATT -1
SFAC C  
C      1  0.4994270000000  0.4806820000000  0.5218480000000 1.0
C      1  0.4392950000000  0.5127350000000  0.4818510000000 1.0
C      1  0.4800230000000  0.4871350000000  0.5418110000000 1.0
C      1  0.4717370000000  0.5358870000000  0.4428700000000 1.0
C      1  0.4717490000000  0.4524400000000  0.4932680000000 1.0
C      1  0.4673150000000  0.5298500000000  0.4694930000000 1.0
C      1  0.4362270000000  0.4858360000000  0.4784150000000 1.0
C      1  0.4948870000000  0.4979260000000  0.4121910000000 1.0
C      1  0.5661880000000  0.5222850000000  0.5516690000000 1.0
C      1  0.5179270000000  0.5012050000000  0.5134690000000 1.0
C      1  0.4608110000000  0.5061690000000  0.5338260000000 1.0
C      1  0.4805060000000  0.5322200000000  0.4954290000000 1.0
C      1  0.5064130000000  0.5244340000000  0.5021710000000 1.0
C      1  0.5461210000000  0.4973870000000  0.5151910000000 1.0
C      1  0.5681600000000  0.5257010000000  0.5774290000000 1.0
C      1  0.4961660000000  0.4567570000000  0.5062920000000 1.0
C      1  0.5452010000000  0.4482690000000  0.5025410000000 1.0
C      1  0.4802700000000  0.4758550000000  0.5666170000000 1.0
C      1  0.5563120000000  0.4720620000000  0.5082280000000 1.0
C      1  0.5765610000000  0.5337940000000  0.5061740000000 1.0
C      1  0.4644880000000  0.5602260000000  0.4326860000000 1.0
C      1  0.5192230000000  0.4413230000000  0.5017430000000 1.0
C      1  0.4584820000000  0.5218380000000  0.5113210000000 1.0
C      1  0.4495490000000  0.4630970000000  0.4829590000000 1.0
C      1  0.5632150000000  0.5181100000000  0.5241830000000 1.0
C      1  0.4837470000000  0.5167760000000  0.4263240000000 1.0
END
