TITL C-599894-471-1437 0.257728502615125 125000 -915.726592805735 0 0 147 (C1) n - 1
REM
REM in /home/nfs/bkarasulu/CARBON/AIRSS/Generating-Clusters/TERSOFF/Only-C1/FIRE-HFTN
REM
REM
REM
REM
REM
REM ./C.cell (11c1c37f851c82e70ff6c80c92926a4b)
REM AIRSS Version 0.9.1 bugfix July 2018 build 013d7b7c2542+ Fri, 06 Jul 2018 19:26:36 +0100
REM compiler GCC version 9.2.1 20190827 (Red Hat 9.2.1-1)
REM options -cpp -mtune=generic -march=x86-64 -g -O0 -fpre-include=/usr/include/finclude/math-vector-fortran.h
REM seed 1385636047 1876667933 -2061135811 -15753974 258516326 1372381135 -410920908 -1072525631 1279390790 169269469 -2138166190 -1221986664 -1116636259 -734153545 -1731688897 -1357661188 -1878717167 1938173213 823130430 1501664055 1374321204 1733336601 -1497581521 415948112 -339169100 1129967718 -1119923578 1295616609 -2085078690 1166251648 -533799636 572297697 1835221080
REM
CELL 1.54180   50.00000   50.00000   50.00000   90.00000   90.00000   90.00000
LATT -1
SFAC C  
C      1  0.6081160000000  0.5083480000000  0.5741280000000 1.0
C      1  0.5004280000000  0.5558420000000  0.4079440000000 1.0
C      1  0.4788540000000  0.5536720000000  0.4837130000000 1.0
C      1  0.5696940000000  0.5454140000000  0.5474270000000 1.0
C      1  0.5295780000000  0.5880080000000  0.5439340000000 1.0
C      1  0.5601340000000  0.5394700000000  0.4375490000000 1.0
C      1  0.5191970000000  0.3936030000000  0.5330690000000 1.0
C      1  0.5575260000000  0.5663760000000  0.4497650000000 1.0
C      1  0.4789330000000  0.4625210000000  0.5058100000000 1.0
C      1  0.4584960000000  0.4955450000000  0.3895860000000 1.0
C      1  0.5454710000000  0.4050300000000  0.5360650000000 1.0
C      1  0.5715200000000  0.4620670000000  0.5259720000000 1.0
C      1  0.6601580000000  0.3796930000000  0.4889180000000 1.0
C      1  0.5152590000000  0.4894400000000  0.4998170000000 1.0
C      1  0.4873040000000  0.4115060000000  0.4100140000000 1.0
C      1  0.5401600000000  0.5930970000000  0.5193220000000 1.0
C      1  0.4807190000000  0.4110700000000  0.4796960000000 1.0
C      1  0.3923910000000  0.4663400000000  0.4609940000000 1.0
C      1  0.4624290000000  0.5319210000000  0.4934150000000 1.0
C      1  0.4759800000000  0.4825090000000  0.4369080000000 1.0
C      1  0.4540980000000  0.4980590000000  0.5821240000000 1.0
C      1  0.4648800000000  0.5264970000000  0.5210090000000 1.0
C      1  0.5212920000000  0.5130960000000  0.4410550000000 1.0
C      1  0.5392940000000  0.5844150000000  0.4358430000000 1.0
C      1  0.5365670000000  0.5154040000000  0.6090580000000 1.0
C      1  0.4464040000000  0.5103090000000  0.5357380000000 1.0
C      1  0.4947280000000  0.5329470000000  0.5848400000000 1.0
C      1  0.4181710000000  0.5231210000000  0.5949460000000 1.0
C      1  0.4639560000000  0.4154670000000  0.5032960000000 1.0
C      1  0.5289640000000  0.4759960000000  0.5466640000000 1.0
C      1  0.4606280000000  0.4460720000000  0.6033330000000 1.0
C      1  0.3998040000000  0.5164950000000  0.4633050000000 1.0
C      1  0.4135850000000  0.4394010000000  0.5837520000000 1.0
C      1  0.5162920000000  0.5755080000000  0.4215220000000 1.0
C      1  0.4714320000000  0.5583130000000  0.4067960000000 1.0
C      1  0.5448290000000  0.6118510000000  0.4364380000000 1.0
C      1  0.4066350000000  0.4920190000000  0.5163640000000 1.0
C      1  0.5731650000000  0.4880310000000  0.5137120000000 1.0
C      1  0.5927870000000  0.4140790000000  0.5172570000000 1.0
C      1  0.4057850000000  0.5372930000000  0.4832820000000 1.0
C      1  0.3878620000000  0.4920980000000  0.4720890000000 1.0
C      1  0.5553330000000  0.5347130000000  0.5251290000000 1.0
C      1  0.3972900000000  0.4820910000000  0.5700520000000 1.0
C      1  0.5778790000000  0.5189830000000  0.4484090000000 1.0
C      1  0.5130270000000  0.5698170000000  0.5581430000000 1.0
C      1  0.5248230000000  0.4969380000000  0.5264730000000 1.0
C      1  0.6380480000000  0.3909510000000  0.4982450000000 1.0
C      1  0.5883200000000  0.5653780000000  0.5398850000000 1.0
C      1  0.4042780000000  0.4554830000000  0.5627010000000 1.0
C      1  0.5900360000000  0.4419020000000  0.5200080000000 1.0
C      1  0.4797840000000  0.4946510000000  0.4079090000000 1.0
C      1  0.5365640000000  0.5289240000000  0.4231110000000 1.0
C      1  0.5097010000000  0.4010630000000  0.4248210000000 1.0
C      1  0.4968250000000  0.5244080000000  0.4508830000000 1.0
C      1  0.4228520000000  0.5664580000000  0.5161120000000 1.0
C      1  0.5283150000000  0.5079260000000  0.4839350000000 1.0
C      1  0.5483900000000  0.4557280000000  0.5422460000000 1.0
C      1  0.5814350000000  0.5093470000000  0.5802960000000 1.0
C      1  0.4772420000000  0.4518480000000  0.5809640000000 1.0
C      1  0.5216280000000  0.4695610000000  0.5928860000000 1.0
C      1  0.4480300000000  0.5377240000000  0.3667710000000 1.0
C      1  0.4466130000000  0.5221080000000  0.5939270000000 1.0
C      1  0.4253070000000  0.4474510000000  0.5169230000000 1.0
C      1  0.4635270000000  0.6039310000000  0.4851250000000 1.0
C      1  0.4661950000000  0.4058080000000  0.4551080000000 1.0
C      1  0.4555600000000  0.4896300000000  0.5552710000000 1.0
C      1  0.5783610000000  0.4940140000000  0.4641040000000 1.0
C      1  0.4882620000000  0.5367100000000  0.5323480000000 1.0
C      1  0.5163290000000  0.4856620000000  0.5701770000000 1.0
C      1  0.4961820000000  0.4362860000000  0.3986580000000 1.0
C      1  0.5027190000000  0.5101480000000  0.5683550000000 1.0
C      1  0.4967610000000  0.4721020000000  0.4865240000000 1.0
C      1  0.4651070000000  0.4078710000000  0.4278790000000 1.0
C      1  0.5547210000000  0.4779530000000  0.4599290000000 1.0
C      1  0.5406940000000  0.5488200000000  0.5050860000000 1.0
C      1  0.5018200000000  0.5434440000000  0.4716030000000 1.0
C      1  0.5222010000000  0.4792920000000  0.3990180000000 1.0
C      1  0.4137570000000  0.5259600000000  0.4395570000000 1.0
C      1  0.4883650000000  0.5627810000000  0.5440820000000 1.0
C      1  0.5237840000000  0.5354010000000  0.4874910000000 1.0
C      1  0.3841910000000  0.4259920000000  0.5303920000000 1.0
C      1  0.5096210000000  0.4168720000000  0.4752400000000 1.0
C      1  0.5939470000000  0.5726880000000  0.4879880000000 1.0
C      1  0.5702210000000  0.3991820000000  0.5250160000000 1.0
C      1  0.5534770000000  0.5068240000000  0.5228690000000 1.0
C      1  0.4124700000000  0.5393780000000  0.5120590000000 1.0
C      1  0.4628010000000  0.5722750000000  0.5535000000000 1.0
C      1  0.4598390000000  0.5572180000000  0.3809670000000 1.0
C      1  0.6231930000000  0.5318360000000  0.4835890000000 1.0
C      1  0.4366030000000  0.6040510000000  0.4862220000000 1.0
C      1  0.4296200000000  0.4517300000000  0.4357490000000 1.0
C      1  0.4351330000000  0.4358220000000  0.5987760000000 1.0
C      1  0.5063290000000  0.5170280000000  0.5403860000000 1.0
C      1  0.5417670000000  0.5371160000000  0.5895810000000 1.0
C      1  0.5349480000000  0.4980850000000  0.4591720000000 1.0
C      1  0.4573470000000  0.5091090000000  0.4765370000000 1.0
C      1  0.5689640000000  0.4874020000000  0.5940810000000 1.0
C      1  0.3833830000000  0.4919740000000  0.5003940000000 1.0
C      1  0.6159540000000  0.4022020000000  0.5075650000000 1.0
C      1  0.4684240000000  0.4635490000000  0.5549630000000 1.0
C      1  0.4188980000000  0.5153970000000  0.5267080000000 1.0
C      1  0.5152750000000  0.4177250000000  0.4464200000000 1.0
C      1  0.4750170000000  0.4505180000000  0.5308380000000 1.0
C      1  0.5059350000000  0.5032360000000  0.3985650000000 1.0
C      1  0.5145870000000  0.4275840000000  0.5642210000000 1.0
C      1  0.4960590000000  0.4664750000000  0.4561070000000 1.0
C      1  0.5672130000000  0.5747930000000  0.4768200000000 1.0
C      1  0.4595250000000  0.5667330000000  0.5811410000000 1.0
C      1  0.5619320000000  0.6886030000000  0.4446280000000 1.0
C      1  0.4522240000000  0.5578560000000  0.4283830000000 1.0
C      1  0.5476780000000  0.5753490000000  0.4984460000000 1.0
C      1  0.5154630000000  0.4542290000000  0.4112130000000 1.0
C      1  0.5895610000000  0.4943830000000  0.4907000000000 1.0
C      1  0.4774170000000  0.4218850000000  0.5288020000000 1.0
C      1  0.4363560000000  0.4268370000000  0.4995880000000 1.0
C      1  0.5424190000000  0.4864640000000  0.6056340000000 1.0
C      1  0.4521910000000  0.4651260000000  0.4326800000000 1.0
C      1  0.4287910000000  0.5512110000000  0.4432050000000 1.0
C      1  0.4984710000000  0.4106500000000  0.5446040000000 1.0
C      1  0.5056320000000  0.4456990000000  0.5846240000000 1.0
C      1  0.4184940000000  0.5607690000000  0.4690690000000 1.0
C      1  0.4227150000000  0.5800760000000  0.4901090000000 1.0
C      1  0.5504720000000  0.6376070000000  0.4389430000000 1.0
C      1  0.4434430000000  0.4864890000000  0.4869490000000 1.0
C      1  0.5654250000000  0.5327450000000  0.5731340000000 1.0
C      1  0.4692180000000  0.4510300000000  0.6288360000000 1.0
C      1  0.6141610000000  0.5563360000000  0.4773180000000 1.0
C      1  0.4734600000000  0.5079450000000  0.4530900000000 1.0
C      1  0.4466140000000  0.5113460000000  0.3715610000000 1.0
C      1  0.6138840000000  0.5084040000000  0.4927670000000 1.0
C      1  0.4117140000000  0.4459860000000  0.4564570000000 1.0
C      1  0.5322490000000  0.4342360000000  0.4843010000000 1.0
C      1  0.4009770000000  0.5051520000000  0.5837110000000 1.0
C      1  0.5179740000000  0.5516530000000  0.5807370000000 1.0
C      1  0.5562460000000  0.6633170000000  0.4418030000000 1.0
C      1  0.4211380000000  0.4266210000000  0.4752400000000 1.0
C      1  0.4048720000000  0.4430060000000  0.5367840000000 1.0
C      1  0.4779690000000  0.5814250000000  0.4862520000000 1.0
C      1  0.6819040000000  0.3686200000000  0.4797440000000 1.0
C      1  0.4267480000000  0.4740040000000  0.5064790000000 1.0
C      1  0.5424970000000  0.4526240000000  0.4624160000000 1.0
C      1  0.4675020000000  0.5415850000000  0.5917540000000 1.0
C      1  0.5160000000000  0.5314770000000  0.4019610000000 1.0
C      1  0.5188710000000  0.4484750000000  0.4413420000000 1.0
C      1  0.4401390000000  0.5745170000000  0.5368210000000 1.0
C      1  0.5408850000000  0.4297180000000  0.5510160000000 1.0
C      1  0.5959860000000  0.5765440000000  0.5164260000000 1.0
END
