TITL C-599896-8500-1212 14.918433625361 125000 -760.890387932997 0 0 125 (C1) n - 1
REM
REM in /home/nfs/bkarasulu/CARBON/AIRSS/Generating-Clusters/TERSOFF/Only-C1/FIRE-HFTN
REM
REM
REM
REM
REM
REM ./C.cell (11c1c37f851c82e70ff6c80c92926a4b)
REM AIRSS Version 0.9.1 bugfix July 2018 build 013d7b7c2542+ Fri, 06 Jul 2018 19:26:36 +0100
REM compiler GCC version 9.2.1 20190827 (Red Hat 9.2.1-1)
REM options -cpp -mtune=generic -march=x86-64 -g -O0 -fpre-include=/usr/include/finclude/math-vector-fortran.h
REM seed 1731473646 -1721237213 -791697900 -1557652836 1760997076 2008554640 -600078811 859968077 2061947094 1496861224 708197409 971462274 2013306974 1950214781 1715770279 -2038250044 184035570 1563958566 1164268066 1964617151 -1786998568 -1435265686 1367036418 -117304692 -374354571 -257440025 80642536 199442371 53702057 -1735705990 1499923433 -1984800526 -960496556
REM
CELL 1.54180   50.00000   50.00000   50.00000   90.00000   90.00000   90.00000
LATT -1
SFAC C  
C      1  0.5511330000000  0.4540490000000  0.5091710000000 1.0
C      1  0.4544470000000  0.5351460000000  0.5721410000000 1.0
C      1  0.5585380000000  0.4653010000000  0.5581320000000 1.0
C      1  0.5680090000000  0.5561030000000  0.4580440000000 1.0
C      1  0.5319580000000  0.5263090000000  0.6466470000000 1.0
C      1  0.5609370000000  0.4962660000000  0.5052430000000 1.0
C      1  0.4709510000000  0.5561470000000  0.5737590000000 1.0
C      1  0.4359720000000  0.4214180000000  0.4773660000000 1.0
C      1  0.5499650000000  0.4499800000000  0.5803840000000 1.0
C      1  0.5193340000000  0.5550710000000  0.6095220000000 1.0
C      1  0.4632540000000  0.4493120000000  0.5465860000000 1.0
C      1  0.5095810000000  0.4677910000000  0.5635580000000 1.0
C      1  0.4469430000000  0.4964460000000  0.5008670000000 1.0
C      1  0.5196420000000  0.5306620000000  0.4173070000000 1.0
C      1  0.5374050000000  0.5898280000000  0.4549010000000 1.0
C      1  0.4877560000000  0.4650700000000  0.4400400000000 1.0
C      1  0.4764130000000  0.6216760000000  0.4722230000000 1.0
C      1  0.4452530000000  0.5225110000000  0.4903380000000 1.0
C      1  0.5382950000000  0.5093970000000  0.4232300000000 1.0
C      1  0.4244340000000  0.5497660000000  0.5262960000000 1.0
C      1  0.5334790000000  0.5243110000000  0.5341410000000 1.0
C      1  0.4940110000000  0.5882240000000  0.4388080000000 1.0
C      1  0.5565550000000  0.5757400000000  0.5064570000000 1.0
C      1  0.5174470000000  0.5475770000000  0.4401900000000 1.0
C      1  0.5854570000000  0.4818980000000  0.4955890000000 1.0
C      1  0.5322990000000  0.4329170000000  0.4685350000000 1.0
C      1  0.4239090000000  0.5303380000000  0.4060780000000 1.0
C      1  0.5524040000000  0.5205690000000  0.6029290000000 1.0
C      1  0.5494360000000  0.3878170000000  0.5055020000000 1.0
C      1  0.4952910000000  0.5510250000000  0.5213090000000 1.0
C      1  0.5879410000000  0.5345070000000  0.4944070000000 1.0
C      1  0.5299510000000  0.4435620000000  0.4155240000000 1.0
C      1  0.5456470000000  0.5358610000000  0.5576170000000 1.0
C      1  0.4932880000000  0.4816790000000  0.5094350000000 1.0
C      1  0.5444820000000  0.4559380000000  0.4796570000000 1.0
C      1  0.5773310000000  0.4405120000000  0.4381300000000 1.0
C      1  0.5100130000000  0.3876340000000  0.4535550000000 1.0
C      1  0.3902410000000  0.5176610000000  0.5112800000000 1.0
C      1  0.4470810000000  0.5864400000000  0.4299430000000 1.0
C      1  0.4215590000000  0.5048040000000  0.5474770000000 1.0
C      1  0.4782530000000  0.4708530000000  0.5634850000000 1.0
C      1  0.4284300000000  0.4173540000000  0.5040260000000 1.0
C      1  0.4603830000000  0.4706880000000  0.6163130000000 1.0
C      1  0.4249970000000  0.5765770000000  0.5353430000000 1.0
C      1  0.4864120000000  0.3452000000000  0.4517380000000 1.0
C      1  0.5310990000000  0.5917800000000  0.5039360000000 1.0
C      1  0.5271450000000  0.4430080000000  0.5206400000000 1.0
C      1  0.4922950000000  0.3696110000000  0.4933590000000 1.0
C      1  0.4953280000000  0.5682880000000  0.5668320000000 1.0
C      1  0.4974720000000  0.5374190000000  0.4006440000000 1.0
C      1  0.4685760000000  0.4704990000000  0.5915940000000 1.0
C      1  0.5892360000000  0.5011120000000  0.5382690000000 1.0
C      1  0.4212870000000  0.4776650000000  0.5343160000000 1.0
C      1  0.5797040000000  0.5321150000000  0.4465140000000 1.0
C      1  0.3923050000000  0.5137770000000  0.4445480000000 1.0
C      1  0.4633730000000  0.6125040000000  0.5309440000000 1.0
C      1  0.3984360000000  0.4970490000000  0.4929050000000 1.0
C      1  0.5178650000000  0.5662540000000  0.5837750000000 1.0
C      1  0.5110600000000  0.5951190000000  0.5253230000000 1.0
C      1  0.5838450000000  0.5067550000000  0.5657160000000 1.0
C      1  0.4804310000000  0.4095490000000  0.5197810000000 1.0
C      1  0.4380920000000  0.4604250000000  0.4365640000000 1.0
C      1  0.5959420000000  0.5227960000000  0.4688060000000 1.0
C      1  0.4958770000000  0.3666120000000  0.4656340000000 1.0
C      1  0.5740280000000  0.4671900000000  0.5346900000000 1.0
C      1  0.4247140000000  0.5469810000000  0.4492260000000 1.0
C      1  0.4706670000000  0.5555630000000  0.5099260000000 1.0
C      1  0.4129000000000  0.4501740000000  0.4454340000000 1.0
C      1  0.5611500000000  0.5197810000000  0.5761860000000 1.0
C      1  0.4483710000000  0.5402140000000  0.3992600000000 1.0
C      1  0.4680180000000  0.4951200000000  0.5482040000000 1.0
C      1  0.5710160000000  0.3962190000000  0.4919070000000 1.0
C      1  0.4460690000000  0.5434940000000  0.5088940000000 1.0
C      1  0.4281090000000  0.5742710000000  0.4444950000000 1.0
C      1  0.4954990000000  0.6039260000000  0.4643800000000 1.0
C      1  0.4345040000000  0.4522570000000  0.5407010000000 1.0
C      1  0.5274060000000  0.4182290000000  0.5353410000000 1.0
C      1  0.5109780000000  0.5282770000000  0.5166850000000 1.0
C      1  0.5199870000000  0.5751910000000  0.4378260000000 1.0
C      1  0.5407950000000  0.5615230000000  0.5679730000000 1.0
C      1  0.5336710000000  0.4799810000000  0.5498920000000 1.0
C      1  0.4213800000000  0.4837520000000  0.5051890000000 1.0
C      1  0.3930420000000  0.4676970000000  0.4542360000000 1.0
C      1  0.5006110000000  0.4887040000000  0.4498990000000 1.0
C      1  0.5036630000000  0.5060770000000  0.4981610000000 1.0
C      1  0.5727460000000  0.5734850000000  0.5302400000000 1.0
C      1  0.5028600000000  0.5714450000000  0.5391200000000 1.0
C      1  0.5687950000000  0.5574460000000  0.4870190000000 1.0
C      1  0.3919730000000  0.4937590000000  0.4648680000000 1.0
C      1  0.5855770000000  0.4140160000000  0.4780830000000 1.0
C      1  0.4406570000000  0.5986090000000  0.5351560000000 1.0
C      1  0.5287490000000  0.4890490000000  0.4414060000000 1.0
C      1  0.5259200000000  0.3949090000000  0.5192870000000 1.0
C      1  0.5029740000000  0.5359630000000  0.4611180000000 1.0
C      1  0.5218560000000  0.4435210000000  0.5769950000000 1.0
C      1  0.4603860000000  0.4339260000000  0.4689270000000 1.0
C      1  0.5433040000000  0.4808340000000  0.4644880000000 1.0
C      1  0.5920190000000  0.5269090000000  0.5223520000000 1.0
C      1  0.4099730000000  0.5310510000000  0.4309050000000 1.0
C      1  0.4983440000000  0.5097620000000  0.4702020000000 1.0
C      1  0.5045350000000  0.4500930000000  0.4220760000000 1.0
C      1  0.4472640000000  0.5115340000000  0.5588890000000 1.0
C      1  0.5008760000000  0.4544560000000  0.5157370000000 1.0
C      1  0.4079990000000  0.5265950000000  0.5323930000000 1.0
C      1  0.4728860000000  0.5772210000000  0.4227800000000 1.0
C      1  0.4734550000000  0.5526320000000  0.4059550000000 1.0
C      1  0.5890480000000  0.5523000000000  0.5367650000000 1.0
C      1  0.5486070000000  0.5029580000000  0.4808990000000 1.0
C      1  0.4679860000000  0.4904960000000  0.5195740000000 1.0
C      1  0.4900200000000  0.6143610000000  0.5261720000000 1.0
C      1  0.4631800000000  0.4540790000000  0.4486460000000 1.0
C      1  0.5224390000000  0.4107980000000  0.4575670000000 1.0
C      1  0.5345200000000  0.5337520000000  0.6205280000000 1.0
C      1  0.4238540000000  0.4294440000000  0.5275340000000 1.0
C      1  0.4796810000000  0.4371190000000  0.5262010000000 1.0
C      1  0.4987240000000  0.3890510000000  0.5123150000000 1.0
C      1  0.4418150000000  0.5314420000000  0.4646450000000 1.0
C      1  0.5430840000000  0.4982290000000  0.5290100000000 1.0
C      1  0.5946670000000  0.4621310000000  0.4793840000000 1.0
C      1  0.5561860000000  0.4412480000000  0.4214100000000 1.0
C      1  0.5886240000000  0.4386450000000  0.4642540000000 1.0
C      1  0.5655090000000  0.5175720000000  0.4270270000000 1.0
C      1  0.4150870000000  0.4250360000000  0.4583860000000 1.0
C      1  0.5223360000000  0.5998260000000  0.4774590000000 1.0
C      1  0.5190200000000  0.4194060000000  0.5623970000000 1.0
END
