TITL C-599893-4344-36 0.000201636837101313 125000 -828.901445172482 0 0 137 (C1) n - 1
REM
REM in /home/nfs/bkarasulu/CARBON/AIRSS/Generating-Clusters/TERSOFF/Only-C1/FIRE-HFTN
REM
REM
REM
REM
REM
REM ./C.cell (11c1c37f851c82e70ff6c80c92926a4b)
REM AIRSS Version 0.9.1 bugfix July 2018 build 013d7b7c2542+ Fri, 06 Jul 2018 19:26:36 +0100
REM compiler GCC version 9.2.1 20190827 (Red Hat 9.2.1-1)
REM options -cpp -mtune=generic -march=x86-64 -g -O0 -fpre-include=/usr/include/finclude/math-vector-fortran.h
REM seed 94172513 503088980 -848397229 -43052237 1032941816 482191613 -1342385162 1625407697 374335924 903671217 -152079585 -1589814261 -213951590 -1601144557 2116706384 1788584940 1733363051 1454732566 1664286344 -156694066 -485049445 779240320 1656213395 841727064 2137091143 1633915334 1769977463 768436017 394595595 1449515454 309940541 -378953420 -257920642
REM
CELL 1.54180   50.00000   50.00000   50.00000   90.00000   90.00000   90.00000
LATT -1
SFAC C  
C      1  0.5076290000000  0.4242160000000  0.5452430000000 1.0
C      1  0.3630450000000  0.5742940000000  0.5659200000000 1.0
C      1  0.5900280000000  0.5333000000000  0.5059080000000 1.0
C      1  0.5693220000000  0.4212750000000  0.5451090000000 1.0
C      1  0.5610850000000  0.4806320000000  0.5050930000000 1.0
C      1  0.4369350000000  0.5155140000000  0.5684570000000 1.0
C      1  0.5690360000000  0.5385790000000  0.5786610000000 1.0
C      1  0.4830840000000  0.4339760000000  0.5814370000000 1.0
C      1  0.4754150000000  0.4969480000000  0.4270770000000 1.0
C      1  0.6199310000000  0.4542960000000  0.4939540000000 1.0
C      1  0.5759400000000  0.4906980000000  0.4827320000000 1.0
C      1  0.5680790000000  0.5645270000000  0.4604320000000 1.0
C      1  0.6189200000000  0.5139680000000  0.4709630000000 1.0
C      1  0.4499140000000  0.5003410000000  0.5884860000000 1.0
C      1  0.5062240000000  0.5541440000000  0.4146500000000 1.0
C      1  0.4794200000000  0.5359060000000  0.4553100000000 1.0
C      1  0.4916010000000  0.4703170000000  0.5234280000000 1.0
C      1  0.4584030000000  0.4145130000000  0.4308590000000 1.0
C      1  0.4733030000000  0.4037100000000  0.5200010000000 1.0
C      1  0.4181620000000  0.4763820000000  0.5296370000000 1.0
C      1  0.5000250000000  0.4530220000000  0.5442380000000 1.0
C      1  0.4665580000000  0.5076570000000  0.3804800000000 1.0
C      1  0.4416140000000  0.5985180000000  0.4953960000000 1.0
C      1  0.5074150000000  0.4470150000000  0.4544130000000 1.0
C      1  0.5324270000000  0.5293630000000  0.5502580000000 1.0
C      1  0.5231350000000  0.4851140000000  0.4133970000000 1.0
C      1  0.5269750000000  0.4494090000000  0.4994260000000 1.0
C      1  0.5286450000000  0.5495010000000  0.4333150000000 1.0
C      1  0.5294840000000  0.4770550000000  0.6070560000000 1.0
C      1  0.5311540000000  0.5505560000000  0.5316350000000 1.0
C      1  0.5646200000000  0.4676870000000  0.5603630000000 1.0
C      1  0.4523770000000  0.4497860000000  0.5055920000000 1.0
C      1  0.4647050000000  0.4344490000000  0.4853450000000 1.0
C      1  0.5551400000000  0.4514670000000  0.5071150000000 1.0
C      1  0.4439560000000  0.5656460000000  0.4185660000000 1.0
C      1  0.5498640000000  0.4867050000000  0.4102050000000 1.0
C      1  0.5598060000000  0.4561330000000  0.4520710000000 1.0
C      1  0.4970920000000  0.4593310000000  0.5725520000000 1.0
C      1  0.4639480000000  0.4736990000000  0.5166900000000 1.0
C      1  0.4595090000000  0.5839850000000  0.4317180000000 1.0
C      1  0.5032860000000  0.4922750000000  0.4322860000000 1.0
C      1  0.4447750000000  0.3965140000000  0.4482730000000 1.0
C      1  0.4881760000000  0.5485820000000  0.3955450000000 1.0
C      1  0.5851490000000  0.5197110000000  0.5920200000000 1.0
C      1  0.4320920000000  0.4632760000000  0.4252360000000 1.0
C      1  0.4775750000000  0.5940670000000  0.4496060000000 1.0
C      1  0.4211290000000  0.4895400000000  0.4315460000000 1.0
C      1  0.4014510000000  0.4977510000000  0.4852430000000 1.0
C      1  0.5141930000000  0.4240300000000  0.5000100000000 1.0
C      1  0.5800900000000  0.3968890000000  0.5521050000000 1.0
C      1  0.4008370000000  0.5440980000000  0.5126880000000 1.0
C      1  0.5890910000000  0.5446700000000  0.5301080000000 1.0
C      1  0.4850130000000  0.5565320000000  0.5778890000000 1.0
C      1  0.4049750000000  0.5621220000000  0.5340550000000 1.0
C      1  0.5132220000000  0.4765970000000  0.5033870000000 1.0
C      1  0.4834880000000  0.4439850000000  0.4665290000000 1.0
C      1  0.5621910000000  0.4054700000000  0.4971070000000 1.0
C      1  0.5129080000000  0.5024230000000  0.4565770000000 1.0
C      1  0.5714870000000  0.4998810000000  0.4198560000000 1.0
C      1  0.4970810000000  0.5953290000000  0.4710300000000 1.0
C      1  0.4903000000000  0.5965230000000  0.5001070000000 1.0
C      1  0.5195230000000  0.4744280000000  0.5805220000000 1.0
C      1  0.5280360000000  0.5044850000000  0.6147820000000 1.0
C      1  0.4295310000000  0.5796840000000  0.4803690000000 1.0
C      1  0.4640600000000  0.5948320000000  0.5123730000000 1.0
C      1  0.4044860000000  0.5384380000000  0.4454170000000 1.0
C      1  0.5343470000000  0.5364560000000  0.4806550000000 1.0
C      1  0.4262900000000  0.5142080000000  0.4142580000000 1.0
C      1  0.5817570000000  0.5860110000000  0.4730620000000 1.0
C      1  0.5339080000000  0.4492130000000  0.4497050000000 1.0
C      1  0.4500710000000  0.3902650000000  0.4740710000000 1.0
C      1  0.5024560000000  0.4140870000000  0.5717440000000 1.0
C      1  0.5487050000000  0.3959050000000  0.4755260000000 1.0
C      1  0.5236050000000  0.5772990000000  0.5350900000000 1.0
C      1  0.4378980000000  0.4349490000000  0.5263350000000 1.0
C      1  0.5368540000000  0.4926190000000  0.5155650000000 1.0
C      1  0.5652330000000  0.4265580000000  0.5166710000000 1.0
C      1  0.4455950000000  0.4395890000000  0.4246090000000 1.0
C      1  0.4620290000000  0.5175150000000  0.4435770000000 1.0
C      1  0.4414000000000  0.5395780000000  0.4057660000000 1.0
C      1  0.4372850000000  0.4510040000000  0.5703860000000 1.0
C      1  0.5396730000000  0.4819900000000  0.5611130000000 1.0
C      1  0.6099920000000  0.4717000000000  0.5421060000000 1.0
C      1  0.4305090000000  0.5353010000000  0.4546780000000 1.0
C      1  0.4450960000000  0.5147790000000  0.5417780000000 1.0
C      1  0.4230990000000  0.4524640000000  0.5445930000000 1.0
C      1  0.4644360000000  0.5346250000000  0.3885530000000 1.0
C      1  0.4084250000000  0.4914820000000  0.4579300000000 1.0
C      1  0.5377580000000  0.5442340000000  0.5054250000000 1.0
C      1  0.6203800000000  0.4615160000000  0.5197200000000 1.0
C      1  0.6060720000000  0.4557200000000  0.4709190000000 1.0
C      1  0.4880920000000  0.5152400000000  0.4945970000000 1.0
C      1  0.4681550000000  0.4895780000000  0.4005820000000 1.0
C      1  0.5633160000000  0.4398050000000  0.5665480000000 1.0
C      1  0.5530070000000  0.5424840000000  0.4170570000000 1.0
C      1  0.3562680000000  0.5541260000000  0.4314560000000 1.0
C      1  0.5090730000000  0.3980180000000  0.4392580000000 1.0
C      1  0.4300090000000  0.5738850000000  0.5397630000000 1.0
C      1  0.4433860000000  0.4905880000000  0.5277940000000 1.0
C      1  0.4688430000000  0.5535960000000  0.4726490000000 1.0
C      1  0.5566700000000  0.4364450000000  0.5944020000000 1.0
C      1  0.4407220000000  0.5555920000000  0.4715890000000 1.0
C      1  0.4931360000000  0.5331450000000  0.5926220000000 1.0
C      1  0.5252190000000  0.5280210000000  0.4554610000000 1.0
C      1  0.4020160000000  0.4788970000000  0.5065550000000 1.0
C      1  0.5813530000000  0.5495880000000  0.5553560000000 1.0
C      1  0.5033610000000  0.4951610000000  0.4824050000000 1.0
C      1  0.5431080000000  0.6138660000000  0.4743270000000 1.0
C      1  0.5907050000000  0.4792150000000  0.5610560000000 1.0
C      1  0.5818920000000  0.4688410000000  0.4644720000000 1.0
C      1  0.3832170000000  0.5685450000000  0.5504520000000 1.0
C      1  0.5213010000000  0.5268640000000  0.5976000000000 1.0
C      1  0.4423800000000  0.4729110000000  0.5878310000000 1.0
C      1  0.4632450000000  0.4063050000000  0.4928570000000 1.0
C      1  0.5349720000000  0.5022360000000  0.5418850000000 1.0
C      1  0.5401260000000  0.5720410000000  0.4511520000000 1.0
C      1  0.4574010000000  0.4295720000000  0.5684040000000 1.0
C      1  0.5459800000000  0.4542380000000  0.6126310000000 1.0
C      1  0.4862160000000  0.4076940000000  0.4281590000000 1.0
C      1  0.3802400000000  0.5464490000000  0.4382230000000 1.0
C      1  0.5695050000000  0.6094980000000  0.4791610000000 1.0
C      1  0.5405540000000  0.5345040000000  0.5773570000000 1.0
C      1  0.4743160000000  0.5734380000000  0.5595010000000 1.0
C      1  0.5958300000000  0.4971490000000  0.5820830000000 1.0
C      1  0.5011340000000  0.4110780000000  0.5214910000000 1.0
C      1  0.5782860000000  0.5368070000000  0.4564990000000 1.0
C      1  0.4810320000000  0.5325100000000  0.5132060000000 1.0
C      1  0.5299070000000  0.3937660000000  0.4560890000000 1.0
C      1  0.3979050000000  0.5242730000000  0.4949130000000 1.0
C      1  0.4732910000000  0.5131690000000  0.5983370000000 1.0
C      1  0.4557580000000  0.4163110000000  0.5406950000000 1.0
C      1  0.5895920000000  0.5185890000000  0.4794510000000 1.0
C      1  0.4573260000000  0.5823110000000  0.5380980000000 1.0
C      1  0.5724130000000  0.5261300000000  0.4300520000000 1.0
C      1  0.4620040000000  0.5338300000000  0.5313890000000 1.0
C      1  0.5113430000000  0.5949060000000  0.5190010000000 1.0
C      1  0.5254500000000  0.5939510000000  0.4638490000000 1.0
END
