TITL C-599890-3321-1207 50.1662402529029 125000 -952.285623737017 0 0 155 (C1) n - 1
REM
REM in /home/nfs/bkarasulu/CARBON/AIRSS/Generating-Clusters/TERSOFF/Only-C1/FIRE-HFTN
REM
REM
REM
REM
REM
REM ./C.cell (11c1c37f851c82e70ff6c80c92926a4b)
REM AIRSS Version 0.9.1 bugfix July 2018 build 013d7b7c2542+ Fri, 06 Jul 2018 19:26:36 +0100
REM compiler GCC version 9.2.1 20190827 (Red Hat 9.2.1-1)
REM options -cpp -mtune=generic -march=x86-64 -g -O0 -fpre-include=/usr/include/finclude/math-vector-fortran.h
REM seed 1693597962 1831535561 -1823116274 -301820607 -811541746 -56658878 -1069179606 933121612 1986839203 -582036696 -540379860 -416202632 -163310716 1722887880 -1020045229 1900478901 999810476 -541724326 -1648724689 -1219947399 855615676 974511088 -688722624 97945396 -1153425878 760966003 -1572320514 -1074987562 -1900359126 416475831 304428008 1425722773 1266497204
REM
CELL 1.54180   50.00000   50.00000   50.00000   90.00000   90.00000   90.00000
LATT -1
SFAC C  
C      1  0.4434850000000  0.6196520000000  0.4914040000000 1.0
C      1  0.4856750000000  0.5469240000000  0.4608640000000 1.0
C      1  0.3762970000000  0.4509980000000  0.4382380000000 1.0
C      1  0.5157770000000  0.6128710000000  0.5137660000000 1.0
C      1  0.4723080000000  0.5195840000000  0.5614630000000 1.0
C      1  0.4596390000000  0.5416050000000  0.4748240000000 1.0
C      1  0.5420790000000  0.5093600000000  0.4946550000000 1.0
C      1  0.4578630000000  0.6080610000000  0.4238960000000 1.0
C      1  0.5622280000000  0.4299480000000  0.5773350000000 1.0
C      1  0.5764320000000  0.3857710000000  0.4380770000000 1.0
C      1  0.3926530000000  0.5593960000000  0.5287510000000 1.0
C      1  0.4777070000000  0.5683200000000  0.5396590000000 1.0
C      1  0.6111350000000  0.5559320000000  0.4532880000000 1.0
C      1  0.3873570000000  0.4616070000000  0.5592570000000 1.0
C      1  0.6036650000000  0.4971410000000  0.5134320000000 1.0
C      1  0.4957090000000  0.5485020000000  0.5039310000000 1.0
C      1  0.4339640000000  0.5738730000000  0.5063840000000 1.0
C      1  0.5626490000000  0.4458810000000  0.5170630000000 1.0
C      1  0.4955060000000  0.6092840000000  0.5353170000000 1.0
C      1  0.4252000000000  0.5234790000000  0.5599990000000 1.0
C      1  0.4516890000000  0.5989790000000  0.4493140000000 1.0
C      1  0.5304750000000  0.4394380000000  0.6151370000000 1.0
C      1  0.5580650000000  0.5961410000000  0.5690670000000 1.0
C      1  0.4118030000000  0.5713880000000  0.4400970000000 1.0
C      1  0.5085300000000  0.4738950000000  0.4962640000000 1.0
C      1  0.4610980000000  0.4886590000000  0.5268420000000 1.0
C      1  0.5054790000000  0.4862320000000  0.5885140000000 1.0
C      1  0.5752360000000  0.4455050000000  0.4004050000000 1.0
C      1  0.3805830000000  0.4289060000000  0.5193950000000 1.0
C      1  0.5428880000000  0.4033070000000  0.5105120000000 1.0
C      1  0.5930210000000  0.5426000000000  0.4358350000000 1.0
C      1  0.4978640000000  0.5567550000000  0.5968410000000 1.0
C      1  0.4806870000000  0.5406230000000  0.5455800000000 1.0
C      1  0.4889490000000  0.4906100000000  0.4419010000000 1.0
C      1  0.4542560000000  0.4000910000000  0.4721090000000 1.0
C      1  0.3973530000000  0.4193610000000  0.4992420000000 1.0
C      1  0.5613700000000  0.5234950000000  0.4788670000000 1.0
C      1  0.5443930000000  0.5983440000000  0.4682670000000 1.0
C      1  0.4655370000000  0.6125480000000  0.5311960000000 1.0
C      1  0.5009170000000  0.3752700000000  0.4693570000000 1.0
C      1  0.4248350000000  0.4176850000000  0.5054920000000 1.0
C      1  0.3730390000000  0.5066120000000  0.5686420000000 1.0
C      1  0.5828660000000  0.4730170000000  0.4019000000000 1.0
C      1  0.4960370000000  0.4395900000000  0.4509140000000 1.0
C      1  0.4475670000000  0.5119800000000  0.5150720000000 1.0
C      1  0.4599280000000  0.4635400000000  0.5137010000000 1.0
C      1  0.4761200000000  0.4528090000000  0.4681870000000 1.0
C      1  0.5864670000000  0.4413670000000  0.5671510000000 1.0
C      1  0.4876660000000  0.5362250000000  0.4089800000000 1.0
C      1  0.5975690000000  0.5130230000000  0.4353880000000 1.0
C      1  0.5012240000000  0.5336950000000  0.5267120000000 1.0
C      1  0.5271570000000  0.3846840000000  0.4676310000000 1.0
C      1  0.5530150000000  0.5649170000000  0.5070390000000 1.0
C      1  0.5703220000000  0.4328100000000  0.4255040000000 1.0
C      1  0.4252970000000  0.5466840000000  0.5772100000000 1.0
C      1  0.5565300000000  0.5801100000000  0.4506930000000 1.0
C      1  0.5450540000000  0.3829750000000  0.4903720000000 1.0
C      1  0.4430270000000  0.5623780000000  0.5909550000000 1.0
C      1  0.4618110000000  0.4670110000000  0.5955740000000 1.0
C      1  0.4183200000000  0.4867310000000  0.4731050000000 1.0
C      1  0.6044590000000  0.5530520000000  0.4793530000000 1.0
C      1  0.4452880000000  0.4944810000000  0.4700890000000 1.0
C      1  0.3643880000000  0.5295890000000  0.5581540000000 1.0
C      1  0.4691670000000  0.5527660000000  0.5964720000000 1.0
C      1  0.4196750000000  0.5546550000000  0.5223000000000 1.0
C      1  0.5482670000000  0.5101560000000  0.5941150000000 1.0
C      1  0.3905210000000  0.4151150000000  0.4718090000000 1.0
C      1  0.5859440000000  0.5342220000000  0.4900620000000 1.0
C      1  0.5332510000000  0.4057390000000  0.4485200000000 1.0
C      1  0.5520770000000  0.5310040000000  0.4526250000000 1.0
C      1  0.4206480000000  0.4966760000000  0.5712660000000 1.0
C      1  0.5072710000000  0.4397960000000  0.5982440000000 1.0
C      1  0.4527520000000  0.5163870000000  0.4867160000000 1.0
C      1  0.5585230000000  0.4073740000000  0.4334200000000 1.0
C      1  0.5393010000000  0.4421740000000  0.4766800000000 1.0
C      1  0.3935940000000  0.4873440000000  0.5681600000000 1.0
C      1  0.5357650000000  0.5896300000000  0.5827390000000 1.0
C      1  0.3793320000000  0.4432430000000  0.5417960000000 1.0
C      1  0.5408660000000  0.4023540000000  0.5389130000000 1.0
C      1  0.4451890000000  0.4145470000000  0.4267720000000 1.0
C      1  0.5762430000000  0.4500240000000  0.4471480000000 1.0
C      1  0.4586220000000  0.4387090000000  0.4218960000000 1.0
C      1  0.5944360000000  0.4776140000000  0.5324910000000 1.0
C      1  0.4496280000000  0.4196860000000  0.4925020000000 1.0
C      1  0.5822360000000  0.3714100000000  0.4602150000000 1.0
C      1  0.4984940000000  0.4603330000000  0.4055260000000 1.0
C      1  0.5205750000000  0.4732940000000  0.5423800000000 1.0
C      1  0.4809800000000  0.5721800000000  0.5101590000000 1.0
C      1  0.4724080000000  0.6193520000000  0.3742170000000 1.0
C      1  0.3737930000000  0.4325210000000  0.4574580000000 1.0
C      1  0.4424920000000  0.6022710000000  0.5147810000000 1.0
C      1  0.5307680000000  0.6088080000000  0.4904740000000 1.0
C      1  0.4672330000000  0.5247700000000  0.5883760000000 1.0
C      1  0.5717310000000  0.5657910000000  0.5288840000000 1.0
C      1  0.4629600000000  0.6091230000000  0.4732520000000 1.0
C      1  0.4753910000000  0.3819930000000  0.4725020000000 1.0
C      1  0.4400540000000  0.4801170000000  0.5852020000000 1.0
C      1  0.5202200000000  0.4947770000000  0.4821180000000 1.0
C      1  0.5394250000000  0.4181720000000  0.5625860000000 1.0
C      1  0.3946680000000  0.4650290000000  0.4248110000000 1.0
C      1  0.5122110000000  0.5002590000000  0.4554910000000 1.0
C      1  0.4306020000000  0.5291450000000  0.5315430000000 1.0
C      1  0.6106380000000  0.4914520000000  0.4855850000000 1.0
C      1  0.5135050000000  0.4248440000000  0.5741850000000 1.0
C      1  0.5452790000000  0.4861280000000  0.5364390000000 1.0
C      1  0.3943110000000  0.4857910000000  0.4832740000000 1.0
C      1  0.5420020000000  0.5109730000000  0.5233520000000 1.0
C      1  0.4797860000000  0.6243520000000  0.3497180000000 1.0
C      1  0.5019470000000  0.4841750000000  0.5599320000000 1.0
C      1  0.5670320000000  0.4706110000000  0.5284770000000 1.0
C      1  0.5520930000000  0.5325670000000  0.5773450000000 1.0
C      1  0.4772740000000  0.4943610000000  0.5499380000000 1.0
C      1  0.3717680000000  0.5498500000000  0.5423890000000 1.0
C      1  0.4904230000000  0.4633620000000  0.5984640000000 1.0
C      1  0.6019320000000  0.4599380000000  0.5540700000000 1.0
C      1  0.4633650000000  0.4446860000000  0.4925760000000 1.0
C      1  0.5900070000000  0.4960200000000  0.4139110000000 1.0
C      1  0.4926560000000  0.4871710000000  0.4133200000000 1.0
C      1  0.5095490000000  0.4609740000000  0.5196770000000 1.0
C      1  0.5084800000000  0.5502830000000  0.4790760000000 1.0
C      1  0.5553830000000  0.4351460000000  0.6047790000000 1.0
C      1  0.5204990000000  0.5075000000000  0.6006470000000 1.0
C      1  0.4407960000000  0.5634640000000  0.4791010000000 1.0
C      1  0.6193710000000  0.5427480000000  0.5806490000000 1.0
C      1  0.4903680000000  0.5112820000000  0.3990420000000 1.0
C      1  0.4649580000000  0.6141550000000  0.3991180000000 1.0
C      1  0.6046620000000  0.5436100000000  0.5591540000000 1.0
C      1  0.4207550000000  0.4703720000000  0.4227790000000 1.0
C      1  0.5101000000000  0.5330880000000  0.6085020000000 1.0
C      1  0.4086740000000  0.3997270000000  0.4563370000000 1.0
C      1  0.5937990000000  0.5242020000000  0.5156000000000 1.0
C      1  0.5138440000000  0.5715260000000  0.5743610000000 1.0
C      1  0.5898550000000  0.5438960000000  0.5355390000000 1.0
C      1  0.5682550000000  0.4945720000000  0.6038160000000 1.0
C      1  0.5310820000000  0.5162280000000  0.4416630000000 1.0
C      1  0.5217080000000  0.4303230000000  0.4578720000000 1.0
C      1  0.6077410000000  0.4997280000000  0.4595420000000 1.0
C      1  0.5346760000000  0.5593360000000  0.4874550000000 1.0
C      1  0.4360600000000  0.4014450000000  0.4499770000000 1.0
C      1  0.4801510000000  0.5917510000000  0.4888160000000 1.0
C      1  0.4466140000000  0.4635130000000  0.4307920000000 1.0
C      1  0.5332310000000  0.5446490000000  0.5604160000000 1.0
C      1  0.4335930000000  0.5776420000000  0.4551720000000 1.0
C      1  0.5734050000000  0.4322550000000  0.3766370000000 1.0
C      1  0.5656850000000  0.5534440000000  0.4411250000000 1.0
C      1  0.5593080000000  0.4587380000000  0.4658850000000 1.0
C      1  0.5467720000000  0.4298620000000  0.5009720000000 1.0
C      1  0.5269670000000  0.5307880000000  0.5367470000000 1.0
C      1  0.4965410000000  0.5855170000000  0.5532880000000 1.0
C      1  0.5704660000000  0.5873580000000  0.5470180000000 1.0
C      1  0.4867360000000  0.5484820000000  0.4328150000000 1.0
C      1  0.4634810000000  0.4774610000000  0.4532740000000 1.0
C      1  0.5695950000000  0.3702880000000  0.4841330000000 1.0
C      1  0.5127650000000  0.4538400000000  0.3832670000000 1.0
C      1  0.4872320000000  0.4406640000000  0.4231960000000 1.0
END
