TITL C-599894-471-668 3.54274547830608 125000 -179.898792359913 0 0 32 (C1) n - 1
REM
REM in /home/nfs/bkarasulu/CARBON/AIRSS/Generating-Clusters/TERSOFF/Only-C1/FIRE-HFTN
REM
REM
REM
REM
REM
REM ./C.cell (11c1c37f851c82e70ff6c80c92926a4b)
REM AIRSS Version 0.9.1 bugfix July 2018 build 013d7b7c2542+ Fri, 06 Jul 2018 19:26:36 +0100
REM compiler GCC version 9.2.1 20190827 (Red Hat 9.2.1-1)
REM options -cpp -mtune=generic -march=x86-64 -g -O0 -fpre-include=/usr/include/finclude/math-vector-fortran.h
REM seed -575404800 -753194067 171429903 -488726753 846189290 1693014248 1382671338 98184256 537190474 -1315861279 1611802123 -1312197869 384118443 -746867857 1749671945 -162193922 792853814 626139076 -566740503 1404246193 -1657555323 14085007 793345541 -707596656 1806414953 -926097684 1805006735 -2087408776 -834817398 -347221608 -425219159 -2119798480 1192752262
REM
CELL 1.54180   50.00000   50.00000   50.00000   90.00000   90.00000   90.00000
LATT -1
SFAC C  
C      1  0.6237310000000  0.4671430000000  0.3940070000000 1.0
C      1  0.4534020000000  0.6057170000000  0.5831040000000 1.0
C      1  0.4454850000000  0.5660070000000  0.4954170000000 1.0
C      1  0.5783070000000  0.4622860000000  0.4208780000000 1.0
C      1  0.4809320000000  0.4843560000000  0.5125310000000 1.0
C      1  0.4618470000000  0.4051370000000  0.4830010000000 1.0
C      1  0.5555950000000  0.4598590000000  0.4343130000000 1.0
C      1  0.4638010000000  0.5656810000000  0.5612530000000 1.0
C      1  0.5101840000000  0.4550720000000  0.4611890000000 1.0
C      1  0.5419370000000  0.4198680000000  0.5975940000000 1.0
C      1  0.4321670000000  0.6254390000000  0.5355710000000 1.0
C      1  0.5328840000000  0.4574350000000  0.4477480000000 1.0
C      1  0.4443070000000  0.6097930000000  0.5562520000000 1.0
C      1  0.4499300000000  0.3822720000000  0.4868480000000 1.0
C      1  0.4807920000000  0.5159270000000  0.5491390000000 1.0
C      1  0.4862910000000  0.4531680000000  0.4755100000000 1.0
C      1  0.4512180000000  0.5835220000000  0.5422260000000 1.0
C      1  0.5020470000000  0.4727780000000  0.5544630000000 1.0
C      1  0.4645570000000  0.5805630000000  0.5860970000000 1.0
C      1  0.5287850000000  0.4373300000000  0.5833910000000 1.0
C      1  0.4429460000000  0.5850300000000  0.5145250000000 1.0
C      1  0.5154120000000  0.4550840000000  0.5689500000000 1.0
C      1  0.4313340000000  0.6114230000000  0.5117260000000 1.0
C      1  0.4745200000000  0.4765620000000  0.4865170000000 1.0
C      1  0.4566050000000  0.4916090000000  0.4712720000000 1.0
C      1  0.6687920000000  0.4719630000000  0.3673510000000 1.0
C      1  0.6010190000000  0.4647140000000  0.4074430000000 1.0
C      1  0.4879270000000  0.4910180000000  0.5387190000000 1.0
C      1  0.6464490000000  0.4695730000000  0.3805690000000 1.0
C      1  0.4730240000000  0.5400980000000  0.5566460000000 1.0
C      1  0.4398510000000  0.5051780000000  0.4566320000000 1.0
C      1  0.4739230000000  0.4283960000000  0.4791180000000 1.0
END
