TITL C-599891-72-1349 0.0010059667105815 125000 -472.470399203206 0 0 79 (C1) n - 1
REM
REM in /home/nfs/bkarasulu/CARBON/AIRSS/Generating-Clusters/TERSOFF/Only-C1/FIRE-HFTN
REM
REM
REM
REM
REM
REM ./C.cell (11c1c37f851c82e70ff6c80c92926a4b)
REM AIRSS Version 0.9.1 bugfix July 2018 build 013d7b7c2542+ Fri, 06 Jul 2018 19:26:36 +0100
REM compiler GCC version 9.2.1 20190827 (Red Hat 9.2.1-1)
REM options -cpp -mtune=generic -march=x86-64 -g -O0 -fpre-include=/usr/include/finclude/math-vector-fortran.h
REM seed -2047897120 691981242 1374502952 -870677404 -1471616658 -1875731962 1007452029 196471741 844005546 1062966021 1764029074 1475244488 1696028643 -1965916554 -260542535 -114748683 1975752542 983082133 -1500636033 1572063736 -996174385 -1466863224 1704638940 -2053921251 647089314 -2037030626 1619356155 -585880362 723880364 -1821943327 1061765468 -518654508 -1506724347
REM
CELL 1.54180   50.00000   50.00000   50.00000   90.00000   90.00000   90.00000
LATT -1
SFAC C  
C      1  0.5969630000000  0.5097270000000  0.4383800000000 1.0
C      1  0.5268020000000  0.5183730000000  0.5239070000000 1.0
C      1  0.4929620000000  0.5306810000000  0.4230840000000 1.0
C      1  0.5243950000000  0.5426540000000  0.5080910000000 1.0
C      1  0.4853360000000  0.4689200000000  0.4817180000000 1.0
C      1  0.5634090000000  0.4647970000000  0.5285710000000 1.0
C      1  0.4782650000000  0.4739030000000  0.5675340000000 1.0
C      1  0.4886670000000  0.4819300000000  0.4293620000000 1.0
C      1  0.4993200000000  0.4550260000000  0.4325100000000 1.0
C      1  0.5381820000000  0.5307120000000  0.4580400000000 1.0
C      1  0.5370960000000  0.4633780000000  0.5151810000000 1.0
C      1  0.4858210000000  0.5195980000000  0.5834760000000 1.0
C      1  0.5637570000000  0.5415310000000  0.4549280000000 1.0
C      1  0.5460880000000  0.4649240000000  0.5730350000000 1.0
C      1  0.4531530000000  0.4544090000000  0.5319860000000 1.0
C      1  0.4651810000000  0.5747550000000  0.5425810000000 1.0
C      1  0.4466820000000  0.4362980000000  0.5112720000000 1.0
C      1  0.4784360000000  0.5828510000000  0.5180920000000 1.0
C      1  0.4673420000000  0.4865870000000  0.4963680000000 1.0
C      1  0.5498090000000  0.4850950000000  0.4441710000000 1.0
C      1  0.4792780000000  0.4395640000000  0.4723470000000 1.0
C      1  0.5084270000000  0.4281050000000  0.4723850000000 1.0
C      1  0.6097480000000  0.5560310000000  0.4490640000000 1.0
C      1  0.5372680000000  0.5400640000000  0.5722550000000 1.0
C      1  0.5697130000000  0.4444240000000  0.5466370000000 1.0
C      1  0.5581070000000  0.4201430000000  0.5523910000000 1.0
C      1  0.5051450000000  0.5057550000000  0.4289070000000 1.0
C      1  0.4171130000000  0.5033640000000  0.4963470000000 1.0
C      1  0.5766910000000  0.4902060000000  0.4382900000000 1.0
C      1  0.4338920000000  0.4210320000000  0.5956820000000 1.0
C      1  0.5247170000000  0.4502500000000  0.5613310000000 1.0
C      1  0.5903190000000  0.5360690000000  0.4474880000000 1.0
C      1  0.4905940000000  0.5331510000000  0.5569700000000 1.0
C      1  0.4716550000000  0.5658890000000  0.4959360000000 1.0
C      1  0.5568020000000  0.4906770000000  0.5680760000000 1.0
C      1  0.4637740000000  0.5461670000000  0.5475400000000 1.0
C      1  0.5206820000000  0.5630910000000  0.5288430000000 1.0
C      1  0.5317420000000  0.4224550000000  0.5598240000000 1.0
C      1  0.5331950000000  0.4714240000000  0.4878740000000 1.0
C      1  0.5160590000000  0.5514710000000  0.5561050000000 1.0
C      1  0.4488110000000  0.5221270000000  0.4660500000000 1.0
C      1  0.3831460000000  0.4673610000000  0.5176310000000 1.0
C      1  0.4333130000000  0.4519550000000  0.4658480000000 1.0
C      1  0.6279170000000  0.5746580000000  0.4505300000000 1.0
C      1  0.4494570000000  0.5332320000000  0.5254860000000 1.0
C      1  0.5208350000000  0.5337530000000  0.4807100000000 1.0
C      1  0.3992850000000  0.4849040000000  0.5071040000000 1.0
C      1  0.4920240000000  0.4820840000000  0.5403690000000 1.0
C      1  0.4676300000000  0.4777980000000  0.5227490000000 1.0
C      1  0.4800660000000  0.4934600000000  0.5875260000000 1.0
C      1  0.4196940000000  0.5501450000000  0.4904900000000 1.0
C      1  0.5024830000000  0.5102340000000  0.5386090000000 1.0
C      1  0.4740990000000  0.5758300000000  0.4461940000000 1.0
C      1  0.5410130000000  0.4634190000000  0.4607770000000 1.0
C      1  0.4780390000000  0.6019660000000  0.4393030000000 1.0
C      1  0.4597110000000  0.4828270000000  0.4353570000000 1.0
C      1  0.5014480000000  0.5127920000000  0.4796360000000 1.0
C      1  0.4721280000000  0.5155980000000  0.4852060000000 1.0
C      1  0.4455630000000  0.4369640000000  0.5786800000000 1.0
C      1  0.6222370000000  0.5035750000000  0.4299390000000 1.0
C      1  0.5315250000000  0.5074000000000  0.4410700000000 1.0
C      1  0.4762020000000  0.4385630000000  0.4414080000000 1.0
C      1  0.4240370000000  0.5287670000000  0.5103050000000 1.0
C      1  0.5659210000000  0.4909230000000  0.5405000000000 1.0
C      1  0.4297880000000  0.5005680000000  0.4698120000000 1.0
C      1  0.4375390000000  0.4777480000000  0.4541300000000 1.0
C      1  0.4601740000000  0.5689020000000  0.4698460000000 1.0
C      1  0.4509370000000  0.4368330000000  0.4830220000000 1.0
C      1  0.5063190000000  0.5863800000000  0.5216700000000 1.0
C      1  0.5537310000000  0.5109090000000  0.5257590000000 1.0
C      1  0.4689140000000  0.5379690000000  0.5041940000000 1.0
C      1  0.4838370000000  0.5548480000000  0.4299440000000 1.0
C      1  0.5183080000000  0.4078190000000  0.4871000000000 1.0
C      1  0.4579850000000  0.4538520000000  0.5605880000000 1.0
C      1  0.4387390000000  0.5494390000000  0.4686190000000 1.0
C      1  0.5211230000000  0.4451150000000  0.4506900000000 1.0
C      1  0.5153580000000  0.4623990000000  0.5361610000000 1.0
C      1  0.5089040000000  0.4851520000000  0.4822350000000 1.0
C      1  0.5491680000000  0.5162500000000  0.5781740000000 1.0
END
