TITL C-599890-3321-911 -9.71155636683269e-05 125000 -430.447560911649 0 0 71 (C1) n - 1
REM
REM in /home/nfs/bkarasulu/CARBON/AIRSS/Generating-Clusters/TERSOFF/Only-C1/FIRE-HFTN
REM
REM
REM
REM
REM
REM ./C.cell (11c1c37f851c82e70ff6c80c92926a4b)
REM AIRSS Version 0.9.1 bugfix July 2018 build 013d7b7c2542+ Fri, 06 Jul 2018 19:26:36 +0100
REM compiler GCC version 9.2.1 20190827 (Red Hat 9.2.1-1)
REM options -cpp -mtune=generic -march=x86-64 -g -O0 -fpre-include=/usr/include/finclude/math-vector-fortran.h
REM seed -1047727425 -722798114 -1446113592 1056305526 802549867 1190862543 -1577191468 -1438406272 1866665120 1380005282 808242677 -1966889153 1478571976 -1203964216 -1426675260 1386831114 1001886013 2018147775 -339910792 579741471 -299928968 658177806 -1608775594 -1868692736 1016567337 -1794672792 -1256889996 622144938 628042434 1936170575 1955167296 -1403648431 -571903001
REM
CELL 1.54180   50.00000   50.00000   50.00000   90.00000   90.00000   90.00000
LATT -1
SFAC C  
C      1  0.4989160000000  0.4607390000000  0.5805410000000 1.0
C      1  0.4450220000000  0.4544590000000  0.4727900000000 1.0
C      1  0.4956080000000  0.4236440000000  0.4806660000000 1.0
C      1  0.5204780000000  0.5136670000000  0.4750580000000 1.0
C      1  0.5042620000000  0.4366310000000  0.4569110000000 1.0
C      1  0.5555370000000  0.4569460000000  0.5410190000000 1.0
C      1  0.4465070000000  0.5450180000000  0.4683760000000 1.0
C      1  0.5411400000000  0.5122800000000  0.4225170000000 1.0
C      1  0.5006770000000  0.4847980000000  0.4118190000000 1.0
C      1  0.4805650000000  0.4734650000000  0.5970530000000 1.0
C      1  0.5153490000000  0.5638980000000  0.4990910000000 1.0
C      1  0.5636720000000  0.5661860000000  0.4962690000000 1.0
C      1  0.4900100000000  0.4596860000000  0.4488420000000 1.0
C      1  0.5157340000000  0.4500460000000  0.5138500000000 1.0
C      1  0.4158960000000  0.5042000000000  0.4906790000000 1.0
C      1  0.5662450000000  0.4930640000000  0.4668920000000 1.0
C      1  0.4556500000000  0.4526390000000  0.4211860000000 1.0
C      1  0.4934730000000  0.4328560000000  0.5078590000000 1.0
C      1  0.5589880000000  0.4357740000000  0.4976530000000 1.0
C      1  0.5397650000000  0.5664470000000  0.4810100000000 1.0
C      1  0.4857980000000  0.4843480000000  0.4618810000000 1.0
C      1  0.4185360000000  0.4956590000000  0.5192370000000 1.0
C      1  0.4277570000000  0.4701400000000  0.5289330000000 1.0
C      1  0.4550590000000  0.5435030000000  0.5604820000000 1.0
C      1  0.5129910000000  0.4753330000000  0.5020140000000 1.0
C      1  0.5624910000000  0.4672510000000  0.4564570000000 1.0
C      1  0.5123180000000  0.5054510000000  0.5853730000000 1.0
C      1  0.5641220000000  0.5563950000000  0.5216680000000 1.0
C      1  0.4228420000000  0.5214360000000  0.5326610000000 1.0
C      1  0.4700350000000  0.5503010000000  0.5372350000000 1.0
C      1  0.5588730000000  0.5028020000000  0.5548260000000 1.0
C      1  0.4553050000000  0.5431740000000  0.4412070000000 1.0
C      1  0.4293290000000  0.5418540000000  0.5124940000000 1.0
C      1  0.4873020000000  0.5107870000000  0.4108280000000 1.0
C      1  0.5428630000000  0.4432260000000  0.5197850000000 1.0
C      1  0.4648090000000  0.5003660000000  0.4502280000000 1.0
C      1  0.4679940000000  0.4900020000000  0.5082770000000 1.0
C      1  0.4559470000000  0.4711690000000  0.4920610000000 1.0
C      1  0.4660990000000  0.5565360000000  0.4871270000000 1.0
C      1  0.5678340000000  0.4458210000000  0.4743170000000 1.0
C      1  0.4936790000000  0.5547270000000  0.4817770000000 1.0
C      1  0.5453420000000  0.5273080000000  0.5579160000000 1.0
C      1  0.5222490000000  0.5736360000000  0.6095250000000 1.0
C      1  0.5166830000000  0.5483700000000  0.5237450000000 1.0
C      1  0.4544410000000  0.5563550000000  0.5139140000000 1.0
C      1  0.4392110000000  0.4889270000000  0.4453960000000 1.0
C      1  0.4461370000000  0.4496920000000  0.5304980000000 1.0
C      1  0.5051330000000  0.4914890000000  0.4806810000000 1.0
C      1  0.5292500000000  0.4856230000000  0.4213880000000 1.0
C      1  0.5335630000000  0.5523160000000  0.4553180000000 1.0
C      1  0.5195140000000  0.4793800000000  0.5723900000000 1.0
C      1  0.5423810000000  0.4781340000000  0.5564580000000 1.0
C      1  0.4259550000000  0.5310350000000  0.4846070000000 1.0
C      1  0.5829710000000  0.4666570000000  0.5387070000000 1.0
C      1  0.5252800000000  0.5516650000000  0.5958450000000 1.0
C      1  0.4399200000000  0.4603120000000  0.4446560000000 1.0
C      1  0.4880770000000  0.5000070000000  0.6003580000000 1.0
C      1  0.4687640000000  0.4361850000000  0.5226300000000 1.0
C      1  0.5419250000000  0.4630540000000  0.4364420000000 1.0
C      1  0.4837940000000  0.5078520000000  0.5216710000000 1.0
C      1  0.4707720000000  0.5212270000000  0.4315170000000 1.0
C      1  0.5844590000000  0.4934250000000  0.5456830000000 1.0
C      1  0.4832290000000  0.4621140000000  0.4205720000000 1.0
C      1  0.5484560000000  0.5102270000000  0.4772570000000 1.0
C      1  0.5090920000000  0.5377480000000  0.4642920000000 1.0
C      1  0.5423930000000  0.5449180000000  0.5359860000000 1.0
C      1  0.5274460000000  0.5287200000000  0.5802720000000 1.0
C      1  0.4925510000000  0.5338800000000  0.5305120000000 1.0
C      1  0.4329770000000  0.5276090000000  0.5583000000000 1.0
C      1  0.5281790000000  0.4380320000000  0.4412540000000 1.0
C      1  0.5443770000000  0.5373800000000  0.4332610000000 1.0
END
