TITL C-599893-4344-1177 451.928783921759 125000 -1213.78398032945 0 0 199 (C1) n - 1
REM
REM in /home/nfs/bkarasulu/CARBON/AIRSS/Generating-Clusters/TERSOFF/Only-C1/FIRE-HFTN
REM
REM
REM
REM
REM
REM ./C.cell (11c1c37f851c82e70ff6c80c92926a4b)
REM AIRSS Version 0.9.1 bugfix July 2018 build 013d7b7c2542+ Fri, 06 Jul 2018 19:26:36 +0100
REM compiler GCC version 9.2.1 20190827 (Red Hat 9.2.1-1)
REM options -cpp -mtune=generic -march=x86-64 -g -O0 -fpre-include=/usr/include/finclude/math-vector-fortran.h
REM seed 722144748 -1670846309 531031270 76340782 -401458126 -178282156 400504730 342840894 -322179560 760595775 286205144 687876274 -585868061 -1422982987 -1798875252 -71273869 -1930984141 -685273478 733292684 -1476847504 1850959401 1888166520 872808680 695857699 1063283186 1920841317 -871702236 354371225 -750830530 710565011 969962383 1252494630 -973210687
REM
CELL 1.54180   50.00000   50.00000   50.00000   90.00000   90.00000   90.00000
LATT -1
SFAC C  
C      1  0.4996900000000  0.5899260000000  0.5256660000000 1.0
C      1  0.4760760000000  0.5289380000000  0.5870400000000 1.0
C      1  0.4080280000000  0.5029320000000  0.5995110000000 1.0
C      1  0.5493690000000  0.4796020000000  0.3811590000000 1.0
C      1  0.4693000000000  0.5724960000000  0.6436400000000 1.0
C      1  0.5109100000000  0.5871770000000  0.6177300000000 1.0
C      1  0.4887270000000  0.5589340000000  0.5157440000000 1.0
C      1  0.6345590000000  0.4833020000000  0.5570980000000 1.0
C      1  0.5597320000000  0.5453030000000  0.3832270000000 1.0
C      1  0.4815920000000  0.6064380000000  0.5428440000000 1.0
C      1  0.4585190000000  0.6118880000000  0.4912440000000 1.0
C      1  0.5262930000000  0.5837520000000  0.5405650000000 1.0
C      1  0.4196520000000  0.3966400000000  0.4995840000000 1.0
C      1  0.5056730000000  0.6109780000000  0.5057690000000 1.0
C      1  0.4885390000000  0.3632750000000  0.5013030000000 1.0
C      1  0.5497300000000  0.5826910000000  0.5214920000000 1.0
C      1  0.5077120000000  0.4280220000000  0.3538650000000 1.0
C      1  0.5425640000000  0.5468320000000  0.4912130000000 1.0
C      1  0.5656470000000  0.5886960000000  0.4474040000000 1.0
C      1  0.4755000000000  0.4538220000000  0.4344190000000 1.0
C      1  0.4139250000000  0.4092070000000  0.5243050000000 1.0
C      1  0.3904330000000  0.5363750000000  0.5172710000000 1.0
C      1  0.4547470000000  0.5463350000000  0.5951530000000 1.0
C      1  0.4112160000000  0.4816170000000  0.5312600000000 1.0
C      1  0.5032100000000  0.5318450000000  0.5190340000000 1.0
C      1  0.4709040000000  0.5194650000000  0.4580000000000 1.0
C      1  0.4895660000000  0.4611540000000  0.5965300000000 1.0
C      1  0.4547390000000  0.3836490000000  0.5390130000000 1.0
C      1  0.5965650000000  0.4445900000000  0.4221650000000 1.0
C      1  0.4871490000000  0.4309940000000  0.4819770000000 1.0
C      1  0.5313530000000  0.6224450000000  0.5085760000000 1.0
C      1  0.5352200000000  0.4424850000000  0.4902550000000 1.0
C      1  0.3739840000000  0.4415240000000  0.5199630000000 1.0
C      1  0.4577670000000  0.4499510000000  0.3886810000000 1.0
C      1  0.4243040000000  0.5964610000000  0.4587170000000 1.0
C      1  0.4533090000000  0.5007620000000  0.5344360000000 1.0
C      1  0.5292910000000  0.6060310000000  0.6250240000000 1.0
C      1  0.4699020000000  0.5535160000000  0.5414560000000 1.0
C      1  0.4601260000000  0.4816780000000  0.4863460000000 1.0
C      1  0.4633920000000  0.3757370000000  0.5114180000000 1.0
C      1  0.4904080000000  0.4692280000000  0.5495060000000 1.0
C      1  0.6708830000000  0.4743170000000  0.5945970000000 1.0
C      1  0.5796460000000  0.5357790000000  0.4019170000000 1.0
C      1  0.5456440000000  0.5192430000000  0.4895380000000 1.0
C      1  0.5425860000000  0.3977980000000  0.5646790000000 1.0
C      1  0.4074980000000  0.4726740000000  0.4372980000000 1.0
C      1  0.5024430000000  0.4537050000000  0.3639350000000 1.0
C      1  0.5139660000000  0.4237860000000  0.4822680000000 1.0
C      1  0.5370150000000  0.4001830000000  0.6149200000000 1.0
C      1  0.5090560000000  0.5463810000000  0.6416790000000 1.0
C      1  0.5387230000000  0.4584620000000  0.4677070000000 1.0
C      1  0.4790210000000  0.4548420000000  0.5714140000000 1.0
C      1  0.4993900000000  0.6056650000000  0.4365570000000 1.0
C      1  0.5528100000000  0.6042140000000  0.5017290000000 1.0
C      1  0.5167140000000  0.4717780000000  0.5409880000000 1.0
C      1  0.4460190000000  0.5591660000000  0.6391770000000 1.0
C      1  0.4993530000000  0.5121480000000  0.4984220000000 1.0
C      1  0.4190780000000  0.5157360000000  0.4187710000000 1.0
C      1  0.5867700000000  0.4239240000000  0.4369670000000 1.0
C      1  0.5697630000000  0.5569460000000  0.5733310000000 1.0
C      1  0.4712750000000  0.4393500000000  0.4108080000000 1.0
C      1  0.5273810000000  0.4018980000000  0.5890700000000 1.0
C      1  0.5289660000000  0.4825630000000  0.5196830000000 1.0
C      1  0.5862030000000  0.5535100000000  0.5518610000000 1.0
C      1  0.3803170000000  0.5155560000000  0.5351930000000 1.0
C      1  0.5286450000000  0.5635570000000  0.4473640000000 1.0
C      1  0.4478230000000  0.5678600000000  0.5525250000000 1.0
C      1  0.5880350000000  0.4697170000000  0.3196260000000 1.0
C      1  0.5489890000000  0.4853650000000  0.4092040000000 1.0
C      1  0.4842240000000  0.5343300000000  0.5600710000000 1.0
C      1  0.4407030000000  0.5379480000000  0.4958310000000 1.0
C      1  0.5736770000000  0.5117070000000  0.5317940000000 1.0
C      1  0.5125440000000  0.4039660000000  0.3450850000000 1.0
C      1  0.5579620000000  0.5594860000000  0.4432950000000 1.0
C      1  0.6882660000000  0.4692030000000  0.6139430000000 1.0
C      1  0.4547530000000  0.5708080000000  0.5805190000000 1.0
C      1  0.4770880000000  0.5474570000000  0.4580990000000 1.0
C      1  0.5040040000000  0.6196860000000  0.4608050000000 1.0
C      1  0.5341710000000  0.5268200000000  0.5594220000000 1.0
C      1  0.5822370000000  0.4749520000000  0.3444870000000 1.0
C      1  0.4541720000000  0.5199320000000  0.3868000000000 1.0
C      1  0.4910350000000  0.5131860000000  0.6059390000000 1.0
C      1  0.4438800000000  0.5991520000000  0.5145320000000 1.0
C      1  0.3851160000000  0.4891950000000  0.5248070000000 1.0
C      1  0.5185060000000  0.5159450000000  0.4218540000000 1.0
C      1  0.4408600000000  0.6164520000000  0.4692320000000 1.0
C      1  0.3942530000000  0.4280360000000  0.5341810000000 1.0
C      1  0.4822180000000  0.4233350000000  0.5315650000000 1.0
C      1  0.4459560000000  0.5110350000000  0.4127170000000 1.0
C      1  0.4368880000000  0.5438410000000  0.6170720000000 1.0
C      1  0.3900910000000  0.5266680000000  0.4880610000000 1.0
C      1  0.4322370000000  0.4298960000000  0.5621160000000 1.0
C      1  0.5939590000000  0.5009340000000  0.4613260000000 1.0
C      1  0.4723180000000  0.4801820000000  0.5311000000000 1.0
C      1  0.5480830000000  0.6002770000000  0.4253710000000 1.0
C      1  0.4745850000000  0.6115070000000  0.5679790000000 1.0
C      1  0.6142950000000  0.4860990000000  0.5402800000000 1.0
C      1  0.3751800000000  0.5143940000000  0.5635930000000 1.0
C      1  0.5887440000000  0.4388580000000  0.5021810000000 1.0
C      1  0.5541750000000  0.5071000000000  0.5530980000000 1.0
C      1  0.5074200000000  0.4888570000000  0.4248480000000 1.0
C      1  0.3687690000000  0.4678920000000  0.5164870000000 1.0
C      1  0.5251500000000  0.4703490000000  0.3691840000000 1.0
C      1  0.4117980000000  0.4889430000000  0.4605670000000 1.0
C      1  0.5468550000000  0.3995590000000  0.6390430000000 1.0
C      1  0.5354360000000  0.3788270000000  0.4850380000000 1.0
C      1  0.4306430000000  0.4860670000000  0.5973110000000 1.0
C      1  0.5431020000000  0.4357440000000  0.5186610000000 1.0
C      1  0.5069100000000  0.5253090000000  0.6255450000000 1.0
C      1  0.4738270000000  0.6048010000000  0.4249380000000 1.0
C      1  0.5829560000000  0.4479360000000  0.5850590000000 1.0
C      1  0.5475220000000  0.5117230000000  0.4234420000000 1.0
C      1  0.4811840000000  0.4815780000000  0.4309510000000 1.0
C      1  0.4965010000000  0.4095630000000  0.5524750000000 1.0
C      1  0.4126660000000  0.5795770000000  0.4776480000000 1.0
C      1  0.5943980000000  0.4872510000000  0.3907640000000 1.0
C      1  0.4765150000000  0.4381890000000  0.5073940000000 1.0
C      1  0.4746140000000  0.4606410000000  0.3677990000000 1.0
C      1  0.5655290000000  0.4564510000000  0.5647380000000 1.0
C      1  0.4034260000000  0.4403950000000  0.5597090000000 1.0
C      1  0.5417780000000  0.5516580000000  0.5726400000000 1.0
C      1  0.5288590000000  0.4693970000000  0.4223960000000 1.0
C      1  0.5000380000000  0.4086500000000  0.5813300000000 1.0
C      1  0.5769940000000  0.5406950000000  0.5278470000000 1.0
C      1  0.5759660000000  0.4057160000000  0.4541800000000 1.0
C      1  0.5891050000000  0.4684400000000  0.5026590000000 1.0
C      1  0.5273360000000  0.4832010000000  0.4711060000000 1.0
C      1  0.6532210000000  0.4792150000000  0.5754590000000 1.0
C      1  0.5121080000000  0.5382170000000  0.4054320000000 1.0
C      1  0.4928930000000  0.5589330000000  0.4804160000000 1.0
C      1  0.5044060000000  0.5823880000000  0.5901340000000 1.0
C      1  0.4302690000000  0.5815390000000  0.4354440000000 1.0
C      1  0.4639710000000  0.5040170000000  0.4341970000000 1.0
C      1  0.5812570000000  0.4097140000000  0.5027960000000 1.0
C      1  0.5990560000000  0.4402250000000  0.6040470000000 1.0
C      1  0.4379570000000  0.4758040000000  0.5725320000000 1.0
C      1  0.5308100000000  0.4091290000000  0.5203670000000 1.0
C      1  0.4298610000000  0.5789240000000  0.5330730000000 1.0
C      1  0.5804450000000  0.3984970000000  0.5295710000000 1.0
C      1  0.4421910000000  0.3825940000000  0.4931820000000 1.0
C      1  0.5755420000000  0.4803080000000  0.3708490000000 1.0
C      1  0.5557890000000  0.6047570000000  0.4720520000000 1.0
C      1  0.4755140000000  0.4397420000000  0.4583370000000 1.0
C      1  0.5256630000000  0.4985660000000  0.4950240000000 1.0
C      1  0.5141070000000  0.3587090000000  0.4895460000000 1.0
C      1  0.4739930000000  0.5591260000000  0.4319840000000 1.0
C      1  0.4680040000000  0.4651240000000  0.5078480000000 1.0
C      1  0.5217970000000  0.3986550000000  0.5439430000000 1.0
C      1  0.5328680000000  0.6232850000000  0.4643390000000 1.0
C      1  0.5561560000000  0.4826140000000  0.5662410000000 1.0
C      1  0.6067180000000  0.4685800000000  0.4104910000000 1.0
C      1  0.3577690000000  0.5326770000000  0.5755050000000 1.0
C      1  0.4575680000000  0.5820090000000  0.4280350000000 1.0
C      1  0.4636810000000  0.4825010000000  0.3540380000000 1.0
C      1  0.6236060000000  0.5122740000000  0.4148630000000 1.0
C      1  0.4906280000000  0.4853780000000  0.6074240000000 1.0
C      1  0.4307830000000  0.4570010000000  0.3948420000000 1.0
C      1  0.4865440000000  0.5495900000000  0.4079590000000 1.0
C      1  0.6496520000000  0.4752040000000  0.4361350000000 1.0
C      1  0.5211650000000  0.5583240000000  0.4744720000000 1.0
C      1  0.3838760000000  0.4507050000000  0.4019420000000 1.0
C      1  0.3425370000000  0.5503810000000  0.5870620000000 1.0
C      1  0.4607600000000  0.3668040000000  0.5600230000000 1.0
C      1  0.4218930000000  0.5589050000000  0.4936300000000 1.0
C      1  0.5584490000000  0.5572700000000  0.5124110000000 1.0
C      1  0.5679940000000  0.3954430000000  0.4798220000000 1.0
C      1  0.5654180000000  0.4098670000000  0.5513290000000 1.0
C      1  0.4011220000000  0.5165470000000  0.4629390000000 1.0
C      1  0.4765960000000  0.5891380000000  0.5846510000000 1.0
C      1  0.5326000000000  0.5464970000000  0.3870060000000 1.0
C      1  0.4526850000000  0.5049400000000  0.3634240000000 1.0
C      1  0.5374350000000  0.4503860000000  0.4409070000000 1.0
C      1  0.4139800000000  0.5273090000000  0.6129620000000 1.0
C      1  0.5240190000000  0.5743140000000  0.5687170000000 1.0
C      1  0.4075810000000  0.5319960000000  0.4388390000000 1.0
C      1  0.5997530000000  0.5156100000000  0.3986140000000 1.0
C      1  0.6284910000000  0.4846640000000  0.4219820000000 1.0
C      1  0.5224380000000  0.4009570000000  0.4953530000000 1.0
C      1  0.5909430000000  0.4884730000000  0.5244400000000 1.0
C      1  0.4098130000000  0.5598970000000  0.5203720000000 1.0
C      1  0.4127490000000  0.5592140000000  0.4331670000000 1.0
C      1  0.4318270000000  0.4892170000000  0.5482730000000 1.0
C      1  0.5213510000000  0.5880230000000  0.4307030000000 1.0
C      1  0.3880700000000  0.4936920000000  0.5799250000000 1.0
C      1  0.4337380000000  0.4813580000000  0.4766320000000 1.0
C      1  0.5086540000000  0.5264980000000  0.5470650000000 1.0
C      1  0.4078230000000  0.4602790000000  0.4115370000000 1.0
C      1  0.5588390000000  0.4381180000000  0.5440580000000 1.0
C      1  0.5649080000000  0.5352130000000  0.4276930000000 1.0
C      1  0.5911920000000  0.4805620000000  0.4772720000000 1.0
C      1  0.4969990000000  0.5713910000000  0.6372240000000 1.0
C      1  0.4481610000000  0.5209500000000  0.5154600000000 1.0
C      1  0.7053200000000  0.4641440000000  0.6330000000000 1.0
C      1  0.3905410000000  0.4642510000000  0.5723010000000 1.0
C      1  0.4688760000000  0.5437160000000  0.3869230000000 1.0
C      1  0.4362390000000  0.4064730000000  0.5437990000000 1.0
C      1  0.4873280000000  0.6159180000000  0.4848380000000 1.0
C      1  0.4507380000000  0.4503430000000  0.5701240000000 1.0
C      1  0.4774600000000  0.5043060000000  0.4812650000000 1.0
END
