TITL C-599891-72-649 0.0158240239535471 125000 -472.575343851039 0 0 78 (C1) n - 1
REM
REM in /home/nfs/bkarasulu/CARBON/AIRSS/Generating-Clusters/TERSOFF/Only-C1/FIRE-HFTN
REM
REM
REM
REM
REM
REM ./C.cell (11c1c37f851c82e70ff6c80c92926a4b)
REM AIRSS Version 0.9.1 bugfix July 2018 build 013d7b7c2542+ Fri, 06 Jul 2018 19:26:36 +0100
REM compiler GCC version 9.2.1 20190827 (Red Hat 9.2.1-1)
REM options -cpp -mtune=generic -march=x86-64 -g -O0 -fpre-include=/usr/include/finclude/math-vector-fortran.h
REM seed 724882739 -101160168 388972760 894871578 1610460709 -893961521 409997713 -1479581517 -1967032176 1415209516 -260762629 -755728309 -2007399643 1372602027 712732226 -375329788 -844278424 -1173069974 120261662 -195480187 -1391249240 743852297 1606846083 1462607467 734775206 -178196161 1004336122 472261991 -905819414 -1385406701 1301965169 1791473546 1334705247
REM
CELL 1.54180   50.00000   50.00000   50.00000   90.00000   90.00000   90.00000
LATT -1
SFAC C  
C      1  0.5735210000000  0.4917720000000  0.4427630000000 1.0
C      1  0.4405730000000  0.4922450000000  0.4551440000000 1.0
C      1  0.4556820000000  0.5475440000000  0.5045040000000 1.0
C      1  0.5824680000000  0.5316720000000  0.4922900000000 1.0
C      1  0.4168940000000  0.5312910000000  0.4699910000000 1.0
C      1  0.4341900000000  0.4523260000000  0.5253330000000 1.0
C      1  0.5353280000000  0.4712150000000  0.4249700000000 1.0
C      1  0.5445520000000  0.4524470000000  0.5569170000000 1.0
C      1  0.5118070000000  0.5210450000000  0.4328760000000 1.0
C      1  0.4512510000000  0.5382200000000  0.5509370000000 1.0
C      1  0.5248300000000  0.4335700000000  0.5479460000000 1.0
C      1  0.4211090000000  0.4894930000000  0.4999180000000 1.0
C      1  0.4666950000000  0.4572880000000  0.5716180000000 1.0
C      1  0.5307700000000  0.5290890000000  0.5026180000000 1.0
C      1  0.4617570000000  0.4467840000000  0.5253160000000 1.0
C      1  0.4322200000000  0.4749440000000  0.4769750000000 1.0
C      1  0.4631790000000  0.4853500000000  0.5673980000000 1.0
C      1  0.4859360000000  0.5275880000000  0.4235190000000 1.0
C      1  0.4780200000000  0.4615680000000  0.5067660000000 1.0
C      1  0.4877110000000  0.5008340000000  0.5751390000000 1.0
C      1  0.5711670000000  0.4441760000000  0.5519950000000 1.0
C      1  0.4276170000000  0.4797680000000  0.5265110000000 1.0
C      1  0.4305170000000  0.5196230000000  0.5543190000000 1.0
C      1  0.4487380000000  0.4685780000000  0.4068700000000 1.0
C      1  0.4168060000000  0.5751500000000  0.4907060000000 1.0
C      1  0.4447750000000  0.5240650000000  0.4581710000000 1.0
C      1  0.5275080000000  0.4481500000000  0.4706310000000 1.0
C      1  0.4859260000000  0.5129790000000  0.5252080000000 1.0
C      1  0.5343870000000  0.5607020000000  0.5382540000000 1.0
C      1  0.5533610000000  0.5452340000000  0.4265640000000 1.0
C      1  0.4387320000000  0.4469360000000  0.4756630000000 1.0
C      1  0.4555740000000  0.4565570000000  0.3847730000000 1.0
C      1  0.4824330000000  0.5600050000000  0.4682930000000 1.0
C      1  0.4548220000000  0.4254140000000  0.4800240000000 1.0
C      1  0.4089390000000  0.5135320000000  0.4913390000000 1.0
C      1  0.4655650000000  0.5443860000000  0.5740810000000 1.0
C      1  0.4661600000000  0.5338410000000  0.5266370000000 1.0
C      1  0.5513270000000  0.4948120000000  0.4252840000000 1.0
C      1  0.5286840000000  0.4537390000000  0.4444260000000 1.0
C      1  0.5314120000000  0.5565330000000  0.5103540000000 1.0
C      1  0.4933770000000  0.4948140000000  0.4697450000000 1.0
C      1  0.4387050000000  0.4927330000000  0.5506950000000 1.0
C      1  0.5133790000000  0.5126680000000  0.4604520000000 1.0
C      1  0.5554410000000  0.5279750000000  0.5688330000000 1.0
C      1  0.5854220000000  0.4521210000000  0.5053580000000 1.0
C      1  0.5400470000000  0.4804000000000  0.5645790000000 1.0
C      1  0.4885110000000  0.5294140000000  0.5803020000000 1.0
C      1  0.5115150000000  0.4169520000000  0.5310510000000 1.0
C      1  0.5354070000000  0.5471480000000  0.5633590000000 1.0
C      1  0.5075060000000  0.4938510000000  0.5224570000000 1.0
C      1  0.4081390000000  0.5581480000000  0.4714450000000 1.0
C      1  0.4706020000000  0.4399270000000  0.5512920000000 1.0
C      1  0.4432040000000  0.4810020000000  0.4296080000000 1.0
C      1  0.4749380000000  0.4121370000000  0.4926510000000 1.0
C      1  0.5136830000000  0.4878800000000  0.5738190000000 1.0
C      1  0.5021950000000  0.5759000000000  0.4768200000000 1.0
C      1  0.5385170000000  0.5208770000000  0.4218500000000 1.0
C      1  0.4373780000000  0.5691600000000  0.5072750000000 1.0
C      1  0.5124770000000  0.5439780000000  0.5792080000000 1.0
C      1  0.5777370000000  0.4820470000000  0.4674820000000 1.0
C      1  0.5720750000000  0.4742360000000  0.4939410000000 1.0
C      1  0.5863790000000  0.4416350000000  0.5300380000000 1.0
C      1  0.5599910000000  0.5020310000000  0.5584010000000 1.0
C      1  0.5357150000000  0.5232840000000  0.4752280000000 1.0
C      1  0.5877850000000  0.5230240000000  0.5178210000000 1.0
C      1  0.4770010000000  0.4773500000000  0.4825300000000 1.0
C      1  0.5489890000000  0.5770410000000  0.4671740000000 1.0
C      1  0.4631260000000  0.5417760000000  0.4777550000000 1.0
C      1  0.5737290000000  0.5028110000000  0.5329960000000 1.0
C      1  0.4946710000000  0.4092490000000  0.5111400000000 1.0
C      1  0.5048090000000  0.4667150000000  0.5143860000000 1.0
C      1  0.5321910000000  0.5042810000000  0.5153590000000 1.0
C      1  0.4601100000000  0.5297070000000  0.4317670000000 1.0
C      1  0.5283940000000  0.5745050000000  0.4873520000000 1.0
C      1  0.5631760000000  0.5334030000000  0.4711300000000 1.0
C      1  0.5231500000000  0.4541150000000  0.4964950000000 1.0
C      1  0.5571710000000  0.4900800000000  0.5126840000000 1.0
C      1  0.5604140000000  0.5551590000000  0.4524810000000 1.0
END
