TITL C-599895-9959-729 0.00026102968748566 125000 -785.089859794108 0 0 128 (C1) n - 1
REM
REM in /home/nfs/bkarasulu/CARBON/AIRSS/Generating-Clusters/TERSOFF/Only-C1/FIRE-HFTN
REM
REM
REM
REM
REM
REM ./C.cell (11c1c37f851c82e70ff6c80c92926a4b)
REM AIRSS Version 0.9.1 bugfix July 2018 build 013d7b7c2542+ Fri, 06 Jul 2018 19:26:36 +0100
REM compiler GCC version 9.2.1 20190827 (Red Hat 9.2.1-1)
REM options -cpp -mtune=generic -march=x86-64 -g -O0 -fpre-include=/usr/include/finclude/math-vector-fortran.h
REM seed -487589520 327155746 -1532136874 1905244269 488834052 -1976192515 -695005788 1934469898 337489241 1051079266 1738319837 1424493844 -1168780231 1429140238 -407538493 549115941 364104814 -1179148288 298643143 1471550680 -1482520616 1909514046 283968732 794086127 415926445 1707313194 -2065919554 -1124308696 -399209489 -239783666 -1193274122 299055744 -940286342
REM
CELL 1.54180   50.00000   50.00000   50.00000   90.00000   90.00000   90.00000
LATT -1
SFAC C  
C      1  0.4354490000000  0.5735070000000  0.5021540000000 1.0
C      1  0.4993370000000  0.5253410000000  0.5411050000000 1.0
C      1  0.5209720000000  0.5402670000000  0.5280860000000 1.0
C      1  0.5048810000000  0.5961230000000  0.5546330000000 1.0
C      1  0.5499250000000  0.4546340000000  0.5746320000000 1.0
C      1  0.5116140000000  0.4953460000000  0.4398940000000 1.0
C      1  0.5851520000000  0.5236180000000  0.4535720000000 1.0
C      1  0.5231350000000  0.5409420000000  0.4997600000000 1.0
C      1  0.4646840000000  0.5414790000000  0.4795050000000 1.0
C      1  0.5708670000000  0.4645830000000  0.4594000000000 1.0
C      1  0.4699400000000  0.4081230000000  0.5363860000000 1.0
C      1  0.5477600000000  0.5414510000000  0.5800520000000 1.0
C      1  0.4225430000000  0.4476050000000  0.4556080000000 1.0
C      1  0.6109200000000  0.5558550000000  0.5044880000000 1.0
C      1  0.4426500000000  0.5180550000000  0.5137210000000 1.0
C      1  0.4271650000000  0.5469420000000  0.5453320000000 1.0
C      1  0.5007830000000  0.4521440000000  0.5902290000000 1.0
C      1  0.4807200000000  0.4046460000000  0.4870060000000 1.0
C      1  0.4221450000000  0.5665650000000  0.4045540000000 1.0
C      1  0.4324970000000  0.4800220000000  0.5393940000000 1.0
C      1  0.5348840000000  0.4069630000000  0.4846050000000 1.0
C      1  0.5067200000000  0.5773960000000  0.4377100000000 1.0
C      1  0.4141820000000  0.4235480000000  0.4689600000000 1.0
C      1  0.5491230000000  0.5796430000000  0.5340870000000 1.0
C      1  0.5049110000000  0.5578800000000  0.4579320000000 1.0
C      1  0.4106330000000  0.4721910000000  0.4464260000000 1.0
C      1  0.4635120000000  0.4501410000000  0.4260710000000 1.0
C      1  0.5042130000000  0.4858860000000  0.4642890000000 1.0
C      1  0.5198950000000  0.4958400000000  0.5952890000000 1.0
C      1  0.5637070000000  0.5383410000000  0.5546290000000 1.0
C      1  0.5942940000000  0.5750720000000  0.5127830000000 1.0
C      1  0.4338980000000  0.5768090000000  0.4497750000000 1.0
C      1  0.4920960000000  0.4232320000000  0.5497910000000 1.0
C      1  0.5092990000000  0.5881130000000  0.4927880000000 1.0
C      1  0.5574040000000  0.4863320000000  0.5095800000000 1.0
C      1  0.5365790000000  0.4703880000000  0.5211480000000 1.0
C      1  0.4591900000000  0.4007840000000  0.4682910000000 1.0
C      1  0.4445430000000  0.3943770000000  0.5334370000000 1.0
C      1  0.5612900000000  0.4381420000000  0.5517320000000 1.0
C      1  0.4329850000000  0.4049060000000  0.4811720000000 1.0
C      1  0.6020610000000  0.5122880000000  0.4756970000000 1.0
C      1  0.4713050000000  0.4772760000000  0.4171410000000 1.0
C      1  0.6034850000000  0.4851150000000  0.4896180000000 1.0
C      1  0.5257410000000  0.4865290000000  0.5418620000000 1.0
C      1  0.5685460000000  0.5111060000000  0.5480850000000 1.0
C      1  0.5068170000000  0.5011030000000  0.4868360000000 1.0
C      1  0.5896240000000  0.4606980000000  0.4811450000000 1.0
C      1  0.4818840000000  0.5868670000000  0.4983700000000 1.0
C      1  0.4778850000000  0.5951940000000  0.5522140000000 1.0
C      1  0.5420700000000  0.4176080000000  0.5453610000000 1.0
C      1  0.4799930000000  0.4715930000000  0.5494490000000 1.0
C      1  0.4638820000000  0.4031460000000  0.4403040000000 1.0
C      1  0.4506900000000  0.5232040000000  0.5997110000000 1.0
C      1  0.4747330000000  0.5310390000000  0.5550060000000 1.0
C      1  0.4001140000000  0.5233400000000  0.4761590000000 1.0
C      1  0.5609250000000  0.5671010000000  0.4606250000000 1.0
C      1  0.4509780000000  0.5014090000000  0.6168530000000 1.0
C      1  0.4229600000000  0.4965890000000  0.5178040000000 1.0
C      1  0.4971660000000  0.4945690000000  0.5361520000000 1.0
C      1  0.5370630000000  0.5685020000000  0.5804100000000 1.0
C      1  0.4082290000000  0.5237670000000  0.5503910000000 1.0
C      1  0.5782050000000  0.4974500000000  0.5261340000000 1.0
C      1  0.4887550000000  0.4480240000000  0.5648420000000 1.0
C      1  0.4717300000000  0.4192330000000  0.5099740000000 1.0
C      1  0.5552460000000  0.4409000000000  0.4551580000000 1.0
C      1  0.4521780000000  0.5893740000000  0.5456070000000 1.0
C      1  0.4308410000000  0.3954670000000  0.5090190000000 1.0
C      1  0.5154760000000  0.5616390000000  0.4833200000000 1.0
C      1  0.4994250000000  0.4864060000000  0.4154620000000 1.0
C      1  0.4973900000000  0.4528070000000  0.4988570000000 1.0
C      1  0.5811510000000  0.4421430000000  0.5290920000000 1.0
C      1  0.4492140000000  0.4955720000000  0.4245320000000 1.0
C      1  0.4570640000000  0.4646520000000  0.5325430000000 1.0
C      1  0.4746040000000  0.5239690000000  0.5829770000000 1.0
C      1  0.4425800000000  0.5697720000000  0.4229420000000 1.0
C      1  0.6029060000000  0.4850880000000  0.5193450000000 1.0
C      1  0.5086780000000  0.3999130000000  0.4839720000000 1.0
C      1  0.5397700000000  0.4981570000000  0.4412210000000 1.0
C      1  0.5211440000000  0.5497080000000  0.4054010000000 1.0
C      1  0.4753410000000  0.4864040000000  0.6141880000000 1.0
C      1  0.3873670000000  0.4176280000000  0.4700590000000 1.0
C      1  0.5131380000000  0.6037770000000  0.4383040000000 1.0
C      1  0.5765570000000  0.4385880000000  0.4991740000000 1.0
C      1  0.3988290000000  0.5126630000000  0.5239800000000 1.0
C      1  0.4677360000000  0.4224640000000  0.4213300000000 1.0
C      1  0.5372880000000  0.5141790000000  0.5829680000000 1.0
C      1  0.5245890000000  0.4813030000000  0.4002240000000 1.0
C      1  0.4832210000000  0.4594520000000  0.6116390000000 1.0
C      1  0.5435500000000  0.5329830000000  0.4133510000000 1.0
C      1  0.4490290000000  0.5166010000000  0.4846960000000 1.0
C      1  0.4251730000000  0.5143150000000  0.4657870000000 1.0
C      1  0.5261770000000  0.4667210000000  0.5895100000000 1.0
C      1  0.4216740000000  0.4973220000000  0.5620020000000 1.0
C      1  0.5464170000000  0.5510600000000  0.5360600000000 1.0
C      1  0.4638380000000  0.4904010000000  0.4866440000000 1.0
C      1  0.6041460000000  0.4596290000000  0.5326860000000 1.0
C      1  0.4693010000000  0.5653580000000  0.4124230000000 1.0
C      1  0.4925040000000  0.5042030000000  0.5974980000000 1.0
C      1  0.5675860000000  0.5840370000000  0.5111560000000 1.0
C      1  0.4711050000000  0.4475070000000  0.5112190000000 1.0
C      1  0.5520190000000  0.5006330000000  0.4862640000000 1.0
C      1  0.5567520000000  0.5865820000000  0.4839020000000 1.0
C      1  0.4980050000000  0.5651310000000  0.4133410000000 1.0
C      1  0.4866770000000  0.4954480000000  0.5055780000000 1.0
C      1  0.5571100000000  0.4891620000000  0.4607920000000 1.0
C      1  0.6145630000000  0.5332280000000  0.4907580000000 1.0
C      1  0.4944190000000  0.4590820000000  0.4698480000000 1.0
C      1  0.4501760000000  0.4523770000000  0.4517780000000 1.0
C      1  0.4322900000000  0.5731500000000  0.5318460000000 1.0
C      1  0.4825320000000  0.5411290000000  0.4579840000000 1.0
C      1  0.4266370000000  0.4964060000000  0.4431620000000 1.0
C      1  0.5292210000000  0.5165240000000  0.4888740000000 1.0
C      1  0.4648850000000  0.4664750000000  0.4704900000000 1.0
C      1  0.5332870000000  0.4425260000000  0.4368370000000 1.0
C      1  0.5319960000000  0.5871620000000  0.5575950000000 1.0
C      1  0.5198020000000  0.4479470000000  0.5153590000000 1.0
C      1  0.5325850000000  0.6025670000000  0.4857600000000 1.0
C      1  0.4626590000000  0.5659600000000  0.4950570000000 1.0
C      1  0.5080230000000  0.4413370000000  0.4502260000000 1.0
C      1  0.3876350000000  0.5231040000000  0.5003210000000 1.0
C      1  0.5562340000000  0.4254190000000  0.4805490000000 1.0
C      1  0.5642040000000  0.5422680000000  0.4426510000000 1.0
C      1  0.5417100000000  0.5062940000000  0.3989810000000 1.0
C      1  0.4517270000000  0.5319660000000  0.5376890000000 1.0
C      1  0.4243620000000  0.5789110000000  0.4756670000000 1.0
C      1  0.5173510000000  0.4256860000000  0.5345250000000 1.0
C      1  0.5350540000000  0.4559080000000  0.4109500000000 1.0
C      1  0.5445160000000  0.4994760000000  0.5587210000000 1.0
END
