TITL C-599891-72-1028 2.6389202116152 125000 -330.396235703127 0 0 55 (C1) n - 1
REM
REM in /home/nfs/bkarasulu/CARBON/AIRSS/Generating-Clusters/TERSOFF/Only-C1/FIRE-HFTN
REM
REM
REM
REM
REM
REM ./C.cell (11c1c37f851c82e70ff6c80c92926a4b)
REM AIRSS Version 0.9.1 bugfix July 2018 build 013d7b7c2542+ Fri, 06 Jul 2018 19:26:36 +0100
REM compiler GCC version 9.2.1 20190827 (Red Hat 9.2.1-1)
REM options -cpp -mtune=generic -march=x86-64 -g -O0 -fpre-include=/usr/include/finclude/math-vector-fortran.h
REM seed 1745929723 371809660 1155254937 434033921 -353548239 -1958024960 1544854719 -1851246893 846254828 -181463457 -1762814695 -493997450 -1481473381 928338796 -1487748009 -142694002 273356168 -1924456754 -13155302 -1301131102 -1182915251 -2048812091 -268804916 -252571305 -1032285339 981994997 -1469998916 -117150959 -1298608814 299035418 -2085103618 925646647 -449857961
REM
CELL 1.54180   50.00000   50.00000   50.00000   90.00000   90.00000   90.00000
LATT -1
SFAC C  
C      1  0.4971440000000  0.5704880000000  0.4664680000000 1.0
C      1  0.4805050000000  0.4663470000000  0.5856200000000 1.0
C      1  0.5256070000000  0.5367210000000  0.4108690000000 1.0
C      1  0.5585740000000  0.4975760000000  0.4853770000000 1.0
C      1  0.5157480000000  0.4512860000000  0.4769620000000 1.0
C      1  0.5478750000000  0.4503590000000  0.5550060000000 1.0
C      1  0.4417550000000  0.4294830000000  0.5361670000000 1.0
C      1  0.5530790000000  0.5156950000000  0.5554660000000 1.0
C      1  0.4228850000000  0.4485040000000  0.5366310000000 1.0
C      1  0.5220290000000  0.5252970000000  0.4344950000000 1.0
C      1  0.4314060000000  0.4778410000000  0.5730290000000 1.0
C      1  0.5034570000000  0.5912840000000  0.4520870000000 1.0
C      1  0.4265300000000  0.5474790000000  0.4866810000000 1.0
C      1  0.5080650000000  0.4545780000000  0.5023300000000 1.0
C      1  0.4756550000000  0.5526270000000  0.5069930000000 1.0
C      1  0.5277690000000  0.5111730000000  0.5440150000000 1.0
C      1  0.4734840000000  0.5411360000000  0.5537560000000 1.0
C      1  0.4535460000000  0.5225360000000  0.5464020000000 1.0
C      1  0.4176120000000  0.4735860000000  0.5485110000000 1.0
C      1  0.5757870000000  0.4870800000000  0.5051950000000 1.0
C      1  0.5330830000000  0.4657890000000  0.4602650000000 1.0
C      1  0.4549260000000  0.4746510000000  0.5856870000000 1.0
C      1  0.4466970000000  0.5499770000000  0.5073020000000 1.0
C      1  0.4881460000000  0.4284570000000  0.5580070000000 1.0
C      1  0.5532890000000  0.4513810000000  0.4462690000000 1.0
C      1  0.4632250000000  0.4982560000000  0.5355840000000 1.0
C      1  0.4792500000000  0.5025910000000  0.4882950000000 1.0
C      1  0.5349460000000  0.5750380000000  0.3418390000000 1.0
C      1  0.5369720000000  0.4933100000000  0.4676740000000 1.0
C      1  0.5287890000000  0.5493000000000  0.3877660000000 1.0
C      1  0.4112560000000  0.5192270000000  0.5205040000000 1.0
C      1  0.5230330000000  0.4629110000000  0.5596990000000 1.0
C      1  0.5880150000000  0.5040270000000  0.5239690000000 1.0
C      1  0.5805010000000  0.4419510000000  0.4885600000000 1.0
C      1  0.5177390000000  0.4844090000000  0.5414640000000 1.0
C      1  0.4659330000000  0.4217180000000  0.5445880000000 1.0
C      1  0.4061590000000  0.4949140000000  0.5337450000000 1.0
C      1  0.5148980000000  0.5337530000000  0.5327980000000 1.0
C      1  0.4993360000000  0.4511240000000  0.5708130000000 1.0
C      1  0.4051380000000  0.5291950000000  0.4939200000000 1.0
C      1  0.5019350000000  0.4757110000000  0.5195370000000 1.0
C      1  0.5783390000000  0.5148460000000  0.5465450000000 1.0
C      1  0.4899080000000  0.5488390000000  0.4823680000000 1.0
C      1  0.5663360000000  0.4495200000000  0.5354400000000 1.0
C      1  0.4904930000000  0.5477490000000  0.5318220000000 1.0
C      1  0.4957320000000  0.5215970000000  0.4753920000000 1.0
C      1  0.5729110000000  0.4398480000000  0.4629320000000 1.0
C      1  0.5758380000000  0.4588230000000  0.5105380000000 1.0
C      1  0.4344370000000  0.5342140000000  0.5294020000000 1.0
C      1  0.4788510000000  0.4905400000000  0.5136720000000 1.0
C      1  0.5183410000000  0.5135500000000  0.4596590000000 1.0
C      1  0.3836160000000  0.5227820000000  0.4787000000000 1.0
C      1  0.5379680000000  0.5877150000000  0.3192600000000 1.0
C      1  0.5535780000000  0.4490640000000  0.4191310000000 1.0
C      1  0.5318730000000  0.5621480000000  0.3647960000000 1.0
END
