TITL C-599894-471-1358 16.3866458828163 125000 -1115.66929506161 0 0 180 (C1) n - 1
REM
REM in /home/nfs/bkarasulu/CARBON/AIRSS/Generating-Clusters/TERSOFF/Only-C1/FIRE-HFTN
REM
REM
REM
REM
REM
REM ./C.cell (11c1c37f851c82e70ff6c80c92926a4b)
REM AIRSS Version 0.9.1 bugfix July 2018 build 013d7b7c2542+ Fri, 06 Jul 2018 19:26:36 +0100
REM compiler GCC version 9.2.1 20190827 (Red Hat 9.2.1-1)
REM options -cpp -mtune=generic -march=x86-64 -g -O0 -fpre-include=/usr/include/finclude/math-vector-fortran.h
REM seed 1920537776 43479923 1718571196 -527355607 1615726519 -275666685 -1859498504 -2136567624 -912855430 -402163917 1341191558 -468534619 -899533838 544453126 -934527666 1635375416 1989950548 759741413 1009657510 -1628718659 144999161 961560233 -423116126 -1143935589 1759939503 -835288048 -1969887847 -938576321 1350332908 1453702646 -1162203992 -2066302964 1012175826
REM
CELL 1.54180   50.00000   50.00000   50.00000   90.00000   90.00000   90.00000
LATT -1
SFAC C  
C      1  0.4890960000000  0.6296600000000  0.5443880000000 1.0
C      1  0.4939360000000  0.4986820000000  0.3621340000000 1.0
C      1  0.5656070000000  0.5097950000000  0.3972510000000 1.0
C      1  0.5006340000000  0.5687000000000  0.5907440000000 1.0
C      1  0.4673950000000  0.4806040000000  0.4814270000000 1.0
C      1  0.4483530000000  0.3818390000000  0.4550640000000 1.0
C      1  0.5048230000000  0.5376130000000  0.4426200000000 1.0
C      1  0.4700220000000  0.4693350000000  0.5834860000000 1.0
C      1  0.4254310000000  0.5767410000000  0.4172350000000 1.0
C      1  0.3973840000000  0.5440420000000  0.4364060000000 1.0
C      1  0.5828150000000  0.5004700000000  0.4487800000000 1.0
C      1  0.4976670000000  0.5643220000000  0.4463460000000 1.0
C      1  0.6139740000000  0.5522270000000  0.4904390000000 1.0
C      1  0.4957480000000  0.5997040000000  0.4154950000000 1.0
C      1  0.4851520000000  0.5054530000000  0.5334870000000 1.0
C      1  0.4854340000000  0.3712160000000  0.5639790000000 1.0
C      1  0.5917630000000  0.4480880000000  0.4949300000000 1.0
C      1  0.6039440000000  0.4876330000000  0.4338830000000 1.0
C      1  0.5593770000000  0.5550670000000  0.4237540000000 1.0
C      1  0.5363090000000  0.6018690000000  0.5784860000000 1.0
C      1  0.4506430000000  0.5038390000000  0.4747370000000 1.0
C      1  0.5368120000000  0.4844100000000  0.6059560000000 1.0
C      1  0.4524200000000  0.4397060000000  0.4600870000000 1.0
C      1  0.3901180000000  0.4967250000000  0.4432500000000 1.0
C      1  0.5662220000000  0.4377340000000  0.4868980000000 1.0
C      1  0.4562500000000  0.5351690000000  0.6121000000000 1.0
C      1  0.5109430000000  0.4280560000000  0.4759400000000 1.0
C      1  0.5456690000000  0.4743720000000  0.5500830000000 1.0
C      1  0.5237390000000  0.4777220000000  0.4317980000000 1.0
C      1  0.6507620000000  0.5565510000000  0.5294470000000 1.0
C      1  0.4844790000000  0.4691860000000  0.6076970000000 1.0
C      1  0.4415640000000  0.5543720000000  0.5986770000000 1.0
C      1  0.5822130000000  0.5339630000000  0.5666210000000 1.0
C      1  0.5444320000000  0.5225860000000  0.4854370000000 1.0
C      1  0.5204320000000  0.5382670000000  0.4924260000000 1.0
C      1  0.5758070000000  0.5412160000000  0.6123310000000 1.0
C      1  0.4941820000000  0.5204270000000  0.4874670000000 1.0
C      1  0.5873370000000  0.4675300000000  0.5159070000000 1.0
C      1  0.4541170000000  0.5654150000000  0.4770760000000 1.0
C      1  0.4007330000000  0.5971130000000  0.5166600000000 1.0
C      1  0.5314860000000  0.5009950000000  0.5585620000000 1.0
C      1  0.4284310000000  0.5913910000000  0.5629210000000 1.0
C      1  0.5941690000000  0.5720190000000  0.4857540000000 1.0
C      1  0.4442360000000  0.4731160000000  0.5242910000000 1.0
C      1  0.4595740000000  0.3888130000000  0.5105420000000 1.0
C      1  0.4017520000000  0.5860000000000  0.4641860000000 1.0
C      1  0.3988350000000  0.5933230000000  0.4899890000000 1.0
C      1  0.4870480000000  0.4392950000000  0.5453140000000 1.0
C      1  0.5991900000000  0.4881020000000  0.5710320000000 1.0
C      1  0.5037540000000  0.4908470000000  0.4468080000000 1.0
C      1  0.5180800000000  0.5446570000000  0.5220940000000 1.0
C      1  0.5494610000000  0.5336500000000  0.6018790000000 1.0
C      1  0.5298960000000  0.4576630000000  0.5951730000000 1.0
C      1  0.4816220000000  0.5542740000000  0.5493770000000 1.0
C      1  0.5401920000000  0.5759860000000  0.4332100000000 1.0
C      1  0.6156730000000  0.4840720000000  0.5502540000000 1.0
C      1  0.4874740000000  0.4658750000000  0.5604010000000 1.0
C      1  0.4602370000000  0.4218390000000  0.6068650000000 1.0
C      1  0.5408320000000  0.6142010000000  0.5297350000000 1.0
C      1  0.5643160000000  0.4379940000000  0.4386100000000 1.0
C      1  0.4076240000000  0.4308280000000  0.5392460000000 1.0
C      1  0.4193780000000  0.4860180000000  0.5259290000000 1.0
C      1  0.3940970000000  0.5037640000000  0.5588020000000 1.0
C      1  0.4523830000000  0.6057480000000  0.5618660000000 1.0
C      1  0.4778100000000  0.5162190000000  0.6074950000000 1.0
C      1  0.4448630000000  0.5705320000000  0.5046030000000 1.0
C      1  0.4172510000000  0.5200570000000  0.5643000000000 1.0
C      1  0.4706170000000  0.3862260000000  0.4367130000000 1.0
C      1  0.4881030000000  0.5806150000000  0.5402840000000 1.0
C      1  0.5898170000000  0.5272150000000  0.4553940000000 1.0
C      1  0.5558990000000  0.4202260000000  0.5063050000000 1.0
C      1  0.4070550000000  0.5714580000000  0.4405600000000 1.0
C      1  0.6118270000000  0.5289920000000  0.4741170000000 1.0
C      1  0.4428820000000  0.4757980000000  0.5818240000000 1.0
C      1  0.4747080000000  0.6217280000000  0.4518990000000 1.0
C      1  0.4350810000000  0.5025920000000  0.5783710000000 1.0
C      1  0.4797060000000  0.5725780000000  0.4668130000000 1.0
C      1  0.5650360000000  0.4817990000000  0.4038640000000 1.0
C      1  0.5520680000000  0.4964030000000  0.4839070000000 1.0
C      1  0.4075410000000  0.4527510000000  0.5580300000000 1.0
C      1  0.6265820000000  0.5043300000000  0.4759160000000 1.0
C      1  0.5743900000000  0.5713010000000  0.4661130000000 1.0
C      1  0.5165040000000  0.4253420000000  0.4265550000000 1.0
C      1  0.5438650000000  0.5547200000000  0.5821960000000 1.0
C      1  0.5529670000000  0.4164610000000  0.5328560000000 1.0
C      1  0.4372950000000  0.5514450000000  0.5258900000000 1.0
C      1  0.5932580000000  0.5457480000000  0.5910640000000 1.0
C      1  0.4954030000000  0.4243190000000  0.4058840000000 1.0
C      1  0.4688390000000  0.5202970000000  0.4204120000000 1.0
C      1  0.6109390000000  0.4820210000000  0.5227800000000 1.0
C      1  0.5588390000000  0.4731740000000  0.5245040000000 1.0
C      1  0.4222530000000  0.5535120000000  0.3978840000000 1.0
C      1  0.5125610000000  0.5814020000000  0.4287000000000 1.0
C      1  0.4946020000000  0.4492920000000  0.3912250000000 1.0
C      1  0.4998400000000  0.4957240000000  0.5584260000000 1.0
C      1  0.5185910000000  0.4950130000000  0.6257240000000 1.0
C      1  0.5440390000000  0.4233740000000  0.4266620000000 1.0
C      1  0.6275350000000  0.4902400000000  0.4503780000000 1.0
C      1  0.3827460000000  0.4940660000000  0.4171220000000 1.0
C      1  0.5281050000000  0.5650330000000  0.4796170000000 1.0
C      1  0.4417690000000  0.4497300000000  0.5082180000000 1.0
C      1  0.4530440000000  0.4551030000000  0.4828320000000 1.0
C      1  0.4908340000000  0.3612120000000  0.5381260000000 1.0
C      1  0.4512240000000  0.3846470000000  0.4835630000000 1.0
C      1  0.5079300000000  0.4453730000000  0.4983740000000 1.0
C      1  0.4715900000000  0.4941950000000  0.3794370000000 1.0
C      1  0.4905110000000  0.4939860000000  0.6202290000000 1.0
C      1  0.5484060000000  0.5054950000000  0.5874680000000 1.0
C      1  0.5901120000000  0.4698250000000  0.4156930000000 1.0
C      1  0.4905480000000  0.5336040000000  0.5313090000000 1.0
C      1  0.4033530000000  0.5201390000000  0.4524400000000 1.0
C      1  0.6266770000000  0.4921870000000  0.5015230000000 1.0
C      1  0.4677030000000  0.4871540000000  0.5201300000000 1.0
C      1  0.5778400000000  0.5054780000000  0.5749800000000 1.0
C      1  0.5601910000000  0.4530520000000  0.4626880000000 1.0
C      1  0.5384600000000  0.5305360000000  0.5422240000000 1.0
C      1  0.5413860000000  0.4519500000000  0.5686680000000 1.0
C      1  0.4875520000000  0.4242500000000  0.6097050000000 1.0
C      1  0.5467860000000  0.5778050000000  0.4623680000000 1.0
C      1  0.4239340000000  0.3746750000000  0.4447460000000 1.0
C      1  0.5406990000000  0.4800380000000  0.5031980000000 1.0
C      1  0.4010900000000  0.4786640000000  0.5466350000000 1.0
C      1  0.6106420000000  0.4381640000000  0.4479830000000 1.0
C      1  0.4639170000000  0.5233880000000  0.4935220000000 1.0
C      1  0.4292110000000  0.5201590000000  0.4639520000000 1.0
C      1  0.5144860000000  0.4722910000000  0.4955320000000 1.0
C      1  0.4730090000000  0.4119730000000  0.4222600000000 1.0
C      1  0.5273040000000  0.5766650000000  0.5867350000000 1.0
C      1  0.4708440000000  0.6084260000000  0.4268920000000 1.0
C      1  0.4995440000000  0.3359680000000  0.5330380000000 1.0
C      1  0.4550900000000  0.5412610000000  0.4337960000000 1.0
C      1  0.4307510000000  0.4278770000000  0.5223470000000 1.0
C      1  0.4463290000000  0.5961060000000  0.4187850000000 1.0
C      1  0.3869800000000  0.5142480000000  0.3992810000000 1.0
C      1  0.4092640000000  0.5968010000000  0.5423040000000 1.0
C      1  0.4968130000000  0.4892980000000  0.4770920000000 1.0
C      1  0.5086510000000  0.6144420000000  0.4919950000000 1.0
C      1  0.4886130000000  0.5480390000000  0.5755950000000 1.0
C      1  0.4714570000000  0.4666140000000  0.3885170000000 1.0
C      1  0.5900880000000  0.4436410000000  0.4282300000000 1.0
C      1  0.5015980000000  0.4327040000000  0.4503740000000 1.0
C      1  0.4682590000000  0.4168830000000  0.5508770000000 1.0
C      1  0.4267220000000  0.5453490000000  0.5533570000000 1.0
C      1  0.5474230000000  0.4268420000000  0.5571140000000 1.0
C      1  0.4368540000000  0.4307410000000  0.5957670000000 1.0
C      1  0.4420740000000  0.5370000000000  0.3851870000000 1.0
C      1  0.5043410000000  0.4475210000000  0.6066540000000 1.0
C      1  0.5048100000000  0.4011800000000  0.5122540000000 1.0
C      1  0.3988270000000  0.5385720000000  0.4073220000000 1.0
C      1  0.6116420000000  0.4424500000000  0.4751330000000 1.0
C      1  0.4892280000000  0.5206260000000  0.5818920000000 1.0
C      1  0.4418010000000  0.5273280000000  0.5120370000000 1.0
C      1  0.5442660000000  0.6148150000000  0.5563910000000 1.0
C      1  0.5119730000000  0.5766340000000  0.5239560000000 1.0
C      1  0.5782600000000  0.5508260000000  0.4456150000000 1.0
C      1  0.4428090000000  0.5457210000000  0.4590310000000 1.0
C      1  0.4771260000000  0.6054340000000  0.5486790000000 1.0
C      1  0.4501090000000  0.4087550000000  0.5291640000000 1.0
C      1  0.5648300000000  0.4829280000000  0.4628770000000 1.0
C      1  0.5374710000000  0.4720070000000  0.4072790000000 1.0
C      1  0.5564160000000  0.5453490000000  0.5575220000000 1.0
C      1  0.4308080000000  0.5650080000000  0.5738570000000 1.0
C      1  0.5136820000000  0.4007470000000  0.4845500000000 1.0
C      1  0.4929000000000  0.5139780000000  0.4338380000000 1.0
C      1  0.5197130000000  0.4643820000000  0.3856640000000 1.0
C      1  0.5595470000000  0.5352570000000  0.4037620000000 1.0
C      1  0.4906740000000  0.6226790000000  0.4737070000000 1.0
C      1  0.4950120000000  0.3742690000000  0.4453210000000 1.0
C      1  0.6335770000000  0.5553150000000  0.5098940000000 1.0
C      1  0.4193390000000  0.5101570000000  0.5123660000000 1.0
C      1  0.4732680000000  0.4310470000000  0.4446810000000 1.0
C      1  0.4860950000000  0.3806650000000  0.5180480000000 1.0
C      1  0.5020310000000  0.4299060000000  0.5219830000000 1.0
C      1  0.4601950000000  0.5162010000000  0.3935960000000 1.0
C      1  0.4758140000000  0.3960050000000  0.5684700000000 1.0
C      1  0.3864670000000  0.4135930000000  0.5375320000000 1.0
C      1  0.5224800000000  0.6009040000000  0.5128760000000 1.0
C      1  0.5164560000000  0.4834380000000  0.3645070000000 1.0
C      1  0.5115640000000  0.3799110000000  0.4659140000000 1.0
C      1  0.4260130000000  0.4525270000000  0.5803890000000 1.0
END
