TITL C-599897-7526-225 1.07541804830981e-05 125000 -200.125316161333 0 0 35 (C1) n - 1
REM
REM in /home/nfs/bkarasulu/CARBON/AIRSS/Generating-Clusters/TERSOFF/Only-C1/FIRE-HFTN
REM
REM
REM
REM
REM
REM ./C.cell (11c1c37f851c82e70ff6c80c92926a4b)
REM AIRSS Version 0.9.1 bugfix July 2018 build 013d7b7c2542+ Fri, 06 Jul 2018 19:26:36 +0100
REM compiler GCC version 9.2.1 20190827 (Red Hat 9.2.1-1)
REM options -cpp -mtune=generic -march=x86-64 -g -O0 -fpre-include=/usr/include/finclude/math-vector-fortran.h
REM seed 936439266 -16332566 1644637005 -1914788164 -1675757955 -1755877039 -1379614928 738092944 2014872605 1446478127 1410762892 332874999 1824589507 -1891655503 -1037954844 -923077680 1949282533 1704940374 -832906703 -1946065103 861616600 -2098506289 -520844245 -632512058 1593351390 713264361 2087519914 -260256577 1830879609 1399612179 343673450 12301721 1152007673
REM
CELL 1.54180   50.00000   50.00000   50.00000   90.00000   90.00000   90.00000
LATT -1
SFAC C  
C      1  0.5315010000000  0.5151430000000  0.5635030000000 1.0
C      1  0.5641440000000  0.4586480000000  0.5377820000000 1.0
C      1  0.4554880000000  0.4879110000000  0.5228900000000 1.0
C      1  0.5119670000000  0.5370890000000  0.4618110000000 1.0
C      1  0.5692520000000  0.4199310000000  0.5104460000000 1.0
C      1  0.5147830000000  0.5042560000000  0.5448470000000 1.0
C      1  0.4695920000000  0.5421250000000  0.4341790000000 1.0
C      1  0.4904200000000  0.4506570000000  0.5186360000000 1.0
C      1  0.4945920000000  0.4854720000000  0.5522250000000 1.0
C      1  0.5106350000000  0.4412700000000  0.5001710000000 1.0
C      1  0.5215580000000  0.5111720000000  0.4537540000000 1.0
C      1  0.4660820000000  0.4643070000000  0.5086810000000 1.0
C      1  0.4851850000000  0.5802460000000  0.5180450000000 1.0
C      1  0.4674060000000  0.4928270000000  0.5483480000000 1.0
C      1  0.4921180000000  0.4836410000000  0.4245870000000 1.0
C      1  0.4510920000000  0.5382620000000  0.5018220000000 1.0
C      1  0.5165530000000  0.5109390000000  0.5171090000000 1.0
C      1  0.4827380000000  0.5415590000000  0.4579740000000 1.0
C      1  0.5570560000000  0.4438610000000  0.5158470000000 1.0
C      1  0.4434900000000  0.5578630000000  0.5213020000000 1.0
C      1  0.4606010000000  0.5774650000000  0.5294320000000 1.0
C      1  0.5297230000000  0.5342170000000  0.5076810000000 1.0
C      1  0.4674950000000  0.4687290000000  0.4805800000000 1.0
C      1  0.4933790000000  0.5636310000000  0.4968360000000 1.0
C      1  0.5433740000000  0.4965920000000  0.4648910000000 1.0
C      1  0.5175620000000  0.5502460000000  0.4877880000000 1.0
C      1  0.4712490000000  0.5482140000000  0.4836640000000 1.0
C      1  0.5444990000000  0.4739090000000  0.4797480000000 1.0
C      1  0.5368150000000  0.4535880000000  0.4981750000000 1.0
C      1  0.4994710000000  0.4931710000000  0.4489150000000 1.0
C      1  0.4468930000000  0.5109580000000  0.5083320000000 1.0
C      1  0.5012340000000  0.4976740000000  0.4971310000000 1.0
C      1  0.5051410000000  0.4194230000000  0.4844170000000 1.0
C      1  0.4988710000000  0.4584470000000  0.5446350000000 1.0
C      1  0.4880410000000  0.4865560000000  0.4738160000000 1.0
END
