TITL C-599893-4344-97 48855.6493133639 125000 -1133.54053599283 0 0 184 (C1) n - 1
REM
REM in /home/nfs/bkarasulu/CARBON/AIRSS/Generating-Clusters/TERSOFF/Only-C1/FIRE-HFTN
REM
REM
REM
REM
REM
REM ./C.cell (11c1c37f851c82e70ff6c80c92926a4b)
REM AIRSS Version 0.9.1 bugfix July 2018 build 013d7b7c2542+ Fri, 06 Jul 2018 19:26:36 +0100
REM compiler GCC version 9.2.1 20190827 (Red Hat 9.2.1-1)
REM options -cpp -mtune=generic -march=x86-64 -g -O0 -fpre-include=/usr/include/finclude/math-vector-fortran.h
REM seed -1226587744 762410711 -306020705 -934880582 -458593657 380738529 798665838 2060739140 1454223446 -940405696 -617380875 -1235032741 618716820 165241134 848197710 878441200 -1601771206 1203655095 1568228870 -838802666 -608371482 896979585 -869760072 1681985712 1055097270 600885489 -234576381 -943274404 -1907000947 2110846241 -1506824649 1976119076 -1068863614
REM
CELL 1.54180   50.00000   50.00000   50.00000   90.00000   90.00000   90.00000
LATT -1
SFAC C  
C      1  0.4674570000000  0.6015550000000  0.4973240000000 1.0
C      1  0.6497620000000  0.5398780000000  0.5156940000000 1.0
C      1  0.5083840000000  0.5009700000000  0.5710070000000 1.0
C      1  0.6000840000000  0.4685870000000  0.4401410000000 1.0
C      1  0.4751940000000  0.4064650000000  0.4607440000000 1.0
C      1  0.5502720000000  0.5239500000000  0.3823890000000 1.0
C      1  0.5723830000000  0.4512390000000  0.5878250000000 1.0
C      1  0.5562810000000  0.5571960000000  0.5764660000000 1.0
C      1  0.4648500000000  0.5144640000000  0.5574170000000 1.0
C      1  0.4376890000000  0.4972150000000  0.6129790000000 1.0
C      1  0.5180770000000  0.4026300000000  0.5225540000000 1.0
C      1  0.4040080000000  0.5700100000000  0.6081860000000 1.0
C      1  0.4972280000000  0.5071500000000  0.4024700000000 1.0
C      1  0.5827740000000  0.5762120000000  0.4108860000000 1.0
C      1  0.5814720000000  0.6027750000000  0.5222330000000 1.0
C      1  0.5456850000000  0.4686250000000  0.5030330000000 1.0
C      1  0.5305470000000  0.6183540000000  0.5119370000000 1.0
C      1  0.4422890000000  0.4991430000000  0.4875130000000 1.0
C      1  0.4654950000000  0.4321340000000  0.4529060000000 1.0
C      1  0.5709200000000  0.5741660000000  0.4686820000000 1.0
C      1  0.5029970000000  0.4407360000000  0.5989380000000 1.0
C      1  0.4742370000000  0.5312940000000  0.5368670000000 1.0
C      1  0.5148440000000  0.5471220000000  0.5589260000000 1.0
C      1  0.4669780000000  0.5443630000000  0.4712030000000 1.0
C      1  0.5982690000000  0.5691070000000  0.4616730000000 1.0
C      1  0.4180690000000  0.4525930000000  0.4447300000000 1.0
C      1  0.5875660000000  0.4593420000000  0.5638350000000 1.0
C      1  0.5227690000000  0.5245360000000  0.4691340000000 1.0
C      1  0.5518280000000  0.5827040000000  0.4482350000000 1.0
C      1  0.4402850000000  0.5905320000000  0.5030510000000 1.0
C      1  0.4776860000000  0.3889830000000  0.4382230000000 1.0
C      1  0.4818580000000  0.5289690000000  0.4133910000000 1.0
C      1  0.5585120000000  0.6172640000000  0.5189430000000 1.0
C      1  0.5173770000000  0.3999190000000  0.4133250000000 1.0
C      1  0.4227590000000  0.5609510000000  0.4670320000000 1.0
C      1  0.4256010000000  0.5886410000000  0.4761720000000 1.0
C      1  0.4331800000000  0.4326300000000  0.5156430000000 1.0
C      1  0.5585600000000  0.4984300000000  0.3845250000000 1.0
C      1  0.4179130000000  0.4798050000000  0.4500910000000 1.0
C      1  0.5226660000000  0.4460640000000  0.4035460000000 1.0
C      1  0.4734220000000  0.5468800000000  0.3934650000000 1.0
C      1  0.4204520000000  0.5214070000000  0.5265080000000 1.0
C      1  0.3931590000000  0.5538990000000  0.5899310000000 1.0
C      1  0.4260720000000  0.4978650000000  0.5110490000000 1.0
C      1  0.4715510000000  0.5514060000000  0.6144420000000 1.0
C      1  0.4142990000000  0.5154680000000  0.5615100000000 1.0
C      1  0.4381990000000  0.4353210000000  0.4480030000000 1.0
C      1  0.5580090000000  0.4816060000000  0.4076350000000 1.0
C      1  0.5641950000000  0.5931980000000  0.4241080000000 1.0
C      1  0.5348250000000  0.4424790000000  0.4615830000000 1.0
C      1  0.4827940000000  0.4026140000000  0.4879600000000 1.0
C      1  0.5667130000000  0.5678070000000  0.4957720000000 1.0
C      1  0.5415370000000  0.5296810000000  0.5145710000000 1.0
C      1  0.5220270000000  0.4608870000000  0.6105460000000 1.0
C      1  0.4892670000000  0.4941260000000  0.3784790000000 1.0
C      1  0.5581950000000  0.6181780000000  0.4148330000000 1.0
C      1  0.4706550000000  0.5770600000000  0.4284040000000 1.0
C      1  0.5141330000000  0.5534810000000  0.4687950000000 1.0
C      1  0.5457640000000  0.5567450000000  0.5104320000000 1.0
C      1  0.5069030000000  0.4872820000000  0.4206420000000 1.0
C      1  0.4111560000000  0.5224140000000  0.4320890000000 1.0
C      1  0.5566460000000  0.4957890000000  0.6011660000000 1.0
C      1  0.4230450000000  0.5503130000000  0.4396510000000 1.0
C      1  0.5355780000000  0.5356620000000  0.6184120000000 1.0
C      1  0.6238520000000  0.5405710000000  0.5057930000000 1.0
C      1  0.5515130000000  0.4660310000000  0.6012920000000 1.0
C      1  0.4980410000000  0.5790650000000  0.4315370000000 1.0
C      1  0.4463210000000  0.4750500000000  0.5721170000000 1.0
C      1  0.4859330000000  0.4907730000000  0.6287440000000 1.0
C      1  0.3981140000000  0.5010370000000  0.4502360000000 1.0
C      1  0.4395860000000  0.4795000000000  0.5271010000000 1.0
C      1  0.4106920000000  0.5254260000000  0.3832850000000 1.0
C      1  0.5405510000000  0.5410370000000  0.4005940000000 1.0
C      1  0.5326670000000  0.5743300000000  0.5284520000000 1.0
C      1  0.4511540000000  0.4643340000000  0.3907660000000 1.0
C      1  0.5773730000000  0.5371550000000  0.5705610000000 1.0
C      1  0.5749820000000  0.5082080000000  0.5808830000000 1.0
C      1  0.4888840000000  0.4011240000000  0.4146680000000 1.0
C      1  0.5438900000000  0.5249590000000  0.4489790000000 1.0
C      1  0.4012250000000  0.4220150000000  0.5465120000000 1.0
C      1  0.4679460000000  0.3858080000000  0.5056570000000 1.0
C      1  0.4793360000000  0.4677500000000  0.3814130000000 1.0
C      1  0.4192120000000  0.5108510000000  0.4053260000000 1.0
C      1  0.3839300000000  0.4391810000000  0.5329600000000 1.0
C      1  0.4946450000000  0.4455870000000  0.5115310000000 1.0
C      1  0.5158440000000  0.5934440000000  0.5145370000000 1.0
C      1  0.5462600000000  0.5553890000000  0.6032690000000 1.0
C      1  0.5830190000000  0.4886940000000  0.5601790000000 1.0
C      1  0.4328550000000  0.5713380000000  0.5224580000000 1.0
C      1  0.4289050000000  0.4925400000000  0.5866800000000 1.0
C      1  0.4901350000000  0.5521010000000  0.5463800000000 1.0
C      1  0.4524280000000  0.5679650000000  0.6226550000000 1.0
C      1  0.4307090000000  0.5446800000000  0.5127850000000 1.0
C      1  0.4528370000000  0.4030610000000  0.5518200000000 1.0
C      1  0.4750240000000  0.4498610000000  0.5330920000000 1.0
C      1  0.5361570000000  0.5661940000000  0.5563330000000 1.0
C      1  0.5858020000000  0.5114060000000  0.4341880000000 1.0
C      1  0.5684610000000  0.5144270000000  0.4570220000000 1.0
C      1  0.5363410000000  0.5435180000000  0.4279360000000 1.0
C      1  0.4896650000000  0.5608620000000  0.4813380000000 1.0
C      1  0.4865670000000  0.4894310000000  0.4780060000000 1.0
C      1  0.4619770000000  0.6181330000000  0.4738570000000 1.0
C      1  0.5248250000000  0.5680170000000  0.4434220000000 1.0
C      1  0.4697220000000  0.3629010000000  0.4388040000000 1.0
C      1  0.5022500000000  0.4182140000000  0.5035520000000 1.0
C      1  0.5081640000000  0.4507420000000  0.4649990000000 1.0
C      1  0.4773430000000  0.4230260000000  0.3997820000000 1.0
C      1  0.5133060000000  0.4738160000000  0.5657050000000 1.0
C      1  0.3323730000000  0.4930670000000  0.5249380000000 1.0
C      1  0.5320440000000  0.5131520000000  0.4941150000000 1.0
C      1  0.5515930000000  0.4529820000000  0.4813840000000 1.0
C      1  0.5632760000000  0.4249770000000  0.5377630000000 1.0
C      1  0.4807910000000  0.5310700000000  0.6000500000000 1.0
C      1  0.5541990000000  0.4691380000000  0.5290690000000 1.0
C      1  0.5454340000000  0.5159190000000  0.5395020000000 1.0
C      1  0.4577100000000  0.4933320000000  0.6331460000000 1.0
C      1  0.5016220000000  0.5063890000000  0.4619680000000 1.0
C      1  0.5741860000000  0.4191700000000  0.4498790000000 1.0
C      1  0.4690980000000  0.5029460000000  0.4949240000000 1.0
C      1  0.6039020000000  0.5540720000000  0.5231940000000 1.0
C      1  0.4998340000000  0.4044530000000  0.5680790000000 1.0
C      1  0.3974250000000  0.5337870000000  0.5730440000000 1.0
C      1  0.3879230000000  0.4518600000000  0.5065620000000 1.0
C      1  0.6032940000000  0.5336030000000  0.4310530000000 1.0
C      1  0.5466380000000  0.4044820000000  0.5266290000000 1.0
C      1  0.6201090000000  0.5278540000000  0.4791780000000 1.0
C      1  0.4379800000000  0.6107640000000  0.4618180000000 1.0
C      1  0.5477940000000  0.4265750000000  0.4417940000000 1.0
C      1  0.5807920000000  0.5057750000000  0.4818170000000 1.0
C      1  0.5333110000000  0.4229340000000  0.4173020000000 1.0
C      1  0.5040090000000  0.4958930000000  0.5245620000000 1.0
C      1  0.3510760000000  0.4831270000000  0.5090180000000 1.0
C      1  0.4853690000000  0.4517360000000  0.4479620000000 1.0
C      1  0.4709070000000  0.5247490000000  0.4408520000000 1.0
C      1  0.4687870000000  0.5591280000000  0.3708910000000 1.0
C      1  0.5344390000000  0.5075770000000  0.6164170000000 1.0
C      1  0.6027380000000  0.4449050000000  0.5137400000000 1.0
C      1  0.5667110000000  0.4946950000000  0.5360390000000 1.0
C      1  0.3155580000000  0.5039070000000  0.5416540000000 1.0
C      1  0.4961240000000  0.4447480000000  0.3907880000000 1.0
C      1  0.4711710000000  0.4105650000000  0.5752520000000 1.0
C      1  0.4488300000000  0.4918700000000  0.6597170000000 1.0
C      1  0.5879290000000  0.5762880000000  0.5135440000000 1.0
C      1  0.4509910000000  0.4356230000000  0.3973170000000 1.0
C      1  0.5973320000000  0.5534870000000  0.4116160000000 1.0
C      1  0.5927210000000  0.4262190000000  0.4685890000000 1.0
C      1  0.5248710000000  0.4482690000000  0.5606870000000 1.0
C      1  0.5897390000000  0.4393790000000  0.5395690000000 1.0
C      1  0.3743700000000  0.4752830000000  0.4950550000000 1.0
C      1  0.4716450000000  0.3882160000000  0.5337200000000 1.0
C      1  0.4339200000000  0.4861430000000  0.3990850000000 1.0
C      1  0.4998640000000  0.3920340000000  0.5424370000000 1.0
C      1  0.6095710000000  0.5000000000000  0.4771660000000 1.0
C      1  0.5165500000000  0.4262240000000  0.5769210000000 1.0
C      1  0.4497760000000  0.4542980000000  0.5214650000000 1.0
C      1  0.4511980000000  0.4914380000000  0.5494610000000 1.0
C      1  0.6039520000000  0.4477100000000  0.4846240000000 1.0
C      1  0.4404980000000  0.4899490000000  0.6843360000000 1.0
C      1  0.4832930000000  0.5125020000000  0.5792230000000 1.0
C      1  0.5187930000000  0.6415110000000  0.5034860000000 1.0
C      1  0.4626520000000  0.4969740000000  0.4428920000000 1.0
C      1  0.5252530000000  0.5202460000000  0.5590460000000 1.0
C      1  0.4453640000000  0.5655860000000  0.4268590000000 1.0
C      1  0.5132230000000  0.4873220000000  0.6213750000000 1.0
C      1  0.4657210000000  0.4547950000000  0.5682230000000 1.0
C      1  0.4823840000000  0.5131100000000  0.5171240000000 1.0
C      1  0.4412880000000  0.4907760000000  0.4605020000000 1.0
C      1  0.3809970000000  0.4928730000000  0.4724450000000 1.0
C      1  0.4288270000000  0.4156190000000  0.5394970000000 1.0
C      1  0.5822690000000  0.4845440000000  0.4241070000000 1.0
C      1  0.4403200000000  0.5451500000000  0.4842650000000 1.0
C      1  0.6122000000000  0.5447850000000  0.4565480000000 1.0
C      1  0.4911520000000  0.5850510000000  0.4990160000000 1.0
C      1  0.5789450000000  0.5036100000000  0.5100260000000 1.0
C      1  0.4269100000000  0.5753920000000  0.6207450000000 1.0
C      1  0.4746280000000  0.4370820000000  0.5885720000000 1.0
C      1  0.5022110000000  0.4672330000000  0.4897680000000 1.0
C      1  0.5306740000000  0.4719340000000  0.4132040000000 1.0
C      1  0.5960020000000  0.5438120000000  0.5491840000000 1.0
C      1  0.5462600000000  0.4471790000000  0.5437890000000 1.0
C      1  0.5223730000000  0.4857830000000  0.5030520000000 1.0
C      1  0.6095010000000  0.4717780000000  0.4679510000000 1.0
C      1  0.4829680000000  0.4768730000000  0.4349060000000 1.0
C      1  0.4119790000000  0.4388950000000  0.4974400000000 1.0
END
