TITL C-599896-8500-914 0.000130305284553007 125000 -949.375966563375 0 0 154 (C1) n - 1
REM
REM in /home/nfs/bkarasulu/CARBON/AIRSS/Generating-Clusters/TERSOFF/Only-C1/FIRE-HFTN
REM
REM
REM
REM
REM
REM ./C.cell (11c1c37f851c82e70ff6c80c92926a4b)
REM AIRSS Version 0.9.1 bugfix July 2018 build 013d7b7c2542+ Fri, 06 Jul 2018 19:26:36 +0100
REM compiler GCC version 9.2.1 20190827 (Red Hat 9.2.1-1)
REM options -cpp -mtune=generic -march=x86-64 -g -O0 -fpre-include=/usr/include/finclude/math-vector-fortran.h
REM seed -592940399 -1245147951 1804712466 -99525125 -1732407214 -2085169132 468352013 1693819269 -1238100457 814360029 48867054 -1503279178 -510001783 -91538384 -578743838 1700697969 436313765 1085165343 118946311 1325602666 777693617 648777321 -81756251 1122036551 1272595884 219551163 1801881558 -593270046 -2094111751 1501362470 -1687624376 -1586921270 727133740
REM
CELL 1.54180   50.00000   50.00000   50.00000   90.00000   90.00000   90.00000
LATT -1
SFAC C  
C      1  0.4807490000000  0.4892310000000  0.6151280000000 1.0
C      1  0.3886160000000  0.3841600000000  0.5421940000000 1.0
C      1  0.4008550000000  0.5274720000000  0.5185280000000 1.0
C      1  0.4215240000000  0.4143290000000  0.4541010000000 1.0
C      1  0.5042940000000  0.5585130000000  0.5432870000000 1.0
C      1  0.5505840000000  0.4579790000000  0.5049510000000 1.0
C      1  0.4414460000000  0.4959040000000  0.5708160000000 1.0
C      1  0.4980120000000  0.5314780000000  0.5488780000000 1.0
C      1  0.4852780000000  0.5782680000000  0.5511470000000 1.0
C      1  0.5468800000000  0.4872220000000  0.5113930000000 1.0
C      1  0.5333050000000  0.4925730000000  0.6232360000000 1.0
C      1  0.4550150000000  0.4662210000000  0.3962590000000 1.0
C      1  0.4911640000000  0.5534370000000  0.4320790000000 1.0
C      1  0.4543560000000  0.5195860000000  0.5848240000000 1.0
C      1  0.4529910000000  0.4497460000000  0.4574770000000 1.0
C      1  0.5502250000000  0.4174480000000  0.5367600000000 1.0
C      1  0.4975440000000  0.5280700000000  0.5968320000000 1.0
C      1  0.5106910000000  0.5211770000000  0.5717070000000 1.0
C      1  0.5180180000000  0.4866110000000  0.5143510000000 1.0
C      1  0.4309390000000  0.6068060000000  0.3823030000000 1.0
C      1  0.5178860000000  0.5394880000000  0.6137700000000 1.0
C      1  0.5381590000000  0.5181450000000  0.6104330000000 1.0
C      1  0.5163000000000  0.4834310000000  0.4475810000000 1.0
C      1  0.4573090000000  0.4695810000000  0.5736940000000 1.0
C      1  0.4448350000000  0.6135540000000  0.3602450000000 1.0
C      1  0.5550630000000  0.5310540000000  0.4921810000000 1.0
C      1  0.5202610000000  0.4680800000000  0.4243940000000 1.0
C      1  0.4524330000000  0.5104650000000  0.4716440000000 1.0
C      1  0.4372080000000  0.5353170000000  0.4044000000000 1.0
C      1  0.5737830000000  0.5847760000000  0.4573440000000 1.0
C      1  0.5814720000000  0.4547170000000  0.5446210000000 1.0
C      1  0.4736310000000  0.3686980000000  0.4713000000000 1.0
C      1  0.6145310000000  0.5548770000000  0.4752360000000 1.0
C      1  0.4667230000000  0.5633270000000  0.4791590000000 1.0
C      1  0.4719590000000  0.5702790000000  0.5763210000000 1.0
C      1  0.5207770000000  0.3831120000000  0.4720290000000 1.0
C      1  0.4762430000000  0.5101190000000  0.4550790000000 1.0
C      1  0.4948560000000  0.4466610000000  0.4842580000000 1.0
C      1  0.4410740000000  0.5581690000000  0.4680740000000 1.0
C      1  0.5625320000000  0.4419200000000  0.5270500000000 1.0
C      1  0.5872090000000  0.5702990000000  0.5390970000000 1.0
C      1  0.4761170000000  0.6082150000000  0.4855050000000 1.0
C      1  0.4630930000000  0.4447360000000  0.5572960000000 1.0
C      1  0.5090660000000  0.4129490000000  0.5231230000000 1.0
C      1  0.5601500000000  0.5291030000000  0.5407420000000 1.0
C      1  0.4790800000000  0.5321580000000  0.3822160000000 1.0
C      1  0.4495300000000  0.4982530000000  0.4971590000000 1.0
C      1  0.5253310000000  0.4813960000000  0.4002340000000 1.0
C      1  0.5385010000000  0.5150370000000  0.5805600000000 1.0
C      1  0.4813490000000  0.5214520000000  0.5287220000000 1.0
C      1  0.4872010000000  0.6012510000000  0.5330810000000 1.0
C      1  0.5161200000000  0.4398490000000  0.4250110000000 1.0
C      1  0.4046220000000  0.4588330000000  0.4701780000000 1.0
C      1  0.4954790000000  0.3830470000000  0.4597460000000 1.0
C      1  0.4346250000000  0.4533180000000  0.5185650000000 1.0
C      1  0.4997880000000  0.4969990000000  0.4655830000000 1.0
C      1  0.4409150000000  0.5948470000000  0.5173890000000 1.0
C      1  0.4250370000000  0.5866910000000  0.4270130000000 1.0
C      1  0.4226030000000  0.5519340000000  0.5750480000000 1.0
C      1  0.4801900000000  0.5870530000000  0.4669670000000 1.0
C      1  0.6071320000000  0.4332500000000  0.4712860000000 1.0
C      1  0.5512550000000  0.4718270000000  0.6156510000000 1.0
C      1  0.5174040000000  0.4699020000000  0.5612760000000 1.0
C      1  0.6107270000000  0.4917580000000  0.4881540000000 1.0
C      1  0.4397750000000  0.4725660000000  0.4988430000000 1.0
C      1  0.4637790000000  0.5198870000000  0.4063760000000 1.0
C      1  0.5055930000000  0.4875660000000  0.6301960000000 1.0
C      1  0.6064490000000  0.4965670000000  0.5485800000000 1.0
C      1  0.6099370000000  0.4700530000000  0.5064470000000 1.0
C      1  0.4600290000000  0.3966180000000  0.4301030000000 1.0
C      1  0.5919340000000  0.4929710000000  0.4410040000000 1.0
C      1  0.4216050000000  0.5762660000000  0.5180820000000 1.0
C      1  0.4155200000000  0.5049260000000  0.5584820000000 1.0
C      1  0.4787710000000  0.4703340000000  0.5940490000000 1.0
C      1  0.4098190000000  0.3564370000000  0.5044230000000 1.0
C      1  0.3924830000000  0.4736610000000  0.4898480000000 1.0
C      1  0.4827200000000  0.4254470000000  0.5681050000000 1.0
C      1  0.4254520000000  0.4419430000000  0.4597140000000 1.0
C      1  0.5794200000000  0.5878270000000  0.4851780000000 1.0
C      1  0.5765470000000  0.5660830000000  0.4380390000000 1.0
C      1  0.4130170000000  0.5255170000000  0.4118770000000 1.0
C      1  0.5519770000000  0.5697010000000  0.5704020000000 1.0
C      1  0.4069770000000  0.5299110000000  0.5708100000000 1.0
C      1  0.5611630000000  0.5129120000000  0.5642650000000 1.0
C      1  0.4726900000000  0.5745270000000  0.3538870000000 1.0
C      1  0.4902260000000  0.5479960000000  0.4879970000000 1.0
C      1  0.4598720000000  0.4908050000000  0.4033770000000 1.0
C      1  0.4341610000000  0.5311560000000  0.4665380000000 1.0
C      1  0.5378560000000  0.6100630000000  0.5140950000000 1.0
C      1  0.4670630000000  0.6047010000000  0.5127580000000 1.0
C      1  0.5028330000000  0.5196570000000  0.3747340000000 1.0
C      1  0.5514260000000  0.4071590000000  0.4005380000000 1.0
C      1  0.4581990000000  0.4434150000000  0.5287560000000 1.0
C      1  0.5351840000000  0.4165680000000  0.5622020000000 1.0
C      1  0.5260840000000  0.4484090000000  0.4876470000000 1.0
C      1  0.5120950000000  0.4663600000000  0.5343150000000 1.0
C      1  0.4783230000000  0.5275370000000  0.4318420000000 1.0
C      1  0.4267730000000  0.3596080000000  0.4842540000000 1.0
C      1  0.5195240000000  0.5002630000000  0.3823420000000 1.0
C      1  0.5658410000000  0.4593090000000  0.5967490000000 1.0
C      1  0.4891360000000  0.5757630000000  0.5992160000000 1.0
C      1  0.6130610000000  0.4444840000000  0.4949140000000 1.0
C      1  0.5159290000000  0.5675270000000  0.6069690000000 1.0
C      1  0.4657620000000  0.5562060000000  0.3737820000000 1.0
C      1  0.6225730000000  0.5175610000000  0.5388810000000 1.0
C      1  0.5243940000000  0.5640830000000  0.5259600000000 1.0
C      1  0.5813300000000  0.5149300000000  0.4255900000000 1.0
C      1  0.5602980000000  0.6015580000000  0.5014530000000 1.0
C      1  0.4745490000000  0.5147050000000  0.6040790000000 1.0
C      1  0.4565530000000  0.5101610000000  0.5221410000000 1.0
C      1  0.4508880000000  0.5488000000000  0.5782750000000 1.0
C      1  0.4933940000000  0.5250240000000  0.5031610000000 1.0
C      1  0.3964770000000  0.4348940000000  0.5448010000000 1.0
C      1  0.4079620000000  0.5532630000000  0.5162710000000 1.0
C      1  0.4087170000000  0.4545460000000  0.5296810000000 1.0
C      1  0.4422450000000  0.5600910000000  0.3905010000000 1.0
C      1  0.5647830000000  0.5569360000000  0.5486760000000 1.0
C      1  0.6054980000000  0.5051970000000  0.4641160000000 1.0
C      1  0.5138180000000  0.5568500000000  0.4727790000000 1.0
C      1  0.3961090000000  0.3648110000000  0.5255810000000 1.0
C      1  0.6234560000000  0.5421070000000  0.5280310000000 1.0
C      1  0.5340340000000  0.4230600000000  0.4116620000000 1.0
C      1  0.5046190000000  0.5010540000000  0.4935710000000 1.0
C      1  0.5869930000000  0.5026210000000  0.5684980000000 1.0
C      1  0.6022110000000  0.5718280000000  0.4941720000000 1.0
C      1  0.3960920000000  0.4777860000000  0.5183640000000 1.0
C      1  0.5043530000000  0.4644820000000  0.5837660000000 1.0
C      1  0.4281730000000  0.5768870000000  0.4516400000000 1.0
C      1  0.4867950000000  0.4014010000000  0.4390670000000 1.0
C      1  0.4807800000000  0.4439230000000  0.4597790000000 1.0
C      1  0.5008700000000  0.5724250000000  0.4513920000000 1.0
C      1  0.4637970000000  0.5991500000000  0.3475610000000 1.0
C      1  0.5365610000000  0.3888590000000  0.4930590000000 1.0
C      1  0.5348640000000  0.4028480000000  0.5171590000000 1.0
C      1  0.4803060000000  0.4436320000000  0.5097310000000 1.0
C      1  0.5089070000000  0.4171430000000  0.5708470000000 1.0
C      1  0.4387800000000  0.3925320000000  0.4488380000000 1.0
C      1  0.5766260000000  0.4535500000000  0.5727430000000 1.0
C      1  0.5913280000000  0.4655490000000  0.4366520000000 1.0
C      1  0.4455280000000  0.3725420000000  0.4683750000000 1.0
C      1  0.3890270000000  0.4097900000000  0.5492240000000 1.0
C      1  0.6059470000000  0.5337350000000  0.4593420000000 1.0
C      1  0.4945970000000  0.4287290000000  0.4398170000000 1.0
C      1  0.6012620000000  0.4727090000000  0.5335640000000 1.0
C      1  0.5571770000000  0.5146450000000  0.5151450000000 1.0
C      1  0.5976520000000  0.4420860000000  0.4478240000000 1.0
C      1  0.6071890000000  0.5641620000000  0.5209560000000 1.0
C      1  0.4313730000000  0.5847330000000  0.3997370000000 1.0
C      1  0.5376440000000  0.5770770000000  0.5917430000000 1.0
C      1  0.5136380000000  0.6111780000000  0.5264080000000 1.0
C      1  0.5390180000000  0.5462000000000  0.4771710000000 1.0
C      1  0.5879090000000  0.5404710000000  0.4370260000000 1.0
C      1  0.4030970000000  0.5023440000000  0.5318770000000 1.0
C      1  0.5027600000000  0.4404880000000  0.5269120000000 1.0
END
