TITL C-599893-4344-498 1.22967622371887 125000 -289.088295207715 0 0 49 (C1) n - 1
REM
REM in /home/nfs/bkarasulu/CARBON/AIRSS/Generating-Clusters/TERSOFF/Only-C1/FIRE-HFTN
REM
REM
REM
REM
REM
REM ./C.cell (11c1c37f851c82e70ff6c80c92926a4b)
REM AIRSS Version 0.9.1 bugfix July 2018 build 013d7b7c2542+ Fri, 06 Jul 2018 19:26:36 +0100
REM compiler GCC version 9.2.1 20190827 (Red Hat 9.2.1-1)
REM options -cpp -mtune=generic -march=x86-64 -g -O0 -fpre-include=/usr/include/finclude/math-vector-fortran.h
REM seed -302204233 1397995556 -148505013 1619808535 504696767 -1658740783 -1231336354 -1310384255 -1069629078 -183774454 -486589722 -427497665 -31749531 -304311581 -887500958 2061407929 -1639197383 -497358027 -236225497 -891956153 -278588070 -1610926685 -851579553 -1322065429 1521904755 -843246281 -1213078747 1895009517 824289761 -1669224242 -1373638904 124982137 1710080989
REM
CELL 1.54180   50.00000   50.00000   50.00000   90.00000   90.00000   90.00000
LATT -1
SFAC C  
C      1  0.4041760000000  0.4856150000000  0.4604140000000 1.0
C      1  0.4921010000000  0.3907880000000  0.5260550000000 1.0
C      1  0.5060230000000  0.4944680000000  0.5680460000000 1.0
C      1  0.5797020000000  0.4999760000000  0.5031690000000 1.0
C      1  0.5165600000000  0.4764590000000  0.6209130000000 1.0
C      1  0.5378880000000  0.5326720000000  0.4887190000000 1.0
C      1  0.6318560000000  0.5012370000000  0.4878080000000 1.0
C      1  0.4659140000000  0.4858240000000  0.5038020000000 1.0
C      1  0.4578730000000  0.5171980000000  0.4601300000000 1.0
C      1  0.5616300000000  0.5189740000000  0.4935240000000 1.0
C      1  0.4536520000000  0.4607280000000  0.5032600000000 1.0
C      1  0.4688900000000  0.4678460000000  0.4259920000000 1.0
C      1  0.5132410000000  0.5609760000000  0.4586320000000 1.0
C      1  0.4203410000000  0.4716610000000  0.4445310000000 1.0
C      1  0.3968210000000  0.5048240000000  0.4772940000000 1.0
C      1  0.4932100000000  0.4786460000000  0.4258530000000 1.0
C      1  0.4809300000000  0.4934000000000  0.5261230000000 1.0
C      1  0.5548330000000  0.4657820000000  0.5364290000000 1.0
C      1  0.4532240000000  0.5374420000000  0.4412490000000 1.0
C      1  0.5216020000000  0.5424980000000  0.5103360000000 1.0
C      1  0.4271940000000  0.5688690000000  0.5029540000000 1.0
C      1  0.4090990000000  0.5493500000000  0.5017260000000 1.0
C      1  0.5267330000000  0.4634020000000  0.5993130000000 1.0
C      1  0.3986190000000  0.5268630000000  0.4920890000000 1.0
C      1  0.4687720000000  0.5752960000000  0.4733850000000 1.0
C      1  0.5252680000000  0.5157740000000  0.4439690000000 1.0
C      1  0.5208190000000  0.4319290000000  0.5430620000000 1.0
C      1  0.5060210000000  0.5655650000000  0.5047110000000 1.0
C      1  0.5154810000000  0.5261110000000  0.5320220000000 1.0
C      1  0.5277760000000  0.5368240000000  0.4621530000000 1.0
C      1  0.6064670000000  0.5006070000000  0.4953310000000 1.0
C      1  0.5009660000000  0.4984440000000  0.6170310000000 1.0
C      1  0.4495420000000  0.5798820000000  0.4933030000000 1.0
C      1  0.4959780000000  0.5068860000000  0.5916470000000 1.0
C      1  0.5328810000000  0.4559460000000  0.5506290000000 1.0
C      1  0.4434930000000  0.5321340000000  0.4163400000000 1.0
C      1  0.4771870000000  0.3712970000000  0.5172650000000 1.0
C      1  0.4963080000000  0.5718020000000  0.4788350000000 1.0
C      1  0.6822510000000  0.5024870000000  0.4728720000000 1.0
C      1  0.4633710000000  0.5031330000000  0.4819600000000 1.0
C      1  0.4431980000000  0.4653040000000  0.4324620000000 1.0
C      1  0.6572620000000  0.5018670000000  0.4802780000000 1.0
C      1  0.5006900000000  0.5047360000000  0.5423520000000 1.0
C      1  0.5068870000000  0.4109780000000  0.5347890000000 1.0
C      1  0.5705060000000  0.4803190000000  0.5207830000000 1.0
C      1  0.5222850000000  0.4708440000000  0.5721700000000 1.0
C      1  0.4591730000000  0.5636060000000  0.4495610000000 1.0
C      1  0.4424840000000  0.4371870000000  0.5027360000000 1.0
C      1  0.5128240000000  0.4955430000000  0.4319900000000 1.0
END
