TITL C-599892-9790-490 17.1385282643972 125000 -1160.32814641578 0 0 188 (C1) n - 1
REM
REM in /home/nfs/bkarasulu/CARBON/AIRSS/Generating-Clusters/TERSOFF/Only-C1/FIRE-HFTN
REM
REM
REM
REM
REM
REM ./C.cell (11c1c37f851c82e70ff6c80c92926a4b)
REM AIRSS Version 0.9.1 bugfix July 2018 build 013d7b7c2542+ Fri, 06 Jul 2018 19:26:36 +0100
REM compiler GCC version 9.2.1 20190827 (Red Hat 9.2.1-1)
REM options -cpp -mtune=generic -march=x86-64 -g -O0 -fpre-include=/usr/include/finclude/math-vector-fortran.h
REM seed -546408515 -231760033 1262356834 401826978 -1030856385 -700814009 1192995325 -1637966435 381201358 -288805982 -134329719 -15632511 -1619048722 -335567946 -628975900 1712642247 1740798881 1990786443 1072465713 1239711337 1236355145 -762374404 1061959748 770106643 -529917680 -1342959396 -1352868178 330179349 -858422477 207277159 616015018 118943525 2061080648
REM
CELL 1.54180   50.00000   50.00000   50.00000   90.00000   90.00000   90.00000
LATT -1
SFAC C  
C      1  0.4436990000000  0.4867890000000  0.5427600000000 1.0
C      1  0.3984010000000  0.5347370000000  0.5280230000000 1.0
C      1  0.5030390000000  0.5650900000000  0.6005710000000 1.0
C      1  0.5865420000000  0.4183590000000  0.4387910000000 1.0
C      1  0.4248750000000  0.5642710000000  0.5547280000000 1.0
C      1  0.4858600000000  0.5526960000000  0.4734120000000 1.0
C      1  0.4550350000000  0.5123300000000  0.5440170000000 1.0
C      1  0.4034990000000  0.3770420000000  0.5313000000000 1.0
C      1  0.5988830000000  0.4413650000000  0.4444940000000 1.0
C      1  0.4086770000000  0.4003050000000  0.5207420000000 1.0
C      1  0.5126480000000  0.5119880000000  0.5125590000000 1.0
C      1  0.5705950000000  0.5091560000000  0.5073120000000 1.0
C      1  0.3852010000000  0.5201820000000  0.5076520000000 1.0
C      1  0.5009110000000  0.4665850000000  0.4335380000000 1.0
C      1  0.4489700000000  0.3343170000000  0.4936450000000 1.0
C      1  0.5893530000000  0.4319560000000  0.5249470000000 1.0
C      1  0.4561730000000  0.5531550000000  0.5954320000000 1.0
C      1  0.5871980000000  0.5893740000000  0.5080920000000 1.0
C      1  0.5052930000000  0.4419790000000  0.5695100000000 1.0
C      1  0.4136110000000  0.5868720000000  0.4506490000000 1.0
C      1  0.4656060000000  0.3564020000000  0.4916860000000 1.0
C      1  0.5299390000000  0.4494910000000  0.5322050000000 1.0
C      1  0.4573960000000  0.5227120000000  0.4035790000000 1.0
C      1  0.5483710000000  0.4572570000000  0.5549400000000 1.0
C      1  0.5492760000000  0.4983260000000  0.3886290000000 1.0
C      1  0.5262170000000  0.5749950000000  0.4863060000000 1.0
C      1  0.4562250000000  0.5195120000000  0.4990270000000 1.0
C      1  0.5592390000000  0.5123010000000  0.6010010000000 1.0
C      1  0.6012740000000  0.4940910000000  0.5719780000000 1.0
C      1  0.4327850000000  0.3140090000000  0.4958460000000 1.0
C      1  0.4688370000000  0.5962910000000  0.4665630000000 1.0
C      1  0.4860830000000  0.4677180000000  0.5329580000000 1.0
C      1  0.4027880000000  0.4910460000000  0.5678670000000 1.0
C      1  0.5011400000000  0.6347090000000  0.4453430000000 1.0
C      1  0.4370750000000  0.5971390000000  0.4351200000000 1.0
C      1  0.3737030000000  0.4387460000000  0.5635730000000 1.0
C      1  0.4484760000000  0.4408200000000  0.5532100000000 1.0
C      1  0.6130900000000  0.4999310000000  0.5455900000000 1.0
C      1  0.4435140000000  0.5279670000000  0.4541580000000 1.0
C      1  0.4927430000000  0.4278650000000  0.5900820000000 1.0
C      1  0.4787300000000  0.5687060000000  0.5866890000000 1.0
C      1  0.5264590000000  0.4611760000000  0.5773540000000 1.0
C      1  0.4791050000000  0.4397460000000  0.6102810000000 1.0
C      1  0.4780910000000  0.5693080000000  0.4264820000000 1.0
C      1  0.5497830000000  0.5594890000000  0.4968410000000 1.0
C      1  0.5525350000000  0.4778950000000  0.4686530000000 1.0
C      1  0.4499190000000  0.5719920000000  0.4243240000000 1.0
C      1  0.4819110000000  0.5834970000000  0.5107210000000 1.0
C      1  0.4761590000000  0.4048730000000  0.5017220000000 1.0
C      1  0.4825120000000  0.5121110000000  0.5488440000000 1.0
C      1  0.5103800000000  0.4375300000000  0.3717760000000 1.0
C      1  0.5268080000000  0.4017980000000  0.4071080000000 1.0
C      1  0.4991120000000  0.4613050000000  0.3667730000000 1.0
C      1  0.4746600000000  0.6341520000000  0.4395710000000 1.0
C      1  0.4318970000000  0.5955140000000  0.4979840000000 1.0
C      1  0.4882680000000  0.5909560000000  0.5375980000000 1.0
C      1  0.5980710000000  0.4682660000000  0.4524960000000 1.0
C      1  0.5596670000000  0.4685700000000  0.6234440000000 1.0
C      1  0.4998310000000  0.5663110000000  0.4947640000000 1.0
C      1  0.4236970000000  0.5449280000000  0.5337420000000 1.0
C      1  0.4219720000000  0.4570210000000  0.4756180000000 1.0
C      1  0.5286000000000  0.5994990000000  0.4723180000000 1.0
C      1  0.5477790000000  0.4017480000000  0.5281330000000 1.0
C      1  0.5284010000000  0.5323270000000  0.5297420000000 1.0
C      1  0.4698550000000  0.4760500000000  0.4021990000000 1.0
C      1  0.5414630000000  0.5585760000000  0.5261960000000 1.0
C      1  0.5388780000000  0.5149860000000  0.4429610000000 1.0
C      1  0.3899970000000  0.5399810000000  0.4338300000000 1.0
C      1  0.4106110000000  0.4508800000000  0.4295980000000 1.0
C      1  0.5628470000000  0.4997330000000  0.5328870000000 1.0
C      1  0.4358620000000  0.5500900000000  0.4374070000000 1.0
C      1  0.6345140000000  0.4814170000000  0.5073480000000 1.0
C      1  0.4567470000000  0.6140130000000  0.4474390000000 1.0
C      1  0.5243000000000  0.3824950000000  0.4522790000000 1.0
C      1  0.4752580000000  0.4569940000000  0.4232880000000 1.0
C      1  0.3914270000000  0.4623170000000  0.4707700000000 1.0
C      1  0.4064740000000  0.4369270000000  0.4068270000000 1.0
C      1  0.5636220000000  0.5851630000000  0.5932460000000 1.0
C      1  0.5048820000000  0.3984080000000  0.4962740000000 1.0
C      1  0.4633610000000  0.5289680000000  0.6084470000000 1.0
C      1  0.4792680000000  0.4518370000000  0.4897670000000 1.0
C      1  0.5238450000000  0.5074760000000  0.3969030000000 1.0
C      1  0.5032060000000  0.4471140000000  0.5410840000000 1.0
C      1  0.6185090000000  0.5277640000000  0.4972720000000 1.0
C      1  0.5876670000000  0.4924300000000  0.4930060000000 1.0
C      1  0.5431670000000  0.3764980000000  0.5396130000000 1.0
C      1  0.4930820000000  0.5196980000000  0.5730450000000 1.0
C      1  0.4119670000000  0.5850550000000  0.4795040000000 1.0
C      1  0.5661620000000  0.4015090000000  0.4350260000000 1.0
C      1  0.5113010000000  0.6062050000000  0.5436360000000 1.0
C      1  0.4916970000000  0.4858520000000  0.6052090000000 1.0
C      1  0.4103120000000  0.4265160000000  0.5115290000000 1.0
C      1  0.5689740000000  0.4734290000000  0.5399040000000 1.0
C      1  0.4204260000000  0.5908850000000  0.5470200000000 1.0
C      1  0.4325590000000  0.5571710000000  0.5808090000000 1.0
C      1  0.5875430000000  0.5305300000000  0.4282970000000 1.0
C      1  0.4250320000000  0.5047960000000  0.4579850000000 1.0
C      1  0.5880450000000  0.5420330000000  0.5756690000000 1.0
C      1  0.4584700000000  0.4632490000000  0.5393850000000 1.0
C      1  0.5758590000000  0.5723610000000  0.4894260000000 1.0
C      1  0.4326290000000  0.4501440000000  0.4482000000000 1.0
C      1  0.3830030000000  0.4920580000000  0.5148980000000 1.0
C      1  0.6062680000000  0.4903440000000  0.4362290000000 1.0
C      1  0.5826870000000  0.4447520000000  0.5864930000000 1.0
C      1  0.4695180000000  0.4666060000000  0.6072250000000 1.0
C      1  0.4772100000000  0.5795620000000  0.5607480000000 1.0
C      1  0.5497840000000  0.5398010000000  0.6033430000000 1.0
C      1  0.5449130000000  0.4893850000000  0.6107390000000 1.0
C      1  0.4290410000000  0.4861120000000  0.4792980000000 1.0
C      1  0.5518770000000  0.5816340000000  0.5398450000000 1.0
C      1  0.5201620000000  0.6206460000000  0.4581480000000 1.0
C      1  0.5392250000000  0.3939460000000  0.4311810000000 1.0
C      1  0.6161520000000  0.4767870000000  0.5284260000000 1.0
C      1  0.5929210000000  0.4599270000000  0.5292010000000 1.0
C      1  0.3882300000000  0.4829100000000  0.5442190000000 1.0
C      1  0.5371040000000  0.3532040000000  0.5495990000000 1.0
C      1  0.4939750000000  0.4975350000000  0.4368410000000 1.0
C      1  0.5842950000000  0.5136940000000  0.5844190000000 1.0
C      1  0.5720410000000  0.4469440000000  0.6127350000000 1.0
C      1  0.5475930000000  0.5696820000000  0.4263780000000 1.0
C      1  0.5305070000000  0.4092140000000  0.5054720000000 1.0
C      1  0.5077700000000  0.3785390000000  0.4747400000000 1.0
C      1  0.4960120000000  0.5561840000000  0.4082880000000 1.0
C      1  0.5692530000000  0.4178490000000  0.5401680000000 1.0
C      1  0.4896490000000  0.3568080000000  0.4766990000000 1.0
C      1  0.5660110000000  0.4339580000000  0.5649960000000 1.0
C      1  0.5614540000000  0.5262030000000  0.4319410000000 1.0
C      1  0.5353570000000  0.5984340000000  0.5556140000000 1.0
C      1  0.5339680000000  0.4374940000000  0.4626940000000 1.0
C      1  0.5184140000000  0.5098310000000  0.4249010000000 1.0
C      1  0.4991580000000  0.5099570000000  0.3822290000000 1.0
C      1  0.3832430000000  0.4539190000000  0.5431610000000 1.0
C      1  0.5694680000000  0.5577810000000  0.5913390000000 1.0
C      1  0.5444520000000  0.5155460000000  0.5465820000000 1.0
C      1  0.5242290000000  0.5630370000000  0.4131480000000 1.0
C      1  0.4604650000000  0.3811720000000  0.5044380000000 1.0
C      1  0.4863580000000  0.4830750000000  0.3793060000000 1.0
C      1  0.6061970000000  0.5184040000000  0.4465880000000 1.0
C      1  0.5746530000000  0.4905540000000  0.3935000000000 1.0
C      1  0.5134350000000  0.5055500000000  0.4837890000000 1.0
C      1  0.5704380000000  0.5690710000000  0.4422400000000 1.0
C      1  0.4958830000000  0.4953500000000  0.5300100000000 1.0
C      1  0.4218290000000  0.4858320000000  0.5871900000000 1.0
C      1  0.4830000000000  0.5338670000000  0.3922320000000 1.0
C      1  0.3934860000000  0.5646410000000  0.4882730000000 1.0
C      1  0.5204080000000  0.4796220000000  0.5985730000000 1.0
C      1  0.3748180000000  0.5329300000000  0.4573550000000 1.0
C      1  0.4085220000000  0.5605890000000  0.4387320000000 1.0
C      1  0.3889110000000  0.4451080000000  0.5165840000000 1.0
C      1  0.4052940000000  0.4973460000000  0.4382040000000 1.0
C      1  0.5871230000000  0.5610810000000  0.4657460000000 1.0
C      1  0.4619770000000  0.4298860000000  0.4966100000000 1.0
C      1  0.4393240000000  0.4427850000000  0.5786250000000 1.0
C      1  0.6367250000000  0.5054830000000  0.4946700000000 1.0
C      1  0.5243330000000  0.5505710000000  0.6079440000000 1.0
C      1  0.6115420000000  0.5265250000000  0.5322430000000 1.0
C      1  0.4838240000000  0.5122060000000  0.5985510000000 1.0
C      1  0.5579690000000  0.5305390000000  0.4939850000000 1.0
C      1  0.6059750000000  0.5368170000000  0.4706880000000 1.0
C      1  0.4726040000000  0.4764580000000  0.4754580000000 1.0
C      1  0.4426530000000  0.4669130000000  0.5942380000000 1.0
C      1  0.4584850000000  0.4585270000000  0.4456370000000 1.0
C      1  0.5799560000000  0.4754770000000  0.4726820000000 1.0
C      1  0.4323320000000  0.4362870000000  0.4955970000000 1.0
C      1  0.4820610000000  0.5734510000000  0.4544220000000 1.0
C      1  0.6099470000000  0.6216570000000  0.5664360000000 1.0
C      1  0.4693060000000  0.5279050000000  0.4722750000000 1.0
C      1  0.5967260000000  0.4879720000000  0.4089590000000 1.0
C      1  0.4604430000000  0.5939530000000  0.4937370000000 1.0
C      1  0.3823540000000  0.4672030000000  0.4977990000000 1.0
C      1  0.5364110000000  0.5006210000000  0.4672410000000 1.0
C      1  0.5409390000000  0.4269860000000  0.4861620000000 1.0
C      1  0.4231520000000  0.6034250000000  0.5235260000000 1.0
C      1  0.5779540000000  0.5927380000000  0.5342670000000 1.0
C      1  0.4458990000000  0.5300030000000  0.5239280000000 1.0
C      1  0.5932780000000  0.6074130000000  0.5523380000000 1.0
C      1  0.4278970000000  0.5227000000000  0.4023470000000 1.0
C      1  0.6002570000000  0.4667050000000  0.5802680000000 1.0
C      1  0.5207320000000  0.4504880000000  0.4437210000000 1.0
C      1  0.4881230000000  0.5020120000000  0.4664540000000 1.0
C      1  0.4683370000000  0.5007110000000  0.4186210000000 1.0
C      1  0.4523000000000  0.4910040000000  0.4933880000000 1.0
C      1  0.3933430000000  0.4713360000000  0.4421520000000 1.0
C      1  0.6013430000000  0.5457800000000  0.5506350000000 1.0
C      1  0.5453930000000  0.6015410000000  0.5817310000000 1.0
C      1  0.3819110000000  0.5379800000000  0.4845780000000 1.0
C      1  0.5188290000000  0.4170940000000  0.3867460000000 1.0
C      1  0.4031990000000  0.5182310000000  0.4185440000000 1.0
END
