TITL C-599891-72-761 0.276599131892139 125000 -755.126258124605 0 0 123 (C1) n - 1
REM
REM in /home/nfs/bkarasulu/CARBON/AIRSS/Generating-Clusters/TERSOFF/Only-C1/FIRE-HFTN
REM
REM
REM
REM
REM
REM ./C.cell (11c1c37f851c82e70ff6c80c92926a4b)
REM AIRSS Version 0.9.1 bugfix July 2018 build 013d7b7c2542+ Fri, 06 Jul 2018 19:26:36 +0100
REM compiler GCC version 9.2.1 20190827 (Red Hat 9.2.1-1)
REM options -cpp -mtune=generic -march=x86-64 -g -O0 -fpre-include=/usr/include/finclude/math-vector-fortran.h
REM seed 1272094727 -23460300 -132994179 -1089500037 -1011480389 -1571027513 745033541 216234704 137185726 -514895437 -309963411 -1006654445 468682404 -897541733 1701761446 1171825636 -1639026260 -888391326 1867459195 754173371 -1079786457 1474833902 1666363404 1037053316 -2098316493 -1662898401 40341888 209165140 25747819 1583547077 2011910159 1670376878 -906655137
REM
CELL 1.54180   50.00000   50.00000   50.00000   90.00000   90.00000   90.00000
LATT -1
SFAC C  
C      1  0.4721660000000  0.5208400000000  0.5099390000000 1.0
C      1  0.4857260000000  0.5261080000000  0.4382850000000 1.0
C      1  0.5180690000000  0.5385690000000  0.5048140000000 1.0
C      1  0.4483840000000  0.5833050000000  0.4842060000000 1.0
C      1  0.5043450000000  0.5964050000000  0.4124330000000 1.0
C      1  0.4622890000000  0.5788370000000  0.4578710000000 1.0
C      1  0.5894430000000  0.5059570000000  0.4459230000000 1.0
C      1  0.5664920000000  0.4658950000000  0.4251510000000 1.0
C      1  0.5543940000000  0.5669800000000  0.5465500000000 1.0
C      1  0.4518710000000  0.5203050000000  0.5296770000000 1.0
C      1  0.4117200000000  0.5601920000000  0.5092460000000 1.0
C      1  0.4183890000000  0.5049130000000  0.4387130000000 1.0
C      1  0.5159140000000  0.4026080000000  0.4593030000000 1.0
C      1  0.4548840000000  0.4740920000000  0.5744290000000 1.0
C      1  0.4334990000000  0.4910180000000  0.5636470000000 1.0
C      1  0.5938860000000  0.5078890000000  0.5358290000000 1.0
C      1  0.4770470000000  0.4706030000000  0.5582170000000 1.0
C      1  0.6084440000000  0.4613600000000  0.5299580000000 1.0
C      1  0.4497740000000  0.5259640000000  0.3829610000000 1.0
C      1  0.5109210000000  0.4652300000000  0.5209160000000 1.0
C      1  0.5299810000000  0.4875220000000  0.4631660000000 1.0
C      1  0.4401270000000  0.5019040000000  0.6085890000000 1.0
C      1  0.4798230000000  0.4124660000000  0.5213980000000 1.0
C      1  0.4588100000000  0.4547170000000  0.4073330000000 1.0
C      1  0.5126440000000  0.4521050000000  0.4050720000000 1.0
C      1  0.4627040000000  0.5448900000000  0.3978010000000 1.0
C      1  0.5336610000000  0.5307600000000  0.4844540000000 1.0
C      1  0.4847800000000  0.4509770000000  0.4023090000000 1.0
C      1  0.5987710000000  0.4884700000000  0.4899590000000 1.0
C      1  0.4495120000000  0.5571920000000  0.4441340000000 1.0
C      1  0.4556720000000  0.5812760000000  0.5767790000000 1.0
C      1  0.6534790000000  0.4369600000000  0.5129560000000 1.0
C      1  0.5277200000000  0.4752590000000  0.3980490000000 1.0
C      1  0.4187550000000  0.4783760000000  0.4922140000000 1.0
C      1  0.5742810000000  0.5558630000000  0.5326970000000 1.0
C      1  0.5277330000000  0.4072060000000  0.5121290000000 1.0
C      1  0.4264930000000  0.5646060000000  0.4856950000000 1.0
C      1  0.4112350000000  0.4266460000000  0.5142790000000 1.0
C      1  0.3958400000000  0.4945630000000  0.4885810000000 1.0
C      1  0.5424350000000  0.4388670000000  0.4792900000000 1.0
C      1  0.4891150000000  0.5904030000000  0.4581150000000 1.0
C      1  0.5935420000000  0.6018400000000  0.4200110000000 1.0
C      1  0.5568360000000  0.4697020000000  0.5820640000000 1.0
C      1  0.4738240000000  0.4206170000000  0.4935110000000 1.0
C      1  0.5168550000000  0.4110090000000  0.4337880000000 1.0
C      1  0.5038680000000  0.4595710000000  0.4943440000000 1.0
C      1  0.4216880000000  0.5067060000000  0.5849050000000 1.0
C      1  0.5527840000000  0.4844130000000  0.4074380000000 1.0
C      1  0.5076280000000  0.5843700000000  0.4377170000000 1.0
C      1  0.4104190000000  0.5263060000000  0.4555010000000 1.0
C      1  0.4793680000000  0.4472500000000  0.4862530000000 1.0
C      1  0.4900290000000  0.5884890000000  0.3911320000000 1.0
C      1  0.4682910000000  0.5177290000000  0.4827830000000 1.0
C      1  0.5984520000000  0.5118950000000  0.4726680000000 1.0
C      1  0.5378640000000  0.4749490000000  0.5266400000000 1.0
C      1  0.5921300000000  0.4671880000000  0.4709050000000 1.0
C      1  0.5064700000000  0.4113830000000  0.5310270000000 1.0
C      1  0.4553450000000  0.5422770000000  0.5474460000000 1.0
C      1  0.4531520000000  0.4112070000000  0.5332210000000 1.0
C      1  0.4423100000000  0.4344460000000  0.5466570000000 1.0
C      1  0.3856820000000  0.4248740000000  0.5053440000000 1.0
C      1  0.5812570000000  0.5225920000000  0.4246070000000 1.0
C      1  0.4266600000000  0.4748260000000  0.5192810000000 1.0
C      1  0.4265370000000  0.4779810000000  0.4423560000000 1.0
C      1  0.5539120000000  0.5172080000000  0.5950630000000 1.0
C      1  0.4040240000000  0.5547320000000  0.5344320000000 1.0
C      1  0.5206170000000  0.5592080000000  0.4380820000000 1.0
C      1  0.5124930000000  0.4217070000000  0.5569030000000 1.0
C      1  0.5924780000000  0.4498460000000  0.5501150000000 1.0
C      1  0.4695400000000  0.5595110000000  0.5648730000000 1.0
C      1  0.4487120000000  0.4080190000000  0.4872840000000 1.0
C      1  0.5341530000000  0.5651720000000  0.5637890000000 1.0
C      1  0.5550210000000  0.4400280000000  0.4246910000000 1.0
C      1  0.4541290000000  0.5274700000000  0.6105390000000 1.0
C      1  0.5632720000000  0.4345190000000  0.4990900000000 1.0
C      1  0.4760750000000  0.5083560000000  0.4576910000000 1.0
C      1  0.5262450000000  0.4623880000000  0.4760280000000 1.0
C      1  0.4372900000000  0.4634350000000  0.4206460000000 1.0
C      1  0.4263720000000  0.5491100000000  0.4603210000000 1.0
C      1  0.5940710000000  0.6278890000000  0.4191050000000 1.0
C      1  0.5281880000000  0.5277730000000  0.5958270000000 1.0
C      1  0.5890630000000  0.5491320000000  0.4221750000000 1.0
C      1  0.4894900000000  0.5482350000000  0.5815150000000 1.0
C      1  0.4945540000000  0.4806370000000  0.5394130000000 1.0
C      1  0.5549150000000  0.4160690000000  0.5180800000000 1.0
C      1  0.4356450000000  0.4968010000000  0.5358850000000 1.0
C      1  0.4674030000000  0.5992680000000  0.4987000000000 1.0
C      1  0.4039950000000  0.5465310000000  0.5600820000000 1.0
C      1  0.5291200000000  0.4634560000000  0.5877320000000 1.0
C      1  0.4985280000000  0.5254440000000  0.5200000000000 1.0
C      1  0.6319270000000  0.4486660000000  0.5217650000000 1.0
C      1  0.5673410000000  0.4964820000000  0.5819710000000 1.0
C      1  0.4340950000000  0.4694810000000  0.4694480000000 1.0
C      1  0.4655020000000  0.5421910000000  0.4259400000000 1.0
C      1  0.5924420000000  0.5753740000000  0.4209540000000 1.0
C      1  0.4337980000000  0.5477160000000  0.6019730000000 1.0
C      1  0.4765150000000  0.4809360000000  0.4538910000000 1.0
C      1  0.5180590000000  0.5499780000000  0.5805560000000 1.0
C      1  0.5259540000000  0.4136980000000  0.4829690000000 1.0
C      1  0.5359560000000  0.5000610000000  0.5380630000000 1.0
C      1  0.5188110000000  0.4396110000000  0.5759830000000 1.0
C      1  0.5282160000000  0.5160460000000  0.4608940000000 1.0
C      1  0.4395820000000  0.5750460000000  0.5978100000000 1.0
C      1  0.5838540000000  0.4767590000000  0.4447520000000 1.0
C      1  0.4814130000000  0.5275150000000  0.6012510000000 1.0
C      1  0.5279750000000  0.4323440000000  0.4193680000000 1.0
C      1  0.4323580000000  0.4070270000000  0.5110920000000 1.0
C      1  0.5058360000000  0.5103110000000  0.6036940000000 1.0
C      1  0.5871190000000  0.5025220000000  0.5627750000000 1.0
C      1  0.5078440000000  0.5071810000000  0.5394630000000 1.0
C      1  0.4621700000000  0.4629990000000  0.4703870000000 1.0
C      1  0.5737830000000  0.4510310000000  0.5692400000000 1.0
C      1  0.4739200000000  0.5677700000000  0.3858850000000 1.0
C      1  0.5890550000000  0.5342540000000  0.5274180000000 1.0
C      1  0.6008830000000  0.4864570000000  0.5180950000000 1.0
C      1  0.3920740000000  0.5176200000000  0.4751810000000 1.0
C      1  0.4150880000000  0.5346950000000  0.5831420000000 1.0
C      1  0.4905830000000  0.6033170000000  0.4839630000000 1.0
C      1  0.4540710000000  0.4776610000000  0.6027110000000 1.0
C      1  0.4230490000000  0.4485620000000  0.5300910000000 1.0
C      1  0.5135590000000  0.5320450000000  0.4415470000000 1.0
C      1  0.5121260000000  0.4826900000000  0.6006770000000 1.0
C      1  0.5635170000000  0.5102930000000  0.4063270000000 1.0
END
