TITL C-599895-9959-1167 -4.94197024278965e-05 125000 -265.743580475659 0 0 45 (C1) n - 1
REM
REM in /home/nfs/bkarasulu/CARBON/AIRSS/Generating-Clusters/TERSOFF/Only-C1/FIRE-HFTN
REM
REM
REM
REM
REM
REM ./C.cell (11c1c37f851c82e70ff6c80c92926a4b)
REM AIRSS Version 0.9.1 bugfix July 2018 build 013d7b7c2542+ Fri, 06 Jul 2018 19:26:36 +0100
REM compiler GCC version 9.2.1 20190827 (Red Hat 9.2.1-1)
REM options -cpp -mtune=generic -march=x86-64 -g -O0 -fpre-include=/usr/include/finclude/math-vector-fortran.h
REM seed 222554273 -1926171828 -1962319824 -2125265178 -945692998 1011068439 6200608 -1826990433 302682928 -1133297045 294433680 -448987491 155361035 1109851123 194037244 1564165475 -602601575 -229867888 899827213 -1528928758 -670450444 -1984027627 -1140883639 -54859195 -152011312 1036980277 -760342821 -2112947607 -1692332199 1123039503 1206870704 -726010483 -815672225
REM
CELL 1.54180   50.00000   50.00000   50.00000   90.00000   90.00000   90.00000
LATT -1
SFAC C  
C      1  0.5064910000000  0.5381880000000  0.5050530000000 1.0
C      1  0.5770590000000  0.5189360000000  0.5252390000000 1.0
C      1  0.4780740000000  0.4398770000000  0.4961230000000 1.0
C      1  0.4657170000000  0.5076340000000  0.5534550000000 1.0
C      1  0.5452260000000  0.5719760000000  0.5185770000000 1.0
C      1  0.4813010000000  0.4828400000000  0.5586250000000 1.0
C      1  0.5071010000000  0.4927990000000  0.5696430000000 1.0
C      1  0.5249040000000  0.5605780000000  0.4587660000000 1.0
C      1  0.4196970000000  0.4807600000000  0.4774800000000 1.0
C      1  0.5107090000000  0.5164400000000  0.5516090000000 1.0
C      1  0.4970940000000  0.4966940000000  0.4183790000000 1.0
C      1  0.5638570000000  0.5341480000000  0.4763240000000 1.0
C      1  0.5209940000000  0.4938650000000  0.4330800000000 1.0
C      1  0.4368260000000  0.4555230000000  0.5178650000000 1.0
C      1  0.4201770000000  0.4672420000000  0.5005070000000 1.0
C      1  0.4713430000000  0.4988300000000  0.4258740000000 1.0
C      1  0.5064490000000  0.4677140000000  0.5194860000000 1.0
C      1  0.4388890000000  0.5105530000000  0.5565540000000 1.0
C      1  0.4343680000000  0.4927120000000  0.4586680000000 1.0
C      1  0.5036760000000  0.5745910000000  0.4681930000000 1.0
C      1  0.5329180000000  0.4860250000000  0.5801260000000 1.0
C      1  0.5427400000000  0.5381400000000  0.4574450000000 1.0
C      1  0.4675440000000  0.3939060000000  0.4872280000000 1.0
C      1  0.4977570000000  0.5208850000000  0.4849400000000 1.0
C      1  0.4597540000000  0.5017680000000  0.4513280000000 1.0
C      1  0.4770860000000  0.5111740000000  0.4713420000000 1.0
C      1  0.4641910000000  0.4501920000000  0.5198440000000 1.0
C      1  0.5278000000000  0.4864720000000  0.5169570000000 1.0
C      1  0.4841540000000  0.5789230000000  0.4866300000000 1.0
C      1  0.5033960000000  0.4530420000000  0.4934990000000 1.0
C      1  0.5238020000000  0.4631780000000  0.4754050000000 1.0
C      1  0.5320700000000  0.5081140000000  0.5341920000000 1.0
C      1  0.5589100000000  0.5093760000000  0.5446650000000 1.0
C      1  0.4849420000000  0.5458460000000  0.5230740000000 1.0
C      1  0.4595500000000  0.4268530000000  0.4538010000000 1.0
C      1  0.5235920000000  0.4701840000000  0.4484010000000 1.0
C      1  0.5299860000000  0.5527420000000  0.5095810000000 1.0
C      1  0.5570040000000  0.4955220000000  0.5700020000000 1.0
C      1  0.4830710000000  0.4649900000000  0.5363770000000 1.0
C      1  0.4845940000000  0.5281540000000  0.5449760000000 1.0
C      1  0.5360910000000  0.5167190000000  0.4400750000000 1.0
C      1  0.5406190000000  0.4799140000000  0.4922880000000 1.0
C      1  0.4682330000000  0.4199680000000  0.4788460000000 1.0
C      1  0.4740650000000  0.5689530000000  0.5101440000000 1.0
C      1  0.5761840000000  0.5270590000000  0.4993310000000 1.0
END
