TITL C-599893-4344-1201 0.00895538041033936 125000 -579.294098183663 0 0 97 (C1) n - 1
REM
REM in /home/nfs/bkarasulu/CARBON/AIRSS/Generating-Clusters/TERSOFF/Only-C1/FIRE-HFTN
REM
REM
REM
REM
REM
REM ./C.cell (11c1c37f851c82e70ff6c80c92926a4b)
REM AIRSS Version 0.9.1 bugfix July 2018 build 013d7b7c2542+ Fri, 06 Jul 2018 19:26:36 +0100
REM compiler GCC version 9.2.1 20190827 (Red Hat 9.2.1-1)
REM options -cpp -mtune=generic -march=x86-64 -g -O0 -fpre-include=/usr/include/finclude/math-vector-fortran.h
REM seed -1236915233 1544233006 -454107488 -1228661927 1663235029 853951414 -144274003 2004835328 -1685170158 1206566464 761691049 1479199542 -9724762 498883260 1510123127 1483289593 557772070 -1012019804 576675846 -1065222155 1386432573 476909790 -1171799604 1674912723 -1404133638 1546003578 1974303162 1154168237 527094709 -683280092 -1730526129 1495220782 -2143369477
REM
CELL 1.54180   50.00000   50.00000   50.00000   90.00000   90.00000   90.00000
LATT -1
SFAC C  
C      1  0.4611210000000  0.5485630000000  0.4942750000000 1.0
C      1  0.6003820000000  0.4861820000000  0.5163900000000 1.0
C      1  0.5198830000000  0.5060700000000  0.5192900000000 1.0
C      1  0.5042200000000  0.5813070000000  0.4872050000000 1.0
C      1  0.5086900000000  0.4111140000000  0.4763290000000 1.0
C      1  0.4371670000000  0.4579620000000  0.5076190000000 1.0
C      1  0.5176880000000  0.5319340000000  0.5866350000000 1.0
C      1  0.4098510000000  0.4724720000000  0.4979230000000 1.0
C      1  0.4279030000000  0.5775100000000  0.4352380000000 1.0
C      1  0.5798230000000  0.5081830000000  0.4760580000000 1.0
C      1  0.5339390000000  0.5024740000000  0.3995160000000 1.0
C      1  0.5079560000000  0.4967800000000  0.3966040000000 1.0
C      1  0.4240650000000  0.5197480000000  0.5546080000000 1.0
C      1  0.5123640000000  0.4423110000000  0.5693540000000 1.0
C      1  0.4821430000000  0.4908360000000  0.4005590000000 1.0
C      1  0.4250600000000  0.5161930000000  0.5056530000000 1.0
C      1  0.5882070000000  0.5342440000000  0.5144840000000 1.0
C      1  0.5849630000000  0.4427180000000  0.5161580000000 1.0
C      1  0.4281580000000  0.5335230000000  0.5289930000000 1.0
C      1  0.5350870000000  0.5713340000000  0.4145130000000 1.0
C      1  0.5749270000000  0.5051630000000  0.5554470000000 1.0
C      1  0.5464220000000  0.4761330000000  0.5865220000000 1.0
C      1  0.5944360000000  0.5087690000000  0.5009360000000 1.0
C      1  0.5047540000000  0.4874890000000  0.5643670000000 1.0
C      1  0.5585140000000  0.5012100000000  0.5788770000000 1.0
C      1  0.5371510000000  0.4595020000000  0.5280530000000 1.0
C      1  0.5251800000000  0.5422640000000  0.4555490000000 1.0
C      1  0.4185730000000  0.5916200000000  0.4564050000000 1.0
C      1  0.5182620000000  0.5686360000000  0.5325720000000 1.0
C      1  0.5151890000000  0.4104370000000  0.5365670000000 1.0
C      1  0.5697370000000  0.5385370000000  0.4143700000000 1.0
C      1  0.5091900000000  0.3844440000000  0.4854240000000 1.0
C      1  0.4030820000000  0.4823000000000  0.4697080000000 1.0
C      1  0.5815150000000  0.4828150000000  0.5392980000000 1.0
C      1  0.4238390000000  0.5853350000000  0.4821080000000 1.0
C      1  0.4918240000000  0.3694820000000  0.4995110000000 1.0
C      1  0.5542740000000  0.5683780000000  0.4995370000000 1.0
C      1  0.5311340000000  0.4573870000000  0.4966390000000 1.0
C      1  0.4373160000000  0.5088250000000  0.4797910000000 1.0
C      1  0.4165000000000  0.5070630000000  0.4592660000000 1.0
C      1  0.4254750000000  0.5288430000000  0.4409270000000 1.0
C      1  0.5581860000000  0.4906390000000  0.4713360000000 1.0
C      1  0.4663600000000  0.3958080000000  0.5341110000000 1.0
C      1  0.4600010000000  0.4818120000000  0.4158810000000 1.0
C      1  0.5247300000000  0.4870980000000  0.5392300000000 1.0
C      1  0.5584670000000  0.5625220000000  0.4041310000000 1.0
C      1  0.4656680000000  0.4772980000000  0.4433550000000 1.0
C      1  0.4428790000000  0.5533580000000  0.4385000000000 1.0
C      1  0.5078410000000  0.4895330000000  0.4632110000000 1.0
C      1  0.4546640000000  0.4825620000000  0.5126350000000 1.0
C      1  0.4599280000000  0.4957920000000  0.4656660000000 1.0
C      1  0.4849930000000  0.4184410000000  0.4631560000000 1.0
C      1  0.4073760000000  0.4942700000000  0.5170830000000 1.0
C      1  0.4692390000000  0.5185920000000  0.5835130000000 1.0
C      1  0.5390570000000  0.5539100000000  0.5202860000000 1.0
C      1  0.5159530000000  0.5740070000000  0.5596750000000 1.0
C      1  0.4775050000000  0.4786390000000  0.5528830000000 1.0
C      1  0.5815050000000  0.5301600000000  0.5422160000000 1.0
C      1  0.4698140000000  0.5576680000000  0.4512510000000 1.0
C      1  0.5291030000000  0.5315860000000  0.4797340000000 1.0
C      1  0.4749100000000  0.5374200000000  0.4711810000000 1.0
C      1  0.5269390000000  0.4354920000000  0.5443260000000 1.0
C      1  0.4439620000000  0.4130920000000  0.5322220000000 1.0
C      1  0.4746110000000  0.5249110000000  0.5323770000000 1.0
C      1  0.4853380000000  0.5110240000000  0.4674800000000 1.0
C      1  0.5569020000000  0.5148630000000  0.4056700000000 1.0
C      1  0.5338220000000  0.5842170000000  0.4853170000000 1.0
C      1  0.5228210000000  0.5594980000000  0.4352620000000 1.0
C      1  0.4667120000000  0.4969650000000  0.5338040000000 1.0
C      1  0.4604040000000  0.4273190000000  0.4679770000000 1.0
C      1  0.4931910000000  0.4694600000000  0.4479850000000 1.0
C      1  0.4771260000000  0.5489750000000  0.5171690000000 1.0
C      1  0.5443110000000  0.5232040000000  0.5893190000000 1.0
C      1  0.4442940000000  0.4409330000000  0.4840080000000 1.0
C      1  0.5670580000000  0.4583760000000  0.5327210000000 1.0
C      1  0.4862770000000  0.5800920000000  0.4630860000000 1.0
C      1  0.4987600000000  0.4964170000000  0.5050420000000 1.0
C      1  0.5797070000000  0.5363340000000  0.4674820000000 1.0
C      1  0.6049530000000  0.4593650000000  0.5065790000000 1.0
C      1  0.4394590000000  0.5667190000000  0.4933950000000 1.0
C      1  0.5135800000000  0.5592160000000  0.5817940000000 1.0
C      1  0.4356160000000  0.4768500000000  0.4047770000000 1.0
C      1  0.4884100000000  0.4076350000000  0.5472310000000 1.0
C      1  0.4667060000000  0.4517460000000  0.5525040000000 1.0
C      1  0.4851720000000  0.4321380000000  0.5632900000000 1.0
C      1  0.5197370000000  0.4671030000000  0.5810970000000 1.0
C      1  0.5775380000000  0.5525980000000  0.4925530000000 1.0
C      1  0.5323780000000  0.4796440000000  0.4768960000000 1.0
C      1  0.4070150000000  0.4976160000000  0.5458150000000 1.0
C      1  0.5315140000000  0.5289240000000  0.5082320000000 1.0
C      1  0.4964230000000  0.5702570000000  0.5143040000000 1.0
C      1  0.4454120000000  0.4417400000000  0.5336080000000 1.0
C      1  0.4435540000000  0.5206080000000  0.5750800000000 1.0
C      1  0.4721680000000  0.3741090000000  0.5172810000000 1.0
C      1  0.5815700000000  0.5407000000000  0.4399240000000 1.0
C      1  0.5251430000000  0.4316410000000  0.4862160000000 1.0
C      1  0.4972750000000  0.5130160000000  0.5798730000000 1.0
END
