TITL C-599897-7526-103 0.000985832268185142 125000 -289.885946368663 0 0 48 (C1) n - 1
REM
REM in /home/nfs/bkarasulu/CARBON/AIRSS/Generating-Clusters/TERSOFF/Only-C1/FIRE-HFTN
REM
REM
REM
REM
REM
REM ./C.cell (11c1c37f851c82e70ff6c80c92926a4b)
REM AIRSS Version 0.9.1 bugfix July 2018 build 013d7b7c2542+ Fri, 06 Jul 2018 19:26:36 +0100
REM compiler GCC version 9.2.1 20190827 (Red Hat 9.2.1-1)
REM options -cpp -mtune=generic -march=x86-64 -g -O0 -fpre-include=/usr/include/finclude/math-vector-fortran.h
REM seed -328642063 1398644560 620446741 -1705331043 1352621557 1945031032 -384262753 -954223302 1218138265 -1763186830 820296110 870807216 -1824930673 -569046959 -749108623 1326209179 1263154152 667490981 -258427706 -1515250655 -739576363 -2077297506 -538623696 -848656202 -106507604 164288126 -1864339711 1798915420 371305262 1491661130 2124754986 1918561291 -421840778
REM
CELL 1.54180   50.00000   50.00000   50.00000   90.00000   90.00000   90.00000
LATT -1
SFAC C  
C      1  0.5226150000000  0.5030510000000  0.6067830000000 1.0
C      1  0.4470090000000  0.5063320000000  0.4496810000000 1.0
C      1  0.4976670000000  0.5589330000000  0.4660370000000 1.0
C      1  0.5500930000000  0.4648860000000  0.4788160000000 1.0
C      1  0.5307970000000  0.5731240000000  0.4981280000000 1.0
C      1  0.5531790000000  0.5280190000000  0.5385500000000 1.0
C      1  0.5471620000000  0.4712640000000  0.5057680000000 1.0
C      1  0.5271250000000  0.5608500000000  0.4715550000000 1.0
C      1  0.4958780000000  0.5121010000000  0.4886630000000 1.0
C      1  0.5100720000000  0.4322380000000  0.5127390000000 1.0
C      1  0.4952250000000  0.4652570000000  0.5511610000000 1.0
C      1  0.4500050000000  0.5120170000000  0.5569140000000 1.0
C      1  0.5270030000000  0.4878990000000  0.5161730000000 1.0
C      1  0.4866550000000  0.5334000000000  0.5337750000000 1.0
C      1  0.4188630000000  0.4869750000000  0.5274080000000 1.0
C      1  0.4495490000000  0.4801020000000  0.4605780000000 1.0
C      1  0.5507830000000  0.4873390000000  0.4595100000000 1.0
C      1  0.4868800000000  0.5596620000000  0.4931330000000 1.0
C      1  0.4978640000000  0.5137500000000  0.4601780000000 1.0
C      1  0.5055700000000  0.5727730000000  0.5126940000000 1.0
C      1  0.4528350000000  0.4568160000000  0.4442730000000 1.0
C      1  0.4687160000000  0.4358740000000  0.4545310000000 1.0
C      1  0.4999780000000  0.5590640000000  0.5377140000000 1.0
C      1  0.5544840000000  0.5706720000000  0.5129140000000 1.0
C      1  0.5549540000000  0.5151660000000  0.4628360000000 1.0
C      1  0.5366330000000  0.5077240000000  0.5335600000000 1.0
C      1  0.4586580000000  0.5303680000000  0.4441080000000 1.0
C      1  0.5623090000000  0.5517360000000  0.5302570000000 1.0
C      1  0.5376480000000  0.5096390000000  0.6270360000000 1.0
C      1  0.5453630000000  0.5404460000000  0.4635310000000 1.0
C      1  0.5304170000000  0.4795590000000  0.4396290000000 1.0
C      1  0.5013660000000  0.4883810000000  0.5027480000000 1.0
C      1  0.4935100000000  0.4914750000000  0.5622220000000 1.0
C      1  0.4293310000000  0.4767670000000  0.5051160000000 1.0
C      1  0.5119770000000  0.4309040000000  0.4843560000000 1.0
C      1  0.4408920000000  0.4548080000000  0.4197810000000 1.0
C      1  0.4778000000000  0.4724750000000  0.5006990000000 1.0
C      1  0.5080440000000  0.4962300000000  0.4408850000000 1.0
C      1  0.4882340000000  0.4258010000000  0.4697570000000 1.0
C      1  0.4775870000000  0.5129670000000  0.5513220000000 1.0
C      1  0.4270280000000  0.5016100000000  0.5482100000000 1.0
C      1  0.5275320000000  0.4511360000000  0.4417800000000 1.0
C      1  0.4520630000000  0.4756850000000  0.4888520000000 1.0
C      1  0.4853180000000  0.5381390000000  0.4506380000000 1.0
C      1  0.4837750000000  0.5327410000000  0.5044430000000 1.0
C      1  0.5331370000000  0.4427490000000  0.4690320000000 1.0
C      1  0.5027060000000  0.4444360000000  0.5356930000000 1.0
C      1  0.5077070000000  0.4966610000000  0.5858370000000 1.0
END
