TITL C-599896-8500-483 -11758.7161318043 125000 -1044.65195048411 0 0 172 (C1) n - 1
REM
REM in /home/nfs/bkarasulu/CARBON/AIRSS/Generating-Clusters/TERSOFF/Only-C1/FIRE-HFTN
REM
REM
REM
REM
REM
REM ./C.cell (11c1c37f851c82e70ff6c80c92926a4b)
REM AIRSS Version 0.9.1 bugfix July 2018 build 013d7b7c2542+ Fri, 06 Jul 2018 19:26:36 +0100
REM compiler GCC version 9.2.1 20190827 (Red Hat 9.2.1-1)
REM options -cpp -mtune=generic -march=x86-64 -g -O0 -fpre-include=/usr/include/finclude/math-vector-fortran.h
REM seed 1081616815 507503151 -870803853 -2132746275 -940496770 -774273153 -1898213596 -2050153430 390040711 658371015 1798677643 -1617642878 1981726798 323522893 1720701022 157819155 998073650 -920321679 -1798365899 1159181388 1043133487 -1253180401 758742404 -491288875 668716216 1093459510 -1464848624 1431365809 479982550 -1454220061 -967996009 -796669831 2112761252
REM
CELL 1.54180   50.00000   50.00000   50.00000   90.00000   90.00000   90.00000
LATT -1
SFAC C  
C      1  0.5391920000000  0.4749840000000  0.4400760000000 1.0
C      1  0.4743170000000  0.4913420000000  0.5452730000000 1.0
C      1  0.6040660000000  0.5176230000000  0.5033850000000 1.0
C      1  0.5367000000000  0.4514590000000  0.4926610000000 1.0
C      1  0.5714830000000  0.6465160000000  0.6232850000000 1.0
C      1  0.5461940000000  0.5943250000000  0.5427880000000 1.0
C      1  0.5635350000000  0.4555810000000  0.5604520000000 1.0
C      1  0.4808110000000  0.4086070000000  0.4300540000000 1.0
C      1  0.5717580000000  0.5050130000000  0.4739160000000 1.0
C      1  0.4327880000000  0.5739300000000  0.5088090000000 1.0
C      1  0.5098410000000  0.4917000000000  0.5983080000000 1.0
C      1  0.5666700000000  0.4789520000000  0.5767530000000 1.0
C      1  0.4951540000000  0.4445580000000  0.6098580000000 1.0
C      1  0.4114200000000  0.5680080000000  0.5492020000000 1.0
C      1  0.5267810000000  0.4035150000000  0.5053440000000 1.0
C      1  0.4089850000000  0.4528150000000  0.5557690000000 1.0
C      1  0.5050470000000  0.4335300000000  0.3896950000000 1.0
C      1  0.4582080000000  0.5320960000000  0.5322980000000 1.0
C      1  0.4655570000000  0.4740590000000  0.5016780000000 1.0
C      1  0.4866300000000  0.6188330000000  0.4984040000000 1.0
C      1  0.5891240000000  0.4746340000000  0.3892340000000 1.0
C      1  0.4801900000000  0.5487840000000  0.5378610000000 1.0
C      1  0.4132630000000  0.5593670000000  0.4943740000000 1.0
C      1  0.4841800000000  0.4276380000000  0.4505870000000 1.0
C      1  0.4768510000000  0.4737950000000  0.4456410000000 1.0
C      1  0.5675560000000  0.5773550000000  0.5404070000000 1.0
C      1  0.3940250000000  0.4485590000000  0.5048650000000 1.0
C      1  0.5249120000000  0.5442980000000  0.4122310000000 1.0
C      1  0.5192710000000  0.4634240000000  0.4221460000000 1.0
C      1  0.6076570000000  0.4222770000000  0.4990540000000 1.0
C      1  0.4805410000000  0.4987310000000  0.6000620000000 1.0
C      1  0.5042910000000  0.5004080000000  0.5111500000000 1.0
C      1  0.5081470000000  0.5688410000000  0.5049670000000 1.0
C      1  0.4510620000000  0.5678660000000  0.5988340000000 1.0
C      1  0.5979840000000  0.4750760000000  0.5297220000000 1.0
C      1  0.4209580000000  0.4909060000000  0.5085770000000 1.0
C      1  0.4980560000000  0.6140940000000  0.5268650000000 1.0
C      1  0.4712960000000  0.3715180000000  0.4530280000000 1.0
C      1  0.5062390000000  0.5024620000000  0.4839630000000 1.0
C      1  0.5760480000000  0.5240970000000  0.5722180000000 1.0
C      1  0.4845120000000  0.4247080000000  0.5916830000000 1.0
C      1  0.5163350000000  0.4638480000000  0.6067430000000 1.0
C      1  0.5412870000000  0.6180300000000  0.5022280000000 1.0
C      1  0.4514660000000  0.4876940000000  0.4023820000000 1.0
C      1  0.4600550000000  0.3699300000000  0.5011270000000 1.0
C      1  0.6000710000000  0.4679020000000  0.4789040000000 1.0
C      1  0.4818950000000  0.4874810000000  0.5193650000000 1.0
C      1  0.5041640000000  0.6267640000000  0.4772120000000 1.0
C      1  0.4520600000000  0.5990140000000  0.4634600000000 1.0
C      1  0.5090100000000  0.5121690000000  0.4584380000000 1.0
C      1  0.5471070000000  0.5163260000000  0.5159340000000 1.0
C      1  0.5348910000000  0.5899310000000  0.4335480000000 1.0
C      1  0.3866340000000  0.5179480000000  0.4943460000000 1.0
C      1  0.5052810000000  0.4094450000000  0.5793070000000 1.0
C      1  0.5211170000000  0.4504020000000  0.5406410000000 1.0
C      1  0.4588360000000  0.4315080000000  0.5795810000000 1.0
C      1  0.3881380000000  0.4972500000000  0.4762910000000 1.0
C      1  0.5209850000000  0.4359430000000  0.4137830000000 1.0
C      1  0.4796880000000  0.6067690000000  0.5503910000000 1.0
C      1  0.5162050000000  0.5993990000000  0.4147240000000 1.0
C      1  0.5844420000000  0.4818630000000  0.4587590000000 1.0
C      1  0.5317190000000  0.5032880000000  0.4457620000000 1.0
C      1  0.4644370000000  0.6027920000000  0.4893860000000 1.0
C      1  0.5533260000000  0.5175800000000  0.4551920000000 1.0
C      1  0.5542150000000  0.4673110000000  0.5098290000000 1.0
C      1  0.6054280000000  0.4858800000000  0.5033150000000 1.0
C      1  0.5856630000000  0.5498690000000  0.4611530000000 1.0
C      1  0.4425720000000  0.5036170000000  0.4685260000000 1.0
C      1  0.4051530000000  0.4487370000000  0.4770290000000 1.0
C      1  0.5527670000000  0.5435010000000  0.5114900000000 1.0
C      1  0.5713580000000  0.6166930000000  0.4497190000000 1.0
C      1  0.5327450000000  0.5596560000000  0.5007590000000 1.0
C      1  0.4834200000000  0.5687590000000  0.5183460000000 1.0
C      1  0.4736830000000  0.3615860000000  0.4793540000000 1.0
C      1  0.5108810000000  0.4248380000000  0.4612350000000 1.0
C      1  0.5454240000000  0.6080710000000  0.4532810000000 1.0
C      1  0.5431590000000  0.5625070000000  0.4293770000000 1.0
C      1  0.5565610000000  0.5048690000000  0.5798590000000 1.0
C      1  0.4197780000000  0.4229370000000  0.4719710000000 1.0
C      1  0.4712680000000  0.5258720000000  0.5974820000000 1.0
C      1  0.5975090000000  0.3964210000000  0.5053560000000 1.0
C      1  0.4667600000000  0.5927510000000  0.4185770000000 1.0
C      1  0.5499840000000  0.3821570000000  0.4488530000000 1.0
C      1  0.5695420000000  0.4774430000000  0.4338970000000 1.0
C      1  0.5096080000000  0.6107360000000  0.5895590000000 1.0
C      1  0.4282930000000  0.4088050000000  0.4478980000000 1.0
C      1  0.4477790000000  0.5168640000000  0.4120150000000 1.0
C      1  0.4784190000000  0.4691040000000  0.5626960000000 1.0
C      1  0.4207240000000  0.5296930000000  0.5857380000000 1.0
C      1  0.4413560000000  0.3885030000000  0.5063500000000 1.0
C      1  0.5487890000000  0.3883950000000  0.5064710000000 1.0
C      1  0.4281540000000  0.5892900000000  0.5522770000000 1.0
C      1  0.5967310000000  0.5193400000000  0.5529420000000 1.0
C      1  0.4911880000000  0.5967160000000  0.4056710000000 1.0
C      1  0.4639220000000  0.5443930000000  0.4855630000000 1.0
C      1  0.5152090000000  0.4280250000000  0.4929360000000 1.0
C      1  0.4652670000000  0.5412920000000  0.4147520000000 1.0
C      1  0.5830510000000  0.4223900000000  0.4588860000000 1.0
C      1  0.4635840000000  0.4761450000000  0.5907130000000 1.0
C      1  0.5313790000000  0.4151400000000  0.5736370000000 1.0
C      1  0.4608290000000  0.6119320000000  0.4392980000000 1.0
C      1  0.4775720000000  0.5736970000000  0.5883640000000 1.0
C      1  0.4926200000000  0.4740510000000  0.4222770000000 1.0
C      1  0.4043230000000  0.5410610000000  0.5399020000000 1.0
C      1  0.5580440000000  0.4953380000000  0.4998980000000 1.0
C      1  0.5821870000000  0.5373770000000  0.4146020000000 1.0
C      1  0.5507040000000  0.6349600000000  0.6125860000000 1.0
C      1  0.4312230000000  0.4682470000000  0.5482340000000 1.0
C      1  0.4019550000000  0.4756640000000  0.4609960000000 1.0
C      1  0.4739790000000  0.4307610000000  0.5302890000000 1.0
C      1  0.4867140000000  0.4333510000000  0.5045060000000 1.0
C      1  0.4507860000000  0.6041480000000  0.5490840000000 1.0
C      1  0.5750680000000  0.5538440000000  0.5258740000000 1.0
C      1  0.4712720000000  0.4509950000000  0.4880610000000 1.0
C      1  0.4542290000000  0.5666460000000  0.4259470000000 1.0
C      1  0.4996400000000  0.5377590000000  0.4542030000000 1.0
C      1  0.4290400000000  0.4972430000000  0.5517550000000 1.0
C      1  0.5481050000000  0.4377570000000  0.5783810000000 1.0
C      1  0.5915700000000  0.5275740000000  0.4788520000000 1.0
C      1  0.4596360000000  0.5819180000000  0.5078220000000 1.0
C      1  0.5713280000000  0.5536660000000  0.4357400000000 1.0
C      1  0.5963750000000  0.5336750000000  0.5279080000000 1.0
C      1  0.5986790000000  0.4387480000000  0.4776260000000 1.0
C      1  0.4248810000000  0.4439270000000  0.4099010000000 1.0
C      1  0.5394350000000  0.4597080000000  0.4656470000000 1.0
C      1  0.4766420000000  0.4737050000000  0.3983500000000 1.0
C      1  0.4895020000000  0.5968090000000  0.5760760000000 1.0
C      1  0.6102430000000  0.3794160000000  0.5224430000000 1.0
C      1  0.4222130000000  0.5138510000000  0.4279730000000 1.0
C      1  0.5729320000000  0.3895830000000  0.4921990000000 1.0
C      1  0.4362340000000  0.5084150000000  0.4948860000000 1.0
C      1  0.5420940000000  0.4510490000000  0.6040860000000 1.0
C      1  0.3938440000000  0.4459960000000  0.5323080000000 1.0
C      1  0.4511130000000  0.5295580000000  0.5052450000000 1.0
C      1  0.5230500000000  0.5109200000000  0.5292520000000 1.0
C      1  0.5311470000000  0.6185990000000  0.4757620000000 1.0
C      1  0.5672170000000  0.5159660000000  0.4033300000000 1.0
C      1  0.4142460000000  0.4856110000000  0.4347900000000 1.0
C      1  0.4622020000000  0.4957340000000  0.4530330000000 1.0
C      1  0.5718910000000  0.4610490000000  0.5326040000000 1.0
C      1  0.4723160000000  0.4502860000000  0.4602590000000 1.0
C      1  0.5757400000000  0.4889970000000  0.4082550000000 1.0
C      1  0.4121880000000  0.5198870000000  0.5596580000000 1.0
C      1  0.4291760000000  0.4711220000000  0.4138910000000 1.0
C      1  0.4854260000000  0.4516240000000  0.3821060000000 1.0
C      1  0.4933810000000  0.3827320000000  0.4371220000000 1.0
C      1  0.4443590000000  0.5392240000000  0.5984580000000 1.0
C      1  0.5402720000000  0.5239780000000  0.3982050000000 1.0
C      1  0.4950680000000  0.5421640000000  0.4098470000000 1.0
C      1  0.5700030000000  0.3968120000000  0.4641910000000 1.0
C      1  0.5059120000000  0.4603660000000  0.5591860000000 1.0
C      1  0.5283430000000  0.6102840000000  0.5269000000000 1.0
C      1  0.4269720000000  0.4084110000000  0.4956210000000 1.0
C      1  0.4542290000000  0.5095700000000  0.5478960000000 1.0
C      1  0.5251510000000  0.4177630000000  0.4360390000000 1.0
C      1  0.4177330000000  0.5617950000000  0.4662040000000 1.0
C      1  0.4883820000000  0.5466770000000  0.5846870000000 1.0
C      1  0.5239150000000  0.3879440000000  0.4374610000000 1.0
C      1  0.4978780000000  0.5406360000000  0.5587680000000 1.0
C      1  0.4395570000000  0.5736520000000  0.4519740000000 1.0
C      1  0.5277540000000  0.5069190000000  0.5796990000000 1.0
C      1  0.4147790000000  0.4500110000000  0.5846170000000 1.0
C      1  0.4609450000000  0.4464020000000  0.5524440000000 1.0
C      1  0.3986940000000  0.5392050000000  0.5100750000000 1.0
C      1  0.6063930000000  0.4925230000000  0.5507360000000 1.0
C      1  0.5169880000000  0.5197530000000  0.5558330000000 1.0
C      1  0.4430420000000  0.4527370000000  0.5938810000000 1.0
C      1  0.5296800000000  0.6231500000000  0.6015850000000 1.0
C      1  0.4453800000000  0.3852700000000  0.4484970000000 1.0
C      1  0.5594840000000  0.4495030000000  0.6252180000000 1.0
C      1  0.4231730000000  0.4209410000000  0.4231740000000 1.0
C      1  0.4811510000000  0.5514870000000  0.4669270000000 1.0
END
