TITL C-599897-7526-1439 -2.70189015310698e-05 125000 -420.822986766445 0 0 68 (C1) n - 1
REM
REM in /home/nfs/bkarasulu/CARBON/AIRSS/Generating-Clusters/TERSOFF/Only-C1/FIRE-HFTN
REM
REM
REM
REM
REM
REM ./C.cell (11c1c37f851c82e70ff6c80c92926a4b)
REM AIRSS Version 0.9.1 bugfix July 2018 build 013d7b7c2542+ Fri, 06 Jul 2018 19:26:36 +0100
REM compiler GCC version 9.2.1 20190827 (Red Hat 9.2.1-1)
REM options -cpp -mtune=generic -march=x86-64 -g -O0 -fpre-include=/usr/include/finclude/math-vector-fortran.h
REM seed 1569427550 300831671 1916490949 -1143520095 901405995 1457384547 -540200260 -1031836644 411455911 -1087967366 -544837155 1459218309 84796962 523308344 2014965693 1915956954 1327799222 901653774 -2068988674 -414232184 1715326901 977771990 1204537713 2574198 382096780 408948105 1520884367 -93151746 -1663609271 570643154 -543146524 -826607815 1330885191
REM
CELL 1.54180   50.00000   50.00000   50.00000   90.00000   90.00000   90.00000
LATT -1
SFAC C  
C      1  0.5928280000000  0.4868400000000  0.5456800000000 1.0
C      1  0.4744190000000  0.4366030000000  0.4656960000000 1.0
C      1  0.5527300000000  0.4755740000000  0.5725830000000 1.0
C      1  0.5680000000000  0.4944010000000  0.5571800000000 1.0
C      1  0.4500300000000  0.5533270000000  0.4691450000000 1.0
C      1  0.4915280000000  0.5671270000000  0.4002780000000 1.0
C      1  0.5366970000000  0.4970360000000  0.4263550000000 1.0
C      1  0.5148710000000  0.4971650000000  0.5031190000000 1.0
C      1  0.5584740000000  0.5137860000000  0.4313290000000 1.0
C      1  0.4936130000000  0.5261300000000  0.6056810000000 1.0
C      1  0.4367810000000  0.4785020000000  0.4377800000000 1.0
C      1  0.4540860000000  0.4977670000000  0.4313390000000 1.0
C      1  0.5222770000000  0.5724270000000  0.4568070000000 1.0
C      1  0.4969220000000  0.5009730000000  0.5660300000000 1.0
C      1  0.4922330000000  0.4800580000000  0.5098860000000 1.0
C      1  0.4672680000000  0.4926340000000  0.5064040000000 1.0
C      1  0.5672570000000  0.5482560000000  0.4630370000000 1.0
C      1  0.4342180000000  0.4728720000000  0.5462720000000 1.0
C      1  0.4114710000000  0.5083180000000  0.5698780000000 1.0
C      1  0.5129510000000  0.4541760000000  0.4328300000000 1.0
C      1  0.4399640000000  0.4439200000000  0.5010650000000 1.0
C      1  0.4786320000000  0.4582130000000  0.5660590000000 1.0
C      1  0.4485630000000  0.4442890000000  0.4742210000000 1.0
C      1  0.4953830000000  0.5237630000000  0.4220530000000 1.0
C      1  0.5057370000000  0.5228860000000  0.5504830000000 1.0
C      1  0.5031880000000  0.4728210000000  0.5646670000000 1.0
C      1  0.5966770000000  0.4741450000000  0.5218750000000 1.0
C      1  0.4909330000000  0.5417280000000  0.5363370000000 1.0
C      1  0.4840900000000  0.5728740000000  0.4953320000000 1.0
C      1  0.4948000000000  0.4521830000000  0.5121800000000 1.0
C      1  0.5502080000000  0.4686730000000  0.5174050000000 1.0
C      1  0.5729050000000  0.5223640000000  0.4539770000000 1.0
C      1  0.4166690000000  0.4960380000000  0.5447870000000 1.0
C      1  0.5332880000000  0.5284880000000  0.5554990000000 1.0
C      1  0.5553350000000  0.4647360000000  0.4587360000000 1.0
C      1  0.5388830000000  0.4955860000000  0.5182900000000 1.0
C      1  0.4943670000000  0.5522670000000  0.4230610000000 1.0
C      1  0.5363380000000  0.5391880000000  0.5817800000000 1.0
C      1  0.5474930000000  0.5662510000000  0.4629010000000 1.0
C      1  0.5840030000000  0.5016000000000  0.4694730000000 1.0
C      1  0.4961270000000  0.5650280000000  0.4488630000000 1.0
C      1  0.5179710000000  0.5378890000000  0.6019740000000 1.0
C      1  0.5097910000000  0.5111330000000  0.4789810000000 1.0
C      1  0.4198820000000  0.5254420000000  0.5003270000000 1.0
C      1  0.4334550000000  0.4583770000000  0.4550490000000 1.0
C      1  0.4874230000000  0.5619630000000  0.5194400000000 1.0
C      1  0.5035790000000  0.4837020000000  0.3951750000000 1.0
C      1  0.4537950000000  0.4724550000000  0.5678370000000 1.0
C      1  0.5146180000000  0.4371690000000  0.5225510000000 1.0
C      1  0.4772030000000  0.5111250000000  0.4396740000000 1.0
C      1  0.4801300000000  0.5080480000000  0.5884750000000 1.0
C      1  0.5029900000000  0.4588740000000  0.4064510000000 1.0
C      1  0.5753320000000  0.4680690000000  0.5041040000000 1.0
C      1  0.4967760000000  0.4408890000000  0.4515740000000 1.0
C      1  0.4755190000000  0.5662710000000  0.4691270000000 1.0
C      1  0.4840150000000  0.5119210000000  0.4669390000000 1.0
C      1  0.5359220000000  0.4508430000000  0.5348660000000 1.0
C      1  0.4546000000000  0.4954210000000  0.5865110000000 1.0
C      1  0.4297660000000  0.5083840000000  0.5898960000000 1.0
C      1  0.5743610000000  0.4758610000000  0.4766920000000 1.0
C      1  0.4119640000000  0.5103740000000  0.5210580000000 1.0
C      1  0.4421080000000  0.5302700000000  0.4839030000000 1.0
C      1  0.5354010000000  0.4710060000000  0.4396990000000 1.0
C      1  0.5501150000000  0.5108360000000  0.5409510000000 1.0
C      1  0.4624730000000  0.5106700000000  0.4855640000000 1.0
C      1  0.5140040000000  0.5053280000000  0.4106360000000 1.0
C      1  0.4346060000000  0.4539560000000  0.5253230000000 1.0
C      1  0.5299590000000  0.4627160000000  0.5608680000000 1.0
END
