TITL C-599895-9959-810 222.50756542976 125000 -873.185592065411 0 0 145 (C1) n - 1
REM
REM in /home/nfs/bkarasulu/CARBON/AIRSS/Generating-Clusters/TERSOFF/Only-C1/FIRE-HFTN
REM
REM
REM
REM
REM
REM ./C.cell (11c1c37f851c82e70ff6c80c92926a4b)
REM AIRSS Version 0.9.1 bugfix July 2018 build 013d7b7c2542+ Fri, 06 Jul 2018 19:26:36 +0100
REM compiler GCC version 9.2.1 20190827 (Red Hat 9.2.1-1)
REM options -cpp -mtune=generic -march=x86-64 -g -O0 -fpre-include=/usr/include/finclude/math-vector-fortran.h
REM seed 996787758 -1934446923 -449004968 92070536 -2140602227 -1549590452 -1002683575 1260913525 25735232 -248070589 1088765996 1025542285 30661189 -1055597051 1910078389 1470343865 -1082347642 -1150903368 807876078 -801112392 -1867020979 455349801 1866955869 1142556681 -1112529964 -1658354066 -103054516 657498960 174832481 -1683447788 1053097096 -1271007303 1299753769
REM
CELL 1.54180   50.00000   50.00000   50.00000   90.00000   90.00000   90.00000
LATT -1
SFAC C  
C      1  0.5250710000000  0.6051810000000  0.5203020000000 1.0
C      1  0.5296580000000  0.4669600000000  0.6167190000000 1.0
C      1  0.4822340000000  0.5431160000000  0.5668410000000 1.0
C      1  0.5291250000000  0.5163240000000  0.6100700000000 1.0
C      1  0.4707630000000  0.5280860000000  0.4583490000000 1.0
C      1  0.5236470000000  0.4235590000000  0.4853070000000 1.0
C      1  0.5340180000000  0.5011750000000  0.4435110000000 1.0
C      1  0.5475570000000  0.5369250000000  0.4069280000000 1.0
C      1  0.4869090000000  0.5809570000000  0.5375870000000 1.0
C      1  0.6133260000000  0.5200920000000  0.4592550000000 1.0
C      1  0.4871420000000  0.4043620000000  0.4690850000000 1.0
C      1  0.5866770000000  0.5475570000000  0.5492900000000 1.0
C      1  0.5054170000000  0.4990950000000  0.4456400000000 1.0
C      1  0.6228520000000  0.4777500000000  0.5060490000000 1.0
C      1  0.4920590000000  0.4660490000000  0.3887300000000 1.0
C      1  0.4395830000000  0.5383740000000  0.4207040000000 1.0
C      1  0.4877890000000  0.4591750000000  0.4759630000000 1.0
C      1  0.4350950000000  0.4454170000000  0.4664190000000 1.0
C      1  0.4834900000000  0.4537320000000  0.4123910000000 1.0
C      1  0.4852850000000  0.4200950000000  0.5704300000000 1.0
C      1  0.5538400000000  0.4440710000000  0.4249760000000 1.0
C      1  0.4329360000000  0.5507220000000  0.5625830000000 1.0
C      1  0.5489600000000  0.5222360000000  0.5137290000000 1.0
C      1  0.4449430000000  0.4445430000000  0.5142960000000 1.0
C      1  0.5195170000000  0.5707400000000  0.4275730000000 1.0
C      1  0.4625270000000  0.5713980000000  0.5251570000000 1.0
C      1  0.4268680000000  0.4672010000000  0.5203700000000 1.0
C      1  0.4855830000000  0.4835310000000  0.4613710000000 1.0
C      1  0.5556350000000  0.4835680000000  0.5650800000000 1.0
C      1  0.5003480000000  0.4094960000000  0.4944710000000 1.0
C      1  0.5453010000000  0.5098330000000  0.5642690000000 1.0
C      1  0.5925070000000  0.4494870000000  0.4810850000000 1.0
C      1  0.4929860000000  0.5093260000000  0.3674730000000 1.0
C      1  0.5090060000000  0.5165460000000  0.5341650000000 1.0
C      1  0.4063760000000  0.5050340000000  0.4133210000000 1.0
C      1  0.4186570000000  0.4718270000000  0.4683720000000 1.0
C      1  0.4467390000000  0.4558140000000  0.5734290000000 1.0
C      1  0.4611990000000  0.5045880000000  0.6122880000000 1.0
C      1  0.5023300000000  0.4717450000000  0.5198410000000 1.0
C      1  0.4181760000000  0.4217440000000  0.4729340000000 1.0
C      1  0.5152590000000  0.4930850000000  0.6190150000000 1.0
C      1  0.5649430000000  0.5717720000000  0.4859400000000 1.0
C      1  0.5574680000000  0.4680210000000  0.6099000000000 1.0
C      1  0.5739420000000  0.5044380000000  0.4788680000000 1.0
C      1  0.4727610000000  0.5558510000000  0.4735230000000 1.0
C      1  0.5097940000000  0.4975080000000  0.5110430000000 1.0
C      1  0.5417160000000  0.5101380000000  0.4165060000000 1.0
C      1  0.5762650000000  0.5258560000000  0.5023720000000 1.0
C      1  0.5137150000000  0.4460940000000  0.5241340000000 1.0
C      1  0.4385960000000  0.5692710000000  0.5414490000000 1.0
C      1  0.4183400000000  0.4562770000000  0.5779740000000 1.0
C      1  0.4530650000000  0.4849600000000  0.5701910000000 1.0
C      1  0.4587680000000  0.4993560000000  0.4587430000000 1.0
C      1  0.5032170000000  0.5596990000000  0.4730430000000 1.0
C      1  0.4039420000000  0.4007690000000  0.4789110000000 1.0
C      1  0.4565060000000  0.5467820000000  0.5781140000000 1.0
C      1  0.4419310000000  0.5016880000000  0.5908640000000 1.0
C      1  0.5457290000000  0.4948500000000  0.4714800000000 1.0
C      1  0.4062350000000  0.4796390000000  0.5666790000000 1.0
C      1  0.5219800000000  0.5966760000000  0.5889180000000 1.0
C      1  0.4858940000000  0.4755760000000  0.5419290000000 1.0
C      1  0.4536020000000  0.5714820000000  0.4559080000000 1.0
C      1  0.5469390000000  0.5604790000000  0.4221850000000 1.0
C      1  0.4443790000000  0.4442160000000  0.4382480000000 1.0
C      1  0.4964210000000  0.4670260000000  0.5665120000000 1.0
C      1  0.5685830000000  0.5591140000000  0.5656740000000 1.0
C      1  0.5018670000000  0.4343740000000  0.4245000000000 1.0
C      1  0.5632130000000  0.5754740000000  0.4394370000000 1.0
C      1  0.5709780000000  0.4669130000000  0.4217120000000 1.0
C      1  0.4121640000000  0.5303940000000  0.5628250000000 1.0
C      1  0.3916490000000  0.4722910000000  0.4648350000000 1.0
C      1  0.5005800000000  0.4078360000000  0.5486290000000 1.0
C      1  0.4338820000000  0.5540040000000  0.4441720000000 1.0
C      1  0.5087730000000  0.5533390000000  0.3815910000000 1.0
C      1  0.5476170000000  0.4166400000000  0.5404040000000 1.0
C      1  0.5155110000000  0.4422830000000  0.6105350000000 1.0
C      1  0.5359090000000  0.5436380000000  0.3813990000000 1.0
C      1  0.4552220000000  0.5989460000000  0.4522730000000 1.0
C      1  0.6085920000000  0.4729510000000  0.4819490000000 1.0
C      1  0.5651490000000  0.4411920000000  0.4744740000000 1.0
C      1  0.5631940000000  0.4291130000000  0.4470180000000 1.0
C      1  0.3871050000000  0.5163230000000  0.4287970000000 1.0
C      1  0.5279980000000  0.4002290000000  0.5533230000000 1.0
C      1  0.5302870000000  0.4940720000000  0.3955760000000 1.0
C      1  0.4867020000000  0.5201870000000  0.5510800000000 1.0
C      1  0.5062720000000  0.4888770000000  0.3815020000000 1.0
C      1  0.5835640000000  0.5504070000000  0.4860890000000 1.0
C      1  0.4923800000000  0.4151450000000  0.4441060000000 1.0
C      1  0.4153190000000  0.5060970000000  0.5789970000000 1.0
C      1  0.4588730000000  0.4633260000000  0.4235870000000 1.0
C      1  0.5729570000000  0.4721690000000  0.5226440000000 1.0
C      1  0.5434900000000  0.5546820000000  0.5785810000000 1.0
C      1  0.4908700000000  0.5361250000000  0.3685530000000 1.0
C      1  0.4151230000000  0.5406960000000  0.4621230000000 1.0
C      1  0.4924290000000  0.5238090000000  0.4396080000000 1.0
C      1  0.5721070000000  0.4747490000000  0.5866840000000 1.0
C      1  0.3932680000000  0.5282260000000  0.5411040000000 1.0
C      1  0.5291380000000  0.5113260000000  0.4924430000000 1.0
C      1  0.5398170000000  0.5272240000000  0.5864040000000 1.0
C      1  0.6164690000000  0.4741680000000  0.5585720000000 1.0
C      1  0.5884290000000  0.4820490000000  0.4363150000000 1.0
C      1  0.5981980000000  0.4943510000000  0.4627490000000 1.0
C      1  0.4589020000000  0.6246710000000  0.4503460000000 1.0
C      1  0.6244080000000  0.4767330000000  0.5329540000000 1.0
C      1  0.4666800000000  0.4979510000000  0.5464700000000 1.0
C      1  0.4684260000000  0.6494090000000  0.5264310000000 1.0
C      1  0.5993870000000  0.4725290000000  0.5794270000000 1.0
C      1  0.4513820000000  0.4275030000000  0.5357010000000 1.0
C      1  0.4268610000000  0.5251540000000  0.4829020000000 1.0
C      1  0.5386920000000  0.4441190000000  0.5385270000000 1.0
C      1  0.5427790000000  0.4642730000000  0.4747440000000 1.0
C      1  0.5597820000000  0.4086580000000  0.5159940000000 1.0
C      1  0.6051960000000  0.5446350000000  0.4683100000000 1.0
C      1  0.4054680000000  0.4789910000000  0.5373930000000 1.0
C      1  0.5491280000000  0.5802690000000  0.4643880000000 1.0
C      1  0.5028270000000  0.5691820000000  0.4047250000000 1.0
C      1  0.5201260000000  0.5760780000000  0.4567090000000 1.0
C      1  0.3771330000000  0.5489050000000  0.5335850000000 1.0
C      1  0.5163570000000  0.4505860000000  0.4771920000000 1.0
C      1  0.4870000000000  0.4914580000000  0.6118680000000 1.0
C      1  0.4986600000000  0.4199550000000  0.5218680000000 1.0
C      1  0.5551220000000  0.4665360000000  0.5424060000000 1.0
C      1  0.5291960000000  0.4342930000000  0.4132200000000 1.0
C      1  0.4510040000000  0.4909380000000  0.4295170000000 1.0
C      1  0.5368810000000  0.5204570000000  0.5395020000000 1.0
C      1  0.4989610000000  0.6049110000000  0.5284140000000 1.0
C      1  0.4341690000000  0.5103380000000  0.4163130000000 1.0
C      1  0.4513550000000  0.5086170000000  0.5220990000000 1.0
C      1  0.4447190000000  0.5320540000000  0.5057440000000 1.0
C      1  0.4592320000000  0.4472910000000  0.4871370000000 1.0
C      1  0.4977250000000  0.5662380000000  0.5601750000000 1.0
C      1  0.4601870000000  0.4329060000000  0.5623360000000 1.0
C      1  0.4351820000000  0.4954310000000  0.4775330000000 1.0
C      1  0.5168470000000  0.5366510000000  0.4826400000000 1.0
C      1  0.4402160000000  0.4879190000000  0.5062660000000 1.0
C      1  0.5515110000000  0.4198410000000  0.4914490000000 1.0
C      1  0.4996700000000  0.4264620000000  0.5947890000000 1.0
C      1  0.5318450000000  0.4219550000000  0.3885530000000 1.0
C      1  0.3922770000000  0.5027350000000  0.5282670000000 1.0
C      1  0.4880850000000  0.4722910000000  0.5911250000000 1.0
C      1  0.5211820000000  0.5726330000000  0.5756230000000 1.0
C      1  0.3906560000000  0.5323730000000  0.4503780000000 1.0
C      1  0.5919780000000  0.5314980000000  0.5281000000000 1.0
C      1  0.4837430000000  0.6283700000000  0.5278060000000 1.0
C      1  0.4618440000000  0.5545200000000  0.5020140000000 1.0
END
