TITL C-599890-3321-1004 -995.181704173332 125000 -1062.50732352629 0 0 175 (C1) n - 1
REM
REM in /home/nfs/bkarasulu/CARBON/AIRSS/Generating-Clusters/TERSOFF/Only-C1/FIRE-HFTN
REM
REM
REM
REM
REM
REM ./C.cell (11c1c37f851c82e70ff6c80c92926a4b)
REM AIRSS Version 0.9.1 bugfix July 2018 build 013d7b7c2542+ Fri, 06 Jul 2018 19:26:36 +0100
REM compiler GCC version 9.2.1 20190827 (Red Hat 9.2.1-1)
REM options -cpp -mtune=generic -march=x86-64 -g -O0 -fpre-include=/usr/include/finclude/math-vector-fortran.h
REM seed -216313757 -1294559362 139608004 1760326182 343209764 -645802465 589603115 -1204157256 174819662 -1479039585 1026373948 1038707262 1094146421 -1583762542 433169120 1641562954 1593350671 1886013740 415787428 -1383692320 -989677378 1807040739 1417580548 1350718776 1867119967 -1515600710 -121783102 1283576462 531149314 3190100 883898121 704586505 -1564893642
REM
CELL 1.54180   50.00000   50.00000   50.00000   90.00000   90.00000   90.00000
LATT -1
SFAC C  
C      1  0.4439250000000  0.6058370000000  0.4731780000000 1.0
C      1  0.5976910000000  0.4703930000000  0.4079490000000 1.0
C      1  0.5776950000000  0.5333380000000  0.5892530000000 1.0
C      1  0.4268660000000  0.4906840000000  0.4809940000000 1.0
C      1  0.3969840000000  0.4980740000000  0.5387400000000 1.0
C      1  0.5634920000000  0.4663350000000  0.4392110000000 1.0
C      1  0.4606090000000  0.5462240000000  0.5014170000000 1.0
C      1  0.4444380000000  0.4690110000000  0.4912650000000 1.0
C      1  0.4605950000000  0.5472100000000  0.5638390000000 1.0
C      1  0.4836740000000  0.4895390000000  0.3853700000000 1.0
C      1  0.5948960000000  0.4813850000000  0.5050630000000 1.0
C      1  0.4156010000000  0.5432870000000  0.5360050000000 1.0
C      1  0.4548110000000  0.5233950000000  0.6117350000000 1.0
C      1  0.4295730000000  0.5846870000000  0.4633000000000 1.0
C      1  0.3939670000000  0.4555870000000  0.4208480000000 1.0
C      1  0.5392930000000  0.4946950000000  0.4653100000000 1.0
C      1  0.5111430000000  0.4970130000000  0.4244820000000 1.0
C      1  0.4256830000000  0.4310250000000  0.5473180000000 1.0
C      1  0.5434600000000  0.5352890000000  0.5130920000000 1.0
C      1  0.4270040000000  0.5259250000000  0.6041110000000 1.0
C      1  0.5365180000000  0.6042180000000  0.5331950000000 1.0
C      1  0.3949540000000  0.5062660000000  0.5666840000000 1.0
C      1  0.5144690000000  0.3849950000000  0.4790190000000 1.0
C      1  0.5640260000000  0.4251610000000  0.4705370000000 1.0
C      1  0.4630690000000  0.4952920000000  0.6126330000000 1.0
C      1  0.5335960000000  0.5587730000000  0.5521100000000 1.0
C      1  0.5446400000000  0.4297240000000  0.5378800000000 1.0
C      1  0.5232630000000  0.4499630000000  0.4824620000000 1.0
C      1  0.5132190000000  0.4889140000000  0.6008210000000 1.0
C      1  0.4463210000000  0.5694260000000  0.5155810000000 1.0
C      1  0.6079130000000  0.4600640000000  0.4325610000000 1.0
C      1  0.4201220000000  0.5165760000000  0.4931240000000 1.0
C      1  0.6336960000000  0.5584210000000  0.4274240000000 1.0
C      1  0.5187680000000  0.5339320000000  0.3869350000000 1.0
C      1  0.4490940000000  0.4514450000000  0.5934930000000 1.0
C      1  0.4301200000000  0.4911890000000  0.4521670000000 1.0
C      1  0.5447280000000  0.4284670000000  0.5911870000000 1.0
C      1  0.4366390000000  0.5394940000000  0.4817280000000 1.0
C      1  0.4969950000000  0.4825240000000  0.5266770000000 1.0
C      1  0.4990190000000  0.5123730000000  0.3817390000000 1.0
C      1  0.5033000000000  0.6036940000000  0.5712660000000 1.0
C      1  0.5247020000000  0.5409890000000  0.4152030000000 1.0
C      1  0.6086440000000  0.5335850000000  0.4942370000000 1.0
C      1  0.4830340000000  0.5833070000000  0.4575240000000 1.0
C      1  0.5113010000000  0.4889070000000  0.5722630000000 1.0
C      1  0.3847710000000  0.4790200000000  0.4076440000000 1.0
C      1  0.5052480000000  0.5585380000000  0.5514430000000 1.0
C      1  0.4061640000000  0.5167780000000  0.5891530000000 1.0
C      1  0.4010310000000  0.5883660000000  0.5224670000000 1.0
C      1  0.4175610000000  0.4137020000000  0.4613540000000 1.0
C      1  0.3911470000000  0.4763380000000  0.3596770000000 1.0
C      1  0.4619130000000  0.3978330000000  0.4506060000000 1.0
C      1  0.4880220000000  0.4034350000000  0.4397050000000 1.0
C      1  0.4626540000000  0.6223490000000  0.5373120000000 1.0
C      1  0.4723940000000  0.4671860000000  0.4532830000000 1.0
C      1  0.6180140000000  0.5377030000000  0.4254030000000 1.0
C      1  0.4403600000000  0.4332060000000  0.4205200000000 1.0
C      1  0.4970110000000  0.5124020000000  0.5641380000000 1.0
C      1  0.4552730000000  0.3884920000000  0.5007750000000 1.0
C      1  0.4658540000000  0.4107180000000  0.5147390000000 1.0
C      1  0.5100240000000  0.6110090000000  0.5440290000000 1.0
C      1  0.4705630000000  0.5736720000000  0.6030250000000 1.0
C      1  0.4907740000000  0.4193730000000  0.5027880000000 1.0
C      1  0.3668520000000  0.4419460000000  0.4663070000000 1.0
C      1  0.5251030000000  0.4497130000000  0.5427300000000 1.0
C      1  0.5330830000000  0.5102030000000  0.6062420000000 1.0
C      1  0.5970860000000  0.4769040000000  0.5550150000000 1.0
C      1  0.4152030000000  0.4252190000000  0.4870920000000 1.0
C      1  0.5922970000000  0.5448640000000  0.5693070000000 1.0
C      1  0.5421780000000  0.6121710000000  0.5060640000000 1.0
C      1  0.5693870000000  0.4970380000000  0.5034170000000 1.0
C      1  0.4580180000000  0.3829170000000  0.4744220000000 1.0
C      1  0.4160680000000  0.4416210000000  0.4080630000000 1.0
C      1  0.6004070000000  0.5160120000000  0.4227470000000 1.0
C      1  0.5912440000000  0.4512300000000  0.5026740000000 1.0
C      1  0.5904790000000  0.4324090000000  0.5227330000000 1.0
C      1  0.5261750000000  0.6034050000000  0.4627930000000 1.0
C      1  0.4353440000000  0.4433380000000  0.4921950000000 1.0
C      1  0.5512430000000  0.5130910000000  0.5574230000000 1.0
C      1  0.4911900000000  0.6158290000000  0.4962560000000 1.0
C      1  0.4668650000000  0.4416480000000  0.4103660000000 1.0
C      1  0.5377040000000  0.3970270000000  0.4387960000000 1.0
C      1  0.5813960000000  0.5444910000000  0.4834480000000 1.0
C      1  0.5605120000000  0.4089950000000  0.4473920000000 1.0
C      1  0.5507530000000  0.5806370000000  0.5431940000000 1.0
C      1  0.4878530000000  0.6178640000000  0.5253160000000 1.0
C      1  0.4685110000000  0.5592030000000  0.4493570000000 1.0
C      1  0.4515920000000  0.4279400000000  0.5334370000000 1.0
C      1  0.4898150000000  0.5584030000000  0.5019550000000 1.0
C      1  0.4456730000000  0.5861590000000  0.5976710000000 1.0
C      1  0.4960740000000  0.4298280000000  0.5916910000000 1.0
C      1  0.5301500000000  0.4722980000000  0.5584550000000 1.0
C      1  0.5246090000000  0.5172660000000  0.4680470000000 1.0
C      1  0.5189400000000  0.6174950000000  0.4880650000000 1.0
C      1  0.5776950000000  0.5144530000000  0.4402030000000 1.0
C      1  0.4733140000000  0.4659600000000  0.3954160000000 1.0
C      1  0.4030380000000  0.4418840000000  0.5311920000000 1.0
C      1  0.5804420000000  0.4536290000000  0.5641650000000 1.0
C      1  0.5870540000000  0.4428250000000  0.4753350000000 1.0
C      1  0.5051270000000  0.5251380000000  0.4289960000000 1.0
C      1  0.4055230000000  0.4534450000000  0.3589360000000 1.0
C      1  0.5155670000000  0.5004070000000  0.5163560000000 1.0
C      1  0.5194290000000  0.4046840000000  0.5021120000000 1.0
C      1  0.4414080000000  0.4760900000000  0.6066880000000 1.0
C      1  0.3939650000000  0.4295300000000  0.5058600000000 1.0
C      1  0.4942410000000  0.5686150000000  0.5279330000000 1.0
C      1  0.6205720000000  0.5125910000000  0.4780620000000 1.0
C      1  0.4786040000000  0.4510490000000  0.5985340000000 1.0
C      1  0.4752400000000  0.4698470000000  0.4840270000000 1.0
C      1  0.4407640000000  0.5585000000000  0.4598260000000 1.0
C      1  0.5123600000000  0.3925950000000  0.4510540000000 1.0
C      1  0.4410290000000  0.5089480000000  0.5515450000000 1.0
C      1  0.4195400000000  0.5687260000000  0.5246820000000 1.0
C      1  0.5134270000000  0.5625920000000  0.4856500000000 1.0
C      1  0.6108680000000  0.4856910000000  0.4785500000000 1.0
C      1  0.5661230000000  0.4452430000000  0.5876980000000 1.0
C      1  0.5730640000000  0.4626760000000  0.3957420000000 1.0
C      1  0.5258640000000  0.4791240000000  0.4103710000000 1.0
C      1  0.4637530000000  0.4529530000000  0.5396630000000 1.0
C      1  0.3697470000000  0.4351600000000  0.4923300000000 1.0
C      1  0.5639730000000  0.5990390000000  0.4894720000000 1.0
C      1  0.4722580000000  0.6044670000000  0.4755820000000 1.0
C      1  0.6058210000000  0.4970450000000  0.4023010000000 1.0
C      1  0.4145440000000  0.4389960000000  0.3798100000000 1.0
C      1  0.5609820000000  0.4921120000000  0.4474370000000 1.0
C      1  0.4721280000000  0.5118460000000  0.4583510000000 1.0
C      1  0.4670730000000  0.5170540000000  0.5082490000000 1.0
C      1  0.3822520000000  0.4880320000000  0.3823800000000 1.0
C      1  0.5301120000000  0.4049550000000  0.5319480000000 1.0
C      1  0.4313500000000  0.4380480000000  0.5752380000000 1.0
C      1  0.4823510000000  0.5338560000000  0.4440990000000 1.0
C      1  0.5720130000000  0.4353150000000  0.5430800000000 1.0
C      1  0.4875530000000  0.4782170000000  0.6094010000000 1.0
C      1  0.4574700000000  0.4908880000000  0.4442950000000 1.0
C      1  0.4983750000000  0.5414380000000  0.6264500000000 1.0
C      1  0.5358920000000  0.4745510000000  0.4852840000000 1.0
C      1  0.5380440000000  0.5590570000000  0.4985760000000 1.0
C      1  0.4377920000000  0.6037010000000  0.5788320000000 1.0
C      1  0.5060820000000  0.4560910000000  0.5236740000000 1.0
C      1  0.5542490000000  0.5170700000000  0.5863360000000 1.0
C      1  0.5465870000000  0.4682580000000  0.3969200000000 1.0
C      1  0.4567290000000  0.5017680000000  0.5302190000000 1.0
C      1  0.5935000000000  0.5486020000000  0.5408160000000 1.0
C      1  0.5547280000000  0.6023650000000  0.4622370000000 1.0
C      1  0.6177200000000  0.5037460000000  0.3786710000000 1.0
C      1  0.5225870000000  0.5303110000000  0.6232070000000 1.0
C      1  0.5492630000000  0.4879450000000  0.5449230000000 1.0
C      1  0.4964370000000  0.4484640000000  0.4962660000000 1.0
C      1  0.5755720000000  0.5698150000000  0.5288960000000 1.0
C      1  0.3966790000000  0.4699230000000  0.5339760000000 1.0
C      1  0.5473810000000  0.5496370000000  0.4320120000000 1.0
C      1  0.4925760000000  0.5884890000000  0.5911950000000 1.0
C      1  0.5196980000000  0.4169580000000  0.5821600000000 1.0
C      1  0.4710360000000  0.4791710000000  0.5350090000000 1.0
C      1  0.5693590000000  0.5705550000000  0.4975500000000 1.0
C      1  0.5390680000000  0.4265070000000  0.4859150000000 1.0
C      1  0.5104800000000  0.5795240000000  0.4627600000000 1.0
C      1  0.4875910000000  0.4239310000000  0.4196370000000 1.0
C      1  0.5312890000000  0.5468440000000  0.3662290000000 1.0
C      1  0.5433050000000  0.5345410000000  0.5412990000000 1.0
C      1  0.5686870000000  0.5398050000000  0.4499280000000 1.0
C      1  0.5431970000000  0.4870220000000  0.5125900000000 1.0
C      1  0.4361170000000  0.5363180000000  0.5551360000000 1.0
C      1  0.3786290000000  0.4464510000000  0.4426400000000 1.0
C      1  0.4069980000000  0.5194540000000  0.5202870000000 1.0
C      1  0.4779310000000  0.5021600000000  0.4855020000000 1.0
C      1  0.4881290000000  0.5392710000000  0.5631870000000 1.0
C      1  0.4391450000000  0.4139860000000  0.4424410000000 1.0
C      1  0.5190580000000  0.3991590000000  0.5586250000000 1.0
C      1  0.6051100000000  0.4945640000000  0.5318440000000 1.0
C      1  0.6046350000000  0.4622050000000  0.4606920000000 1.0
C      1  0.4451130000000  0.6170990000000  0.5568260000000 1.0
C      1  0.5643370000000  0.5236670000000  0.4977830000000 1.0
C      1  0.6061240000000  0.5267030000000  0.5245020000000 1.0
C      1  0.4730020000000  0.5467350000000  0.6147420000000 1.0
END
