TITL C-599895-9959-284 31906.4557256282 125000 -694.38031743638 0 0 115 (C1) n - 1
REM
REM in /home/nfs/bkarasulu/CARBON/AIRSS/Generating-Clusters/TERSOFF/Only-C1/FIRE-HFTN
REM
REM
REM
REM
REM
REM ./C.cell (11c1c37f851c82e70ff6c80c92926a4b)
REM AIRSS Version 0.9.1 bugfix July 2018 build 013d7b7c2542+ Fri, 06 Jul 2018 19:26:36 +0100
REM compiler GCC version 9.2.1 20190827 (Red Hat 9.2.1-1)
REM options -cpp -mtune=generic -march=x86-64 -g -O0 -fpre-include=/usr/include/finclude/math-vector-fortran.h
REM seed 649378607 1711869194 -123435974 1496336364 -785373662 960801199 1054066981 1886547930 1918415015 183503258 1022396270 1444177261 507886629 1042002842 -819896978 -631189869 1994678872 -702559805 844312970 378184788 -122911605 933375050 -1097829121 1290436743 2120778735 1560280848 849077055 -737418265 -1159129327 -1899643829 -1771414781 -1338998087 -1487248858
REM
CELL 1.54180   50.00000   50.00000   50.00000   90.00000   90.00000   90.00000
LATT -1
SFAC C  
C      1  0.4837700000000  0.4033080000000  0.4523820000000 1.0
C      1  0.4331350000000  0.5730080000000  0.5715420000000 1.0
C      1  0.4135790000000  0.4654710000000  0.5180210000000 1.0
C      1  0.4473360000000  0.5511270000000  0.4311860000000 1.0
C      1  0.4442190000000  0.5813130000000  0.5485570000000 1.0
C      1  0.4738140000000  0.4573650000000  0.4831000000000 1.0
C      1  0.5279640000000  0.4783140000000  0.5445160000000 1.0
C      1  0.4514480000000  0.4782860000000  0.5840330000000 1.0
C      1  0.4389510000000  0.5240210000000  0.4248850000000 1.0
C      1  0.4974960000000  0.5470730000000  0.4770770000000 1.0
C      1  0.3941310000000  0.5041130000000  0.5450520000000 1.0
C      1  0.4855320000000  0.4551090000000  0.5418070000000 1.0
C      1  0.5099390000000  0.5334250000000  0.5415680000000 1.0
C      1  0.4834380000000  0.5517510000000  0.5741310000000 1.0
C      1  0.5757470000000  0.5315140000000  0.5570890000000 1.0
C      1  0.4751410000000  0.4874050000000  0.5931680000000 1.0
C      1  0.5418190000000  0.5713190000000  0.5380820000000 1.0
C      1  0.5445410000000  0.5018090000000  0.4767090000000 1.0
C      1  0.5201630000000  0.5382450000000  0.5166380000000 1.0
C      1  0.4991720000000  0.4792030000000  0.5426880000000 1.0
C      1  0.5153330000000  0.5811900000000  0.5498830000000 1.0
C      1  0.5379220000000  0.5013680000000  0.4262410000000 1.0
C      1  0.4628200000000  0.5801830000000  0.4754570000000 1.0
C      1  0.5071430000000  0.5275570000000  0.4948070000000 1.0
C      1  0.5530960000000  0.5496670000000  0.5557570000000 1.0
C      1  0.4543520000000  0.4726310000000  0.3541630000000 1.0
C      1  0.5746160000000  0.5153040000000  0.5807350000000 1.0
C      1  0.4704790000000  0.3990200000000  0.5531810000000 1.0
C      1  0.3999350000000  0.5001620000000  0.4778030000000 1.0
C      1  0.4924270000000  0.5759030000000  0.4743500000000 1.0
C      1  0.4444770000000  0.4632390000000  0.4273360000000 1.0
C      1  0.4921670000000  0.5101800000000  0.5944950000000 1.0
C      1  0.4817940000000  0.4085770000000  0.5057720000000 1.0
C      1  0.4754350000000  0.5475380000000  0.4356150000000 1.0
C      1  0.4197050000000  0.5491920000000  0.4713690000000 1.0
C      1  0.6171820000000  0.4830000000000  0.5155780000000 1.0
C      1  0.5716070000000  0.4219710000000  0.6059410000000 1.0
C      1  0.4516330000000  0.5416590000000  0.6066280000000 1.0
C      1  0.4458100000000  0.4309020000000  0.5294930000000 1.0
C      1  0.5264240000000  0.5385060000000  0.5674420000000 1.0
C      1  0.4468540000000  0.4126330000000  0.5511070000000 1.0
C      1  0.4187150000000  0.4874320000000  0.5408170000000 1.0
C      1  0.4770840000000  0.5351820000000  0.5963020000000 1.0
C      1  0.4762580000000  0.5369570000000  0.4623450000000 1.0
C      1  0.4545320000000  0.4199820000000  0.5032960000000 1.0
C      1  0.4559730000000  0.4988970000000  0.4804390000000 1.0
C      1  0.5848140000000  0.5297500000000  0.4886480000000 1.0
C      1  0.4670570000000  0.4458180000000  0.4343460000000 1.0
C      1  0.5158030000000  0.4370210000000  0.4461750000000 1.0
C      1  0.6044070000000  0.4630010000000  0.5000490000000 1.0
C      1  0.4603520000000  0.5043370000000  0.4231250000000 1.0
C      1  0.4304630000000  0.4774790000000  0.5671290000000 1.0
C      1  0.6041860000000  0.4915100000000  0.5404740000000 1.0
C      1  0.4368800000000  0.5661900000000  0.4534580000000 1.0
C      1  0.4423600000000  0.5033590000000  0.5288090000000 1.0
C      1  0.5594950000000  0.5821810000000  0.4455700000000 1.0
C      1  0.4956170000000  0.5528220000000  0.4183430000000 1.0
C      1  0.5719030000000  0.5416860000000  0.4192680000000 1.0
C      1  0.4389920000000  0.5458530000000  0.4936910000000 1.0
C      1  0.4227310000000  0.4575330000000  0.4906590000000 1.0
C      1  0.4880570000000  0.4988650000000  0.5267790000000 1.0
C      1  0.4650240000000  0.4176110000000  0.4385510000000 1.0
C      1  0.4489450000000  0.4429980000000  0.4864000000000 1.0
C      1  0.5577570000000  0.5292030000000  0.4801430000000 1.0
C      1  0.5385870000000  0.5594170000000  0.5119740000000 1.0
C      1  0.4975150000000  0.5009890000000  0.5000640000000 1.0
C      1  0.5063280000000  0.4168550000000  0.4639660000000 1.0
C      1  0.5767280000000  0.4441550000000  0.5932580000000 1.0
C      1  0.4664930000000  0.5158650000000  0.5374490000000 1.0
C      1  0.5665040000000  0.4418290000000  0.4279830000000 1.0
C      1  0.5621580000000  0.4896600000000  0.5808140000000 1.0
C      1  0.5798120000000  0.4677810000000  0.5791030000000 1.0
C      1  0.5162660000000  0.5898620000000  0.4689060000000 1.0
C      1  0.4909910000000  0.5867800000000  0.5340630000000 1.0
C      1  0.5193340000000  0.5118630000000  0.5818160000000 1.0
C      1  0.5274570000000  0.4961580000000  0.4525640000000 1.0
C      1  0.5599560000000  0.5180850000000  0.4219910000000 1.0
C      1  0.5478220000000  0.5566510000000  0.4853020000000 1.0
C      1  0.5775690000000  0.4682290000000  0.4929140000000 1.0
C      1  0.5903080000000  0.4490630000000  0.4202040000000 1.0
C      1  0.4813500000000  0.5368040000000  0.5490040000000 1.0
C      1  0.4527720000000  0.5709180000000  0.5016500000000 1.0
C      1  0.5416200000000  0.4376600000000  0.4360840000000 1.0
C      1  0.6171830000000  0.4401100000000  0.4925470000000 1.0
C      1  0.4534680000000  0.4818900000000  0.4068670000000 1.0
C      1  0.5098940000000  0.5643730000000  0.5744020000000 1.0
C      1  0.6005550000000  0.4728250000000  0.5609400000000 1.0
C      1  0.4943520000000  0.4777990000000  0.4831560000000 1.0
C      1  0.4123130000000  0.4745080000000  0.4698770000000 1.0
C      1  0.4629410000000  0.5807310000000  0.5270380000000 1.0
C      1  0.5203990000000  0.4387530000000  0.5130910000000 1.0
C      1  0.5030590000000  0.4327630000000  0.5369970000000 1.0
C      1  0.5062660000000  0.4207210000000  0.4922700000000 1.0
C      1  0.6026510000000  0.5265710000000  0.5097870000000 1.0
C      1  0.4516330000000  0.4851190000000  0.5078400000000 1.0
C      1  0.5358340000000  0.4899570000000  0.5703580000000 1.0
C      1  0.4540760000000  0.4783660000000  0.3795840000000 1.0
C      1  0.4950970000000  0.4562050000000  0.4395860000000 1.0
C      1  0.5253850000000  0.4906560000000  0.4036170000000 1.0
C      1  0.5511930000000  0.4789490000000  0.4959720000000 1.0
C      1  0.4722000000000  0.4962530000000  0.4482280000000 1.0
C      1  0.4901880000000  0.4069330000000  0.5344210000000 1.0
C      1  0.4230030000000  0.4766540000000  0.4432840000000 1.0
C      1  0.6241530000000  0.5082130000000  0.5035240000000 1.0
C      1  0.5931580000000  0.5197430000000  0.5370350000000 1.0
C      1  0.4991920000000  0.4833050000000  0.4536600000000 1.0
C      1  0.5172440000000  0.4836350000000  0.3798800000000 1.0
C      1  0.4175120000000  0.5113310000000  0.4378120000000 1.0
C      1  0.4073080000000  0.5237930000000  0.4622960000000 1.0
C      1  0.5716900000000  0.5671760000000  0.4271260000000 1.0
C      1  0.4567380000000  0.5265870000000  0.4814530000000 1.0
C      1  0.5356840000000  0.4651790000000  0.5175210000000 1.0
C      1  0.5422250000000  0.5780680000000  0.4671410000000 1.0
C      1  0.4596730000000  0.4567200000000  0.5293240000000 1.0
C      1  0.4342090000000  0.5582600000000  0.5940570000000 1.0
END
