TITL C-599891-72-888 0.0170829795833023 125000 -216.127952033302 0 0 36 (C1) n - 1
REM
REM in /home/nfs/bkarasulu/CARBON/AIRSS/Generating-Clusters/TERSOFF/Only-C1/FIRE-HFTN
REM
REM
REM
REM
REM
REM ./C.cell (11c1c37f851c82e70ff6c80c92926a4b)
REM AIRSS Version 0.9.1 bugfix July 2018 build 013d7b7c2542+ Fri, 06 Jul 2018 19:26:36 +0100
REM compiler GCC version 9.2.1 20190827 (Red Hat 9.2.1-1)
REM options -cpp -mtune=generic -march=x86-64 -g -O0 -fpre-include=/usr/include/finclude/math-vector-fortran.h
REM seed 189037611 888955004 -549484130 763272445 -1582490330 75141706 2052323435 1440093835 1430115298 -423921622 -1854008707 -814147469 707751170 -804169059 1649773562 871081992 886820502 -1449318608 735606354 -1846388206 166649394 -1125611495 -1306429550 -1115889756 490430113 -1395456067 -968148146 -1708117724 178738417 -1020800176 1050810673 -941224114 -1751379489
REM
CELL 1.54180   50.00000   50.00000   50.00000   90.00000   90.00000   90.00000
LATT -1
SFAC C  
C      1  0.4603110000000  0.4811490000000  0.5518660000000 1.0
C      1  0.4942670000000  0.5244600000000  0.4645150000000 1.0
C      1  0.4530690000000  0.4551830000000  0.5430890000000 1.0
C      1  0.5237900000000  0.4404750000000  0.4881560000000 1.0
C      1  0.4928830000000  0.4938500000000  0.5015190000000 1.0
C      1  0.5370140000000  0.5315550000000  0.4853570000000 1.0
C      1  0.5290660000000  0.6319200000000  0.4115740000000 1.0
C      1  0.5233450000000  0.4606680000000  0.5722360000000 1.0
C      1  0.5313880000000  0.4688500000000  0.5229660000000 1.0
C      1  0.5523020000000  0.5081230000000  0.4799180000000 1.0
C      1  0.4784910000000  0.4594530000000  0.4510990000000 1.0
C      1  0.5440150000000  0.4601020000000  0.4977230000000 1.0
C      1  0.4972680000000  0.4463360000000  0.4993680000000 1.0
C      1  0.4916880000000  0.5138290000000  0.5692020000000 1.0
C      1  0.5002480000000  0.4976430000000  0.4734400000000 1.0
C      1  0.4551880000000  0.5013730000000  0.5326450000000 1.0
C      1  0.5231640000000  0.5394220000000  0.5363080000000 1.0
C      1  0.4653760000000  0.5264270000000  0.4655360000000 1.0
C      1  0.4518470000000  0.5072410000000  0.4827710000000 1.0
C      1  0.5037070000000  0.4712750000000  0.5144300000000 1.0
C      1  0.5344930000000  0.5399740000000  0.5121660000000 1.0
C      1  0.5261710000000  0.6097400000000  0.4249660000000 1.0
C      1  0.5170380000000  0.5411920000000  0.4666720000000 1.0
C      1  0.4426140000000  0.4814720000000  0.4737180000000 1.0
C      1  0.4989400000000  0.4771070000000  0.4539800000000 1.0
C      1  0.5232280000000  0.5871900000000  0.4385820000000 1.0
C      1  0.4987840000000  0.4679800000000  0.5803830000000 1.0
C      1  0.5556290000000  0.4814780000000  0.4832680000000 1.0
C      1  0.5202730000000  0.5646730000000  0.4522110000000 1.0
C      1  0.4688210000000  0.4438500000000  0.4954280000000 1.0
C      1  0.5374590000000  0.4639070000000  0.5496380000000 1.0
C      1  0.4811370000000  0.4875280000000  0.5703990000000 1.0
C      1  0.5075880000000  0.5309370000000  0.5562260000000 1.0
C      1  0.4587950000000  0.4575390000000  0.4717090000000 1.0
C      1  0.4539790000000  0.4418700000000  0.5195330000000 1.0
C      1  0.4666240000000  0.5042270000000  0.5074060000000 1.0
END
