TITL C-599890-3321-1476 0.23046402306936 125000 -408.318386030826 0 0 68 (C1) n - 1
REM
REM in /home/nfs/bkarasulu/CARBON/AIRSS/Generating-Clusters/TERSOFF/Only-C1/FIRE-HFTN
REM
REM
REM
REM
REM
REM ./C.cell (11c1c37f851c82e70ff6c80c92926a4b)
REM AIRSS Version 0.9.1 bugfix July 2018 build 013d7b7c2542+ Fri, 06 Jul 2018 19:26:36 +0100
REM compiler GCC version 9.2.1 20190827 (Red Hat 9.2.1-1)
REM options -cpp -mtune=generic -march=x86-64 -g -O0 -fpre-include=/usr/include/finclude/math-vector-fortran.h
REM seed 501541665 1013596385 -1143668424 2103565570 -1388941315 298542267 -323335261 1345281694 1780322188 266762213 -637949489 -1866079323 485210507 -1472128496 -1448214910 358337961 675661659 -430121721 -1050877520 -527831675 1297395397 1825893782 -1140776514 -614673180 -880108108 2142643125 264880984 -1228615933 -1383178609 -1610721457 -1038716285 23391033 -882925794
REM
CELL 1.54180   50.00000   50.00000   50.00000   90.00000   90.00000   90.00000
LATT -1
SFAC C  
C      1  0.4624480000000  0.3648980000000  0.4766280000000 1.0
C      1  0.4865860000000  0.5436000000000  0.5627980000000 1.0
C      1  0.4349470000000  0.5216180000000  0.4667260000000 1.0
C      1  0.5327400000000  0.5236010000000  0.4196620000000 1.0
C      1  0.5542290000000  0.5238320000000  0.4375420000000 1.0
C      1  0.5643530000000  0.4907810000000  0.4768430000000 1.0
C      1  0.5210410000000  0.4790140000000  0.4929740000000 1.0
C      1  0.4175440000000  0.5271440000000  0.4466300000000 1.0
C      1  0.5534830000000  0.4441470000000  0.4781000000000 1.0
C      1  0.4965100000000  0.5504170000000  0.4448590000000 1.0
C      1  0.4927990000000  0.4662280000000  0.4060070000000 1.0
C      1  0.4971140000000  0.5154190000000  0.4761490000000 1.0
C      1  0.4323670000000  0.4551360000000  0.4593950000000 1.0
C      1  0.4792650000000  0.3729910000000  0.4966640000000 1.0
C      1  0.4879610000000  0.5170980000000  0.4082410000000 1.0
C      1  0.4353030000000  0.4976740000000  0.4821460000000 1.0
C      1  0.4809800000000  0.5907190000000  0.5751800000000 1.0
C      1  0.4749090000000  0.5665560000000  0.5118940000000 1.0
C      1  0.5211740000000  0.5281280000000  0.4836420000000 1.0
C      1  0.4938880000000  0.4268670000000  0.4967900000000 1.0
C      1  0.4636730000000  0.5297040000000  0.5709190000000 1.0
C      1  0.4634760000000  0.4821370000000  0.5851900000000 1.0
C      1  0.4873220000000  0.3997480000000  0.4979660000000 1.0
C      1  0.5375860000000  0.5644790000000  0.5070760000000 1.0
C      1  0.4896470000000  0.4350450000000  0.4472660000000 1.0
C      1  0.5169740000000  0.4591340000000  0.5358750000000 1.0
C      1  0.4855350000000  0.4422310000000  0.4741870000000 1.0
C      1  0.4180840000000  0.4376650000000  0.4463600000000 1.0
C      1  0.5871930000000  0.4611000000000  0.5067610000000 1.0
C      1  0.5753610000000  0.4869910000000  0.5036870000000 1.0
C      1  0.5083530000000  0.4385390000000  0.5181350000000 1.0
C      1  0.4853170000000  0.4659240000000  0.5782980000000 1.0
C      1  0.5279340000000  0.4848000000000  0.5226700000000 1.0
C      1  0.5055020000000  0.4601010000000  0.5617020000000 1.0
C      1  0.4681640000000  0.5097220000000  0.5909850000000 1.0
C      1  0.5663990000000  0.5104250000000  0.4572710000000 1.0
C      1  0.5057050000000  0.5358170000000  0.4222380000000 1.0
C      1  0.5061440000000  0.5271090000000  0.5513860000000 1.0
C      1  0.5569110000000  0.5461730000000  0.5174480000000 1.0
C      1  0.5756580000000  0.4398940000000  0.4937000000000 1.0
C      1  0.5526310000000  0.5777790000000  0.5677090000000 1.0
C      1  0.5012700000000  0.4922480000000  0.4010390000000 1.0
C      1  0.5672990000000  0.5304520000000  0.5608940000000 1.0
C      1  0.5145950000000  0.5675040000000  0.4595730000000 1.0
C      1  0.4960320000000  0.4882020000000  0.4823300000000 1.0
C      1  0.4375600000000  0.4792690000000  0.5736090000000 1.0
C      1  0.4871620000000  0.5712040000000  0.5572620000000 1.0
C      1  0.5429590000000  0.4707120000000  0.4764310000000 1.0
C      1  0.5291350000000  0.4998760000000  0.4032610000000 1.0
C      1  0.4446750000000  0.5265310000000  0.5230340000000 1.0
C      1  0.5618080000000  0.5235360000000  0.5340790000000 1.0
C      1  0.5636540000000  0.5539670000000  0.5736340000000 1.0
C      1  0.4944100000000  0.5762300000000  0.5299710000000 1.0
C      1  0.4340450000000  0.5035850000000  0.5094920000000 1.0
C      1  0.4882800000000  0.3552060000000  0.5154260000000 1.0
C      1  0.4430940000000  0.5232900000000  0.5516020000000 1.0
C      1  0.4478330000000  0.4739840000000  0.4731230000000 1.0
C      1  0.4908200000000  0.4454030000000  0.4226170000000 1.0
C      1  0.5377710000000  0.5891390000000  0.5483560000000 1.0
C      1  0.5227390000000  0.5801160000000  0.5259550000000 1.0
C      1  0.5265800000000  0.5559870000000  0.4827230000000 1.0
C      1  0.5120180000000  0.5071690000000  0.5350020000000 1.0
C      1  0.4271230000000  0.5006820000000  0.5601090000000 1.0
C      1  0.4756520000000  0.4690310000000  0.4777520000000 1.0
C      1  0.5572280000000  0.4969070000000  0.5239010000000 1.0
C      1  0.4568860000000  0.5459220000000  0.5044360000000 1.0
C      1  0.4804420000000  0.5344200000000  0.4629140000000 1.0
C      1  0.4557210000000  0.5390430000000  0.4757710000000 1.0
END
