TITL C-599893-4344-730 229.587291862488 125000 -900.978936110059 0 0 146 (C1) n - 1
REM
REM in /home/nfs/bkarasulu/CARBON/AIRSS/Generating-Clusters/TERSOFF/Only-C1/FIRE-HFTN
REM
REM
REM
REM
REM
REM ./C.cell (11c1c37f851c82e70ff6c80c92926a4b)
REM AIRSS Version 0.9.1 bugfix July 2018 build 013d7b7c2542+ Fri, 06 Jul 2018 19:26:36 +0100
REM compiler GCC version 9.2.1 20190827 (Red Hat 9.2.1-1)
REM options -cpp -mtune=generic -march=x86-64 -g -O0 -fpre-include=/usr/include/finclude/math-vector-fortran.h
REM seed 1991647169 -2063602582 -2022503232 -1276359600 -1002407292 1270364834 1309897 730092585 178328407 -620200222 973282964 -2015548556 1131685075 -1628283897 1625322040 1868859071 834073018 326734604 1347744821 -110447044 -829769974 1536380414 529229 -1711866289 -113150145 -202650813 1873540098 331510373 -1514979613 1174391208 -1961192642 1971466600 -1786237246
REM
CELL 1.54180   50.00000   50.00000   50.00000   90.00000   90.00000   90.00000
LATT -1
SFAC C  
C      1  0.4859610000000  0.3941760000000  0.4531940000000 1.0
C      1  0.4102320000000  0.5524660000000  0.5421210000000 1.0
C      1  0.4414860000000  0.4755520000000  0.5027380000000 1.0
C      1  0.4925650000000  0.5600450000000  0.5649500000000 1.0
C      1  0.4323940000000  0.5520620000000  0.5599450000000 1.0
C      1  0.4397290000000  0.4189270000000  0.5770080000000 1.0
C      1  0.6012710000000  0.5514690000000  0.4370280000000 1.0
C      1  0.4289690000000  0.4266510000000  0.5269150000000 1.0
C      1  0.5883030000000  0.5108610000000  0.4139440000000 1.0
C      1  0.5298520000000  0.5127050000000  0.5314620000000 1.0
C      1  0.5962590000000  0.4446230000000  0.5082750000000 1.0
C      1  0.3662790000000  0.4261320000000  0.4853970000000 1.0
C      1  0.4788090000000  0.6039650000000  0.5046650000000 1.0
C      1  0.5103430000000  0.5244020000000  0.4001250000000 1.0
C      1  0.4844550000000  0.5519570000000  0.4883170000000 1.0
C      1  0.5257100000000  0.5997750000000  0.4878640000000 1.0
C      1  0.4904720000000  0.4667280000000  0.5794570000000 1.0
C      1  0.4880030000000  0.4737860000000  0.5332120000000 1.0
C      1  0.5356340000000  0.4684150000000  0.4659540000000 1.0
C      1  0.5500140000000  0.4121130000000  0.5312900000000 1.0
C      1  0.4297930000000  0.4754810000000  0.4737810000000 1.0
C      1  0.4604640000000  0.6107030000000  0.4834850000000 1.0
C      1  0.5391600000000  0.5615130000000  0.4000450000000 1.0
C      1  0.5551190000000  0.5254700000000  0.4612970000000 1.0
C      1  0.4712730000000  0.4001700000000  0.5275410000000 1.0
C      1  0.5725660000000  0.4715600000000  0.5607800000000 1.0
C      1  0.5981830000000  0.5177870000000  0.5199680000000 1.0
C      1  0.4203520000000  0.5248540000000  0.4506190000000 1.0
C      1  0.4691580000000  0.4260050000000  0.4846260000000 1.0
C      1  0.5161670000000  0.4888130000000  0.4651140000000 1.0
C      1  0.5360970000000  0.5421530000000  0.4536100000000 1.0
C      1  0.4758960000000  0.5296990000000  0.4470030000000 1.0
C      1  0.5455610000000  0.4918740000000  0.4077790000000 1.0
C      1  0.4525130000000  0.5838160000000  0.4409940000000 1.0
C      1  0.4610130000000  0.4829460000000  0.4253000000000 1.0
C      1  0.5406300000000  0.5630520000000  0.5647600000000 1.0
C      1  0.5530860000000  0.5934670000000  0.4521280000000 1.0
C      1  0.5737200000000  0.4656180000000  0.4358620000000 1.0
C      1  0.5536370000000  0.5292590000000  0.5347060000000 1.0
C      1  0.5417100000000  0.4233660000000  0.4068890000000 1.0
C      1  0.5165760000000  0.5595610000000  0.5802140000000 1.0
C      1  0.5722400000000  0.4878630000000  0.4172700000000 1.0
C      1  0.4995760000000  0.5394320000000  0.5063610000000 1.0
C      1  0.6054230000000  0.4958120000000  0.5041270000000 1.0
C      1  0.6093890000000  0.4694310000000  0.5131680000000 1.0
C      1  0.5802170000000  0.4436690000000  0.5583200000000 1.0
C      1  0.4237960000000  0.4976800000000  0.5153040000000 1.0
C      1  0.5861620000000  0.5392010000000  0.4165350000000 1.0
C      1  0.4900570000000  0.4178570000000  0.5663470000000 1.0
C      1  0.4873640000000  0.4528730000000  0.4510660000000 1.0
C      1  0.4785200000000  0.5029320000000  0.4375280000000 1.0
C      1  0.4587870000000  0.5236720000000  0.5240590000000 1.0
C      1  0.4999680000000  0.5210620000000  0.6091210000000 1.0
C      1  0.5058740000000  0.4719570000000  0.5550290000000 1.0
C      1  0.4378240000000  0.4519060000000  0.4595020000000 1.0
C      1  0.5646820000000  0.5536010000000  0.4044200000000 1.0
C      1  0.5529320000000  0.4067950000000  0.4849700000000 1.0
C      1  0.5573240000000  0.5400710000000  0.5614110000000 1.0
C      1  0.3962510000000  0.5273320000000  0.5420950000000 1.0
C      1  0.4195870000000  0.4985930000000  0.4610300000000 1.0
C      1  0.5665830000000  0.4945550000000  0.5796020000000 1.0
C      1  0.4822610000000  0.4514170000000  0.4792230000000 1.0
C      1  0.5120300000000  0.5527110000000  0.4005420000000 1.0
C      1  0.5066780000000  0.6019890000000  0.5078360000000 1.0
C      1  0.5470450000000  0.4653470000000  0.5144420000000 1.0
C      1  0.4658690000000  0.4805890000000  0.5732700000000 1.0
C      1  0.5587690000000  0.5821240000000  0.5202140000000 1.0
C      1  0.4746910000000  0.4488380000000  0.5297430000000 1.0
C      1  0.4758420000000  0.5070750000000  0.5631280000000 1.0
C      1  0.4265690000000  0.5310840000000  0.4234510000000 1.0
C      1  0.4750650000000  0.5007950000000  0.5331970000000 1.0
C      1  0.4190450000000  0.4273890000000  0.4980290000000 1.0
C      1  0.4405760000000  0.4295360000000  0.4784150000000 1.0
C      1  0.4091120000000  0.5015440000000  0.5402300000000 1.0
C      1  0.5171340000000  0.4113890000000  0.5702030000000 1.0
C      1  0.5736960000000  0.5226110000000  0.5774300000000 1.0
C      1  0.5134270000000  0.5458800000000  0.6047090000000 1.0
C      1  0.5089780000000  0.3984310000000  0.4988190000000 1.0
C      1  0.4428720000000  0.5483470000000  0.4102640000000 1.0
C      1  0.5980220000000  0.4997960000000  0.4773320000000 1.0
C      1  0.4307990000000  0.5713530000000  0.4549850000000 1.0
C      1  0.4448970000000  0.4545430000000  0.5282690000000 1.0
C      1  0.5643750000000  0.4252530000000  0.5740870000000 1.0
C      1  0.4881120000000  0.5673980000000  0.4066650000000 1.0
C      1  0.4867480000000  0.4031470000000  0.4806530000000 1.0
C      1  0.4421290000000  0.4718330000000  0.5586920000000 1.0
C      1  0.4649800000000  0.5892310000000  0.5276310000000 1.0
C      1  0.4896800000000  0.5506600000000  0.4608580000000 1.0
C      1  0.5128450000000  0.5904780000000  0.5336730000000 1.0
C      1  0.4342390000000  0.5489310000000  0.5881300000000 1.0
C      1  0.4346970000000  0.6064800000000  0.4961960000000 1.0
C      1  0.5309030000000  0.4381580000000  0.4278930000000 1.0
C      1  0.5042700000000  0.4346800000000  0.4359620000000 1.0
C      1  0.5529880000000  0.5996650000000  0.4975710000000 1.0
C      1  0.4248770000000  0.5030190000000  0.5894200000000 1.0
C      1  0.4188570000000  0.5646260000000  0.5170200000000 1.0
C      1  0.4700540000000  0.5208310000000  0.6104030000000 1.0
C      1  0.4592300000000  0.4547760000000  0.4374450000000 1.0
C      1  0.5164940000000  0.4977180000000  0.6025880000000 1.0
C      1  0.5289350000000  0.4900070000000  0.5522530000000 1.0
C      1  0.5767260000000  0.5108480000000  0.4657800000000 1.0
C      1  0.5513400000000  0.4737390000000  0.5407440000000 1.0
C      1  0.4551660000000  0.5421670000000  0.5461380000000 1.0
C      1  0.4223500000000  0.5478090000000  0.4680710000000 1.0
C      1  0.4854420000000  0.4124270000000  0.4310980000000 1.0
C      1  0.5389450000000  0.5806170000000  0.5411590000000 1.0
C      1  0.4611270000000  0.4274120000000  0.4225190000000 1.0
C      1  0.4207730000000  0.4896260000000  0.5639180000000 1.0
C      1  0.5465430000000  0.4571320000000  0.4419830000000 1.0
C      1  0.4242080000000  0.5451200000000  0.4961990000000 1.0
C      1  0.4447570000000  0.3999720000000  0.5243670000000 1.0
C      1  0.5524220000000  0.4099680000000  0.3872730000000 1.0
C      1  0.5710300000000  0.5939100000000  0.4747820000000 1.0
C      1  0.5874680000000  0.5715630000000  0.4828290000000 1.0
C      1  0.5778300000000  0.5622530000000  0.5089240000000 1.0
C      1  0.5368490000000  0.4965730000000  0.5817660000000 1.0
C      1  0.5115070000000  0.5140670000000  0.5090570000000 1.0
C      1  0.5157010000000  0.5615370000000  0.4550770000000 1.0
C      1  0.5362560000000  0.4025020000000  0.5074450000000 1.0
C      1  0.5764480000000  0.5357150000000  0.5188810000000 1.0
C      1  0.5800470000000  0.4321580000000  0.5301420000000 1.0
C      1  0.4367670000000  0.5220170000000  0.5066700000000 1.0
C      1  0.5616030000000  0.4328200000000  0.4816390000000 1.0
C      1  0.3409770000000  0.4268190000000  0.4791580000000 1.0
C      1  0.4423370000000  0.5238540000000  0.5999600000000 1.0
C      1  0.4492000000000  0.4871180000000  0.4008870000000 1.0
C      1  0.6026030000000  0.5597640000000  0.4624950000000 1.0
C      1  0.4772450000000  0.4763980000000  0.4917540000000 1.0
C      1  0.5254380000000  0.5879670000000  0.4608380000000 1.0
C      1  0.4615200000000  0.5690660000000  0.4174720000000 1.0
C      1  0.4218390000000  0.4238860000000  0.5567660000000 1.0
C      1  0.5065010000000  0.4961360000000  0.4388860000000 1.0
C      1  0.5449160000000  0.4550460000000  0.4887020000000 1.0
C      1  0.4364040000000  0.5874510000000  0.5181420000000 1.0
C      1  0.5008840000000  0.4941500000000  0.4897460000000 1.0
C      1  0.5430840000000  0.4127510000000  0.5593730000000 1.0
C      1  0.4772240000000  0.5363480000000  0.5634270000000 1.0
C      1  0.4663840000000  0.4162720000000  0.5823440000000 1.0
C      1  0.5887510000000  0.4408920000000  0.4798500000000 1.0
C      1  0.4638250000000  0.6050030000000  0.4560100000000 1.0
C      1  0.4832580000000  0.4229800000000  0.5390130000000 1.0
C      1  0.5206640000000  0.5025480000000  0.4148450000000 1.0
C      1  0.3920040000000  0.4257150000000  0.4917010000000 1.0
C      1  0.5027780000000  0.4729080000000  0.6037920000000 1.0
C      1  0.5932480000000  0.4543320000000  0.4544070000000 1.0
C      1  0.4878520000000  0.5806980000000  0.5454730000000 1.0
END
