TITL C-599896-8500-913 -0.306566737831273 125000 -856.5289332669 0 0 140 (C1) n - 1
REM
REM in /home/nfs/bkarasulu/CARBON/AIRSS/Generating-Clusters/TERSOFF/Only-C1/FIRE-HFTN
REM
REM
REM
REM
REM
REM ./C.cell (11c1c37f851c82e70ff6c80c92926a4b)
REM AIRSS Version 0.9.1 bugfix July 2018 build 013d7b7c2542+ Fri, 06 Jul 2018 19:26:36 +0100
REM compiler GCC version 9.2.1 20190827 (Red Hat 9.2.1-1)
REM options -cpp -mtune=generic -march=x86-64 -g -O0 -fpre-include=/usr/include/finclude/math-vector-fortran.h
REM seed -1148599204 -1888176868 -136998495 2126915965 689232087 4692122 691607416 2139447787 989687396 344716460 2067349596 -325586825 275033243 333546963 468772173 1371174199 27250882 769339846 805479258 1680366685 -537279615 2123446458 2076405997 -1184541777 -1426800144 -88750785 -788697008 1612676443 177079016 -1751916270 -2053383323 954314809 -1580068018
REM
CELL 1.54180   50.00000   50.00000   50.00000   90.00000   90.00000   90.00000
LATT -1
SFAC C  
C      1  0.5645290000000  0.4014920000000  0.5433600000000 1.0
C      1  0.5564770000000  0.4200120000000  0.4369740000000 1.0
C      1  0.5246890000000  0.4440980000000  0.5666140000000 1.0
C      1  0.4753160000000  0.4575180000000  0.5158240000000 1.0
C      1  0.3842850000000  0.4876110000000  0.5497710000000 1.0
C      1  0.4690770000000  0.4695150000000  0.6008370000000 1.0
C      1  0.5166720000000  0.4959980000000  0.5192330000000 1.0
C      1  0.5944620000000  0.4008270000000  0.5029990000000 1.0
C      1  0.5349570000000  0.4157690000000  0.4545990000000 1.0
C      1  0.4670250000000  0.5047720000000  0.4183960000000 1.0
C      1  0.4407350000000  0.5479240000000  0.4190980000000 1.0
C      1  0.5350060000000  0.5347390000000  0.4709730000000 1.0
C      1  0.4721470000000  0.4159310000000  0.4852400000000 1.0
C      1  0.6387880000000  0.4760610000000  0.5059650000000 1.0
C      1  0.4998700000000  0.4724970000000  0.5196500000000 1.0
C      1  0.4796000000000  0.4602150000000  0.4081420000000 1.0
C      1  0.5282640000000  0.5696070000000  0.5238880000000 1.0
C      1  0.6177440000000  0.5695960000000  0.4279060000000 1.0
C      1  0.4897740000000  0.4130170000000  0.5500660000000 1.0
C      1  0.5174880000000  0.3689220000000  0.5108210000000 1.0
C      1  0.4502440000000  0.4008550000000  0.4935400000000 1.0
C      1  0.5647800000000  0.4992960000000  0.4758390000000 1.0
C      1  0.4880950000000  0.6126420000000  0.4706770000000 1.0
C      1  0.5872850000000  0.4840690000000  0.5667670000000 1.0
C      1  0.4739430000000  0.4970880000000  0.4657660000000 1.0
C      1  0.4506370000000  0.4558380000000  0.4135800000000 1.0
C      1  0.5126010000000  0.3974010000000  0.4632150000000 1.0
C      1  0.5822520000000  0.5409440000000  0.4564700000000 1.0
C      1  0.4824700000000  0.6375560000000  0.5518430000000 1.0
C      1  0.5289940000000  0.6253830000000  0.5600780000000 1.0
C      1  0.4497350000000  0.5805460000000  0.4560200000000 1.0
C      1  0.5042640000000  0.4902950000000  0.5742460000000 1.0
C      1  0.5391600000000  0.5068530000000  0.4653570000000 1.0
C      1  0.5550260000000  0.5790230000000  0.4725000000000 1.0
C      1  0.5458790000000  0.4606430000000  0.5294980000000 1.0
C      1  0.4006120000000  0.5221130000000  0.4083150000000 1.0
C      1  0.5988440000000  0.4339020000000  0.4649710000000 1.0
C      1  0.5061420000000  0.5216580000000  0.5319370000000 1.0
C      1  0.4598520000000  0.6051290000000  0.4670880000000 1.0
C      1  0.5503540000000  0.4461390000000  0.5531030000000 1.0
C      1  0.5167740000000  0.5901230000000  0.4326640000000 1.0
C      1  0.4903100000000  0.5805310000000  0.4294850000000 1.0
C      1  0.4502610000000  0.5148000000000  0.5340570000000 1.0
C      1  0.5094840000000  0.4323610000000  0.5447690000000 1.0
C      1  0.5575670000000  0.5520820000000  0.4656980000000 1.0
C      1  0.4958820000000  0.4580830000000  0.6079770000000 1.0
C      1  0.5198600000000  0.3743340000000  0.5388190000000 1.0
C      1  0.5160640000000  0.5452400000000  0.5153340000000 1.0
C      1  0.6044740000000  0.4587140000000  0.4771600000000 1.0
C      1  0.6140400000000  0.5186740000000  0.5465220000000 1.0
C      1  0.4557330000000  0.4950190000000  0.4423090000000 1.0
C      1  0.4424000000000  0.6011480000000  0.5549590000000 1.0
C      1  0.4571230000000  0.5135500000000  0.4836410000000 1.0
C      1  0.5247180000000  0.3857920000000  0.4893790000000 1.0
C      1  0.5274330000000  0.5192290000000  0.4101970000000 1.0
C      1  0.4992560000000  0.4556150000000  0.4768000000000 1.0
C      1  0.5673600000000  0.4935340000000  0.5036160000000 1.0
C      1  0.5447390000000  0.4874260000000  0.5191250000000 1.0
C      1  0.4459320000000  0.4414440000000  0.4397790000000 1.0
C      1  0.4417860000000  0.5597010000000  0.4742960000000 1.0
C      1  0.4757660000000  0.4827230000000  0.5757470000000 1.0
C      1  0.4905240000000  0.4364060000000  0.4201130000000 1.0
C      1  0.4401820000000  0.4893400000000  0.5404640000000 1.0
C      1  0.5117910000000  0.5145340000000  0.5613270000000 1.0
C      1  0.5690490000000  0.4254300000000  0.5591010000000 1.0
C      1  0.6053440000000  0.4115210000000  0.4809720000000 1.0
C      1  0.5144000000000  0.6024780000000  0.4595980000000 1.0
C      1  0.4174880000000  0.4434030000000  0.5265740000000 1.0
C      1  0.5469480000000  0.4041780000000  0.4971880000000 1.0
C      1  0.4145880000000  0.5378480000000  0.4257650000000 1.0
C      1  0.5770040000000  0.5728760000000  0.5827090000000 1.0
C      1  0.3939160000000  0.4828160000000  0.5226790000000 1.0
C      1  0.3967240000000  0.4829380000000  0.5742020000000 1.0
C      1  0.4589610000000  0.4742590000000  0.5550270000000 1.0
C      1  0.6009320000000  0.5554120000000  0.4418810000000 1.0
C      1  0.4249750000000  0.5812330000000  0.5533870000000 1.0
C      1  0.4034310000000  0.5453680000000  0.4510270000000 1.0
C      1  0.5195400000000  0.4925120000000  0.4504560000000 1.0
C      1  0.3905060000000  0.4738950000000  0.4944180000000 1.0
C      1  0.4800210000000  0.6643070000000  0.5569700000000 1.0
C      1  0.5977670000000  0.4960300000000  0.5431280000000 1.0
C      1  0.4384260000000  0.6179680000000  0.4813370000000 1.0
C      1  0.4640400000000  0.5320570000000  0.4100020000000 1.0
C      1  0.4754040000000  0.5243030000000  0.5319320000000 1.0
C      1  0.5197450000000  0.4486400000000  0.5198010000000 1.0
C      1  0.4243870000000  0.4076490000000  0.4947840000000 1.0
C      1  0.5148600000000  0.4964670000000  0.4220090000000 1.0
C      1  0.4076000000000  0.4530740000000  0.4806670000000 1.0
C      1  0.5754370000000  0.4660410000000  0.5856250000000 1.0
C      1  0.5479670000000  0.6098280000000  0.5705030000000 1.0
C      1  0.4173130000000  0.4256290000000  0.5484020000000 1.0
C      1  0.4460540000000  0.5749990000000  0.4276550000000 1.0
C      1  0.4852980000000  0.4080740000000  0.4609170000000 1.0
C      1  0.4926890000000  0.6261170000000  0.4956060000000 1.0
C      1  0.4891410000000  0.4872070000000  0.4110790000000 1.0
C      1  0.5224730000000  0.4451880000000  0.4903620000000 1.0
C      1  0.4764280000000  0.4434950000000  0.4912250000000 1.0
C      1  0.5576620000000  0.5837310000000  0.5669080000000 1.0
C      1  0.4265080000000  0.4573890000000  0.4578490000000 1.0
C      1  0.5487030000000  0.4718300000000  0.5964490000000 1.0
C      1  0.4163790000000  0.4757320000000  0.5920400000000 1.0
C      1  0.4888790000000  0.5586750000000  0.4480570000000 1.0
C      1  0.5171080000000  0.5454530000000  0.4059270000000 1.0
C      1  0.5857150000000  0.5136350000000  0.4630650000000 1.0
C      1  0.5247980000000  0.5936780000000  0.5082250000000 1.0
C      1  0.6121620000000  0.4741310000000  0.4997010000000 1.0
C      1  0.5926890000000  0.4877320000000  0.5158140000000 1.0
C      1  0.4885180000000  0.5441500000000  0.3998560000000 1.0
C      1  0.4131140000000  0.5590400000000  0.4739420000000 1.0
C      1  0.4311320000000  0.4859370000000  0.4549020000000 1.0
C      1  0.4073530000000  0.5620810000000  0.5518520000000 1.0
C      1  0.5087400000000  0.6159350000000  0.5165610000000 1.0
C      1  0.4677980000000  0.5877030000000  0.4147090000000 1.0
C      1  0.5305160000000  0.5700390000000  0.4161170000000 1.0
C      1  0.5071580000000  0.6268090000000  0.5426480000000 1.0
C      1  0.4972260000000  0.3861670000000  0.5507490000000 1.0
C      1  0.5828930000000  0.4378370000000  0.5812100000000 1.0
C      1  0.5412740000000  0.4272790000000  0.4807710000000 1.0
C      1  0.6292950000000  0.5397400000000  0.5481440000000 1.0
C      1  0.4882390000000  0.5481520000000  0.4739030000000 1.0
C      1  0.4403940000000  0.4693920000000  0.6040360000000 1.0
C      1  0.4644470000000  0.4507560000000  0.5407830000000 1.0
C      1  0.4607690000000  0.6202370000000  0.5552390000000 1.0
C      1  0.4142380000000  0.6072030000000  0.4879010000000 1.0
C      1  0.4618910000000  0.5412890000000  0.4823990000000 1.0
C      1  0.4975970000000  0.4813990000000  0.4651360000000 1.0
C      1  0.4142050000000  0.4330220000000  0.5000900000000 1.0
C      1  0.4022050000000  0.5829150000000  0.4850350000000 1.0
C      1  0.5811990000000  0.4295680000000  0.4431240000000 1.0
C      1  0.4307710000000  0.5025350000000  0.4789050000000 1.0
C      1  0.4645240000000  0.4244910000000  0.5516250000000 1.0
C      1  0.4726350000000  0.4243110000000  0.4402860000000 1.0
C      1  0.5691460000000  0.4019460000000  0.5149050000000 1.0
C      1  0.4204050000000  0.4723080000000  0.5288130000000 1.0
C      1  0.5193310000000  0.4659510000000  0.5877080000000 1.0
C      1  0.5451400000000  0.3816070000000  0.5501530000000 1.0
C      1  0.5330080000000  0.5943470000000  0.4803590000000 1.0
C      1  0.5126450000000  0.5424160000000  0.4868510000000 1.0
C      1  0.4394930000000  0.4146160000000  0.5591060000000 1.0
C      1  0.5457130000000  0.5697010000000  0.5457600000000 1.0
END
