TITL C-599892-9790-179 69721.9642312566 125000 -619.634542908259 0 0 102 (C1) n - 1
REM
REM in /home/nfs/bkarasulu/CARBON/AIRSS/Generating-Clusters/TERSOFF/Only-C1/FIRE-HFTN
REM
REM
REM
REM
REM
REM ./C.cell (11c1c37f851c82e70ff6c80c92926a4b)
REM AIRSS Version 0.9.1 bugfix July 2018 build 013d7b7c2542+ Fri, 06 Jul 2018 19:26:36 +0100
REM compiler GCC version 9.2.1 20190827 (Red Hat 9.2.1-1)
REM options -cpp -mtune=generic -march=x86-64 -g -O0 -fpre-include=/usr/include/finclude/math-vector-fortran.h
REM seed 1040693103 76648991 474303712 956705473 -830765591 -311018673 -1554556115 2000181243 -1448838471 -742727680 48648829 809019546 -1327210872 132364382 1359465119 1636244151 263781838 -1808834532 1059960123 487671938 552813968 -1129142823 1547401366 503141974 392000511 1766557568 -529726764 1353796527 -1110737408 -620982496 1728234690 -1797863008 -865442776
REM
CELL 1.54180   50.00000   50.00000   50.00000   90.00000   90.00000   90.00000
LATT -1
SFAC C  
C      1  0.5457890000000  0.5119060000000  0.4445460000000 1.0
C      1  0.4339160000000  0.4672450000000  0.4216130000000 1.0
C      1  0.4426370000000  0.5688490000000  0.5302310000000 1.0
C      1  0.5584000000000  0.4158370000000  0.5164220000000 1.0
C      1  0.5360450000000  0.5036040000000  0.4189140000000 1.0
C      1  0.5976250000000  0.4820360000000  0.5083510000000 1.0
C      1  0.5419800000000  0.5067780000000  0.4971680000000 1.0
C      1  0.5669140000000  0.4837060000000  0.5827020000000 1.0
C      1  0.4697190000000  0.4236050000000  0.4802820000000 1.0
C      1  0.5352860000000  0.6628780000000  0.3829630000000 1.0
C      1  0.5776200000000  0.4280770000000  0.5332720000000 1.0
C      1  0.5567890000000  0.5079250000000  0.5890680000000 1.0
C      1  0.4899300000000  0.4670950000000  0.5839450000000 1.0
C      1  0.4117240000000  0.4981290000000  0.4576270000000 1.0
C      1  0.5815180000000  0.5453810000000  0.5053790000000 1.0
C      1  0.5798000000000  0.5765030000000  0.4494620000000 1.0
C      1  0.4773370000000  0.5263330000000  0.4925320000000 1.0
C      1  0.4224070000000  0.5012930000000  0.5314140000000 1.0
C      1  0.5382090000000  0.4773260000000  0.4100940000000 1.0
C      1  0.5913530000000  0.5686200000000  0.4966960000000 1.0
C      1  0.5189400000000  0.5653800000000  0.5592200000000 1.0
C      1  0.5331280000000  0.5239540000000  0.5878100000000 1.0
C      1  0.4274790000000  0.4741410000000  0.5737730000000 1.0
C      1  0.4483020000000  0.5231190000000  0.6089060000000 1.0
C      1  0.4536490000000  0.5151110000000  0.4963480000000 1.0
C      1  0.5309150000000  0.5513530000000  0.3973020000000 1.0
C      1  0.4312990000000  0.4423870000000  0.5052640000000 1.0
C      1  0.5338300000000  0.5006300000000  0.4682180000000 1.0
C      1  0.4207310000000  0.5507680000000  0.5219070000000 1.0
C      1  0.4482320000000  0.4388380000000  0.5742520000000 1.0
C      1  0.4898980000000  0.5661560000000  0.5165280000000 1.0
C      1  0.5677720000000  0.5301290000000  0.4428670000000 1.0
C      1  0.4189590000000  0.4576430000000  0.4855510000000 1.0
C      1  0.5103730000000  0.5121550000000  0.5999200000000 1.0
C      1  0.5363980000000  0.4326020000000  0.5105200000000 1.0
C      1  0.5904770000000  0.5817120000000  0.4733730000000 1.0
C      1  0.4860750000000  0.3935420000000  0.4141670000000 1.0
C      1  0.4789060000000  0.4739920000000  0.4953730000000 1.0
C      1  0.5136340000000  0.4808420000000  0.4640840000000 1.0
C      1  0.4179460000000  0.4845500000000  0.4340060000000 1.0
C      1  0.5487890000000  0.5671890000000  0.4135320000000 1.0
C      1  0.5932910000000  0.5196550000000  0.4483140000000 1.0
C      1  0.5350110000000  0.6368760000000  0.3847100000000 1.0
C      1  0.5042750000000  0.5752320000000  0.5389690000000 1.0
C      1  0.5277940000000  0.5241400000000  0.4018920000000 1.0
C      1  0.4831680000000  0.4728960000000  0.5216600000000 1.0
C      1  0.5656430000000  0.4586910000000  0.5694150000000 1.0
C      1  0.5048360000000  0.4554590000000  0.5626840000000 1.0
C      1  0.5195610000000  0.3836570000000  0.5679350000000 1.0
C      1  0.4281010000000  0.4507480000000  0.5326570000000 1.0
C      1  0.4293020000000  0.5638200000000  0.4751850000000 1.0
C      1  0.5339120000000  0.6093810000000  0.3879510000000 1.0
C      1  0.5275810000000  0.4957300000000  0.5498660000000 1.0
C      1  0.5666000000000  0.5242280000000  0.4993310000000 1.0
C      1  0.4182020000000  0.4855450000000  0.4825450000000 1.0
C      1  0.5204300000000  0.4323250000000  0.5687420000000 1.0
C      1  0.4300380000000  0.5350190000000  0.5933690000000 1.0
C      1  0.5164970000000  0.5654690000000  0.3774040000000 1.0
C      1  0.4758970000000  0.4369220000000  0.4335050000000 1.0
C      1  0.5766110000000  0.4547430000000  0.5431910000000 1.0
C      1  0.4240130000000  0.5469130000000  0.4522200000000 1.0
C      1  0.4102750000000  0.5540090000000  0.4960300000000 1.0
C      1  0.4459810000000  0.4779840000000  0.5940280000000 1.0
C      1  0.5746750000000  0.4745850000000  0.5225010000000 1.0
C      1  0.4444590000000  0.4321790000000  0.5480450000000 1.0
C      1  0.4808760000000  0.4412460000000  0.4610660000000 1.0
C      1  0.5320430000000  0.4519430000000  0.4057130000000 1.0
C      1  0.4291020000000  0.5414000000000  0.5664200000000 1.0
C      1  0.5135960000000  0.5554740000000  0.4749780000000 1.0
C      1  0.4868760000000  0.4080140000000  0.5416760000000 1.0
C      1  0.4049670000000  0.5254870000000  0.4584370000000 1.0
C      1  0.4231590000000  0.4760020000000  0.5458950000000 1.0
C      1  0.4435860000000  0.5650810000000  0.5583570000000 1.0
C      1  0.5488660000000  0.5950430000000  0.4073070000000 1.0
C      1  0.3924490000000  0.5358470000000  0.4826610000000 1.0
C      1  0.5247180000000  0.5215020000000  0.5415840000000 1.0
C      1  0.5054620000000  0.4625970000000  0.5349690000000 1.0
C      1  0.4910060000000  0.4659090000000  0.4713580000000 1.0
C      1  0.4619370000000  0.4996620000000  0.6031900000000 1.0
C      1  0.5286260000000  0.4588130000000  0.5179700000000 1.0
C      1  0.5173580000000  0.5921560000000  0.3726820000000 1.0
C      1  0.6103680000000  0.4910370000000  0.4867900000000 1.0
C      1  0.4541220000000  0.4241030000000  0.5035440000000 1.0
C      1  0.5012600000000  0.5427810000000  0.4997130000000 1.0
C      1  0.5608180000000  0.3904430000000  0.5069630000000 1.0
C      1  0.4641040000000  0.4551400000000  0.5894720000000 1.0
C      1  0.5466490000000  0.4387770000000  0.5772420000000 1.0
C      1  0.5650540000000  0.5575090000000  0.4347240000000 1.0
C      1  0.4627140000000  0.4175850000000  0.5308350000000 1.0
C      1  0.4544050000000  0.4503110000000  0.4215470000000 1.0
C      1  0.4306480000000  0.5006230000000  0.5035290000000 1.0
C      1  0.5161870000000  0.4308310000000  0.4082090000000 1.0
C      1  0.6088720000000  0.5049050000000  0.4640910000000 1.0
C      1  0.4896100000000  0.4938030000000  0.5966670000000 1.0
C      1  0.5091800000000  0.4075560000000  0.5595580000000 1.0
C      1  0.4524200000000  0.5768620000000  0.4846580000000 1.0
C      1  0.5276590000000  0.5392320000000  0.5637190000000 1.0
C      1  0.4926580000000  0.4196970000000  0.4183930000000 1.0
C      1  0.5216800000000  0.5246630000000  0.5133470000000 1.0
C      1  0.4628240000000  0.5742390000000  0.5110610000000 1.0
C      1  0.5479300000000  0.4799160000000  0.5121230000000 1.0
C      1  0.4193240000000  0.5282860000000  0.5417990000000 1.0
END
