TITL C-599897-7526-195 2.17141017258823 125000 -310.937748057635 0 0 53 (C1) n - 1
REM
REM in /home/nfs/bkarasulu/CARBON/AIRSS/Generating-Clusters/TERSOFF/Only-C1/FIRE-HFTN
REM
REM
REM
REM
REM
REM ./C.cell (11c1c37f851c82e70ff6c80c92926a4b)
REM AIRSS Version 0.9.1 bugfix July 2018 build 013d7b7c2542+ Fri, 06 Jul 2018 19:26:36 +0100
REM compiler GCC version 9.2.1 20190827 (Red Hat 9.2.1-1)
REM options -cpp -mtune=generic -march=x86-64 -g -O0 -fpre-include=/usr/include/finclude/math-vector-fortran.h
REM seed 1379323231 -912440413 -1076374089 1003734445 -1550586559 -1760930909 1842608165 683102878 1563856795 689869274 1388954188 1914785146 867420412 1178411053 -1511430474 988173183 613065481 1820524806 -40900194 57072188 -139908933 -1893505820 1328341574 -1367190396 -2040863247 -299357342 231715737 -498348577 -2097134250 1399027403 -1849194800 -1858580276 1398549162
REM
CELL 1.54180   50.00000   50.00000   50.00000   90.00000   90.00000   90.00000
LATT -1
SFAC C  
C      1  0.4486670000000  0.4620480000000  0.5686380000000 1.0
C      1  0.4765560000000  0.5358270000000  0.4616480000000 1.0
C      1  0.5614650000000  0.4446160000000  0.5173550000000 1.0
C      1  0.5562860000000  0.5476250000000  0.4393770000000 1.0
C      1  0.5148780000000  0.4456950000000  0.5044850000000 1.0
C      1  0.5083610000000  0.5216710000000  0.3872530000000 1.0
C      1  0.4935550000000  0.5811320000000  0.4562380000000 1.0
C      1  0.4612930000000  0.4502130000000  0.4200940000000 1.0
C      1  0.4576030000000  0.5805190000000  0.5471720000000 1.0
C      1  0.4643510000000  0.5740300000000  0.5223750000000 1.0
C      1  0.4490650000000  0.4882710000000  0.5732270000000 1.0
C      1  0.4598210000000  0.4389580000000  0.5614710000000 1.0
C      1  0.5279660000000  0.5750510000000  0.5543830000000 1.0
C      1  0.5233250000000  0.4983190000000  0.5928650000000 1.0
C      1  0.4920680000000  0.5146640000000  0.4712490000000 1.0
C      1  0.5500040000000  0.5044520000000  0.5570670000000 1.0
C      1  0.5211880000000  0.6120020000000  0.4239300000000 1.0
C      1  0.4216810000000  0.5269630000000  0.4096970000000 1.0
C      1  0.4814430000000  0.4248170000000  0.5506890000000 1.0
C      1  0.4515320000000  0.5869950000000  0.5716830000000 1.0
C      1  0.5305750000000  0.5328340000000  0.3965470000000 1.0
C      1  0.5110610000000  0.4688910000000  0.4894320000000 1.0
C      1  0.4576640000000  0.5311570000000  0.4416040000000 1.0
C      1  0.5424890000000  0.5497430000000  0.5163820000000 1.0
C      1  0.5277940000000  0.4438750000000  0.5519040000000 1.0
C      1  0.5573980000000  0.5503850000000  0.4657240000000 1.0
C      1  0.5339510000000  0.5508930000000  0.5429910000000 1.0
C      1  0.5350610000000  0.4449160000000  0.5246400000000 1.0
C      1  0.4466130000000  0.5200250000000  0.4184250000000 1.0
C      1  0.5418870000000  0.4566300000000  0.5745380000000 1.0
C      1  0.5123060000000  0.5211890000000  0.5788170000000 1.0
C      1  0.4715580000000  0.5684500000000  0.4975070000000 1.0
C      1  0.4847560000000  0.5248600000000  0.5780760000000 1.0
C      1  0.5070380000000  0.5972750000000  0.4401310000000 1.0
C      1  0.5106800000000  0.3851300000000  0.4753930000000 1.0
C      1  0.5358910000000  0.4389890000000  0.5968540000000 1.0
C      1  0.4689700000000  0.4311220000000  0.4368130000000 1.0
C      1  0.4814460000000  0.4169430000000  0.5237360000000 1.0
C      1  0.5066460000000  0.4263830000000  0.5631060000000 1.0
C      1  0.5519800000000  0.5506750000000  0.4916690000000 1.0
C      1  0.5433170000000  0.4843480000000  0.5769000000000 1.0
C      1  0.5472590000000  0.5418140000000  0.4151220000000 1.0
C      1  0.4844150000000  0.5104400000000  0.3894750000000 1.0
C      1  0.5150030000000  0.4220000000000  0.5903760000000 1.0
C      1  0.4587610000000  0.4738630000000  0.4083800000000 1.0
C      1  0.4617240000000  0.5115270000000  0.5761680000000 1.0
C      1  0.4972200000000  0.4234760000000  0.5014280000000 1.0
C      1  0.4806800000000  0.4173830000000  0.4562090000000 1.0
C      1  0.5319610000000  0.5272370000000  0.5579390000000 1.0
C      1  0.4963030000000  0.4083060000000  0.4775460000000 1.0
C      1  0.4624930000000  0.5012050000000  0.4041630000000 1.0
C      1  0.5035010000000  0.4921530000000  0.4792590000000 1.0
C      1  0.4804920000000  0.5620190000000  0.4718510000000 1.0
END
