TITL C-599893-4344-965 4.18370316947971e-05 125000 -257.050045408077 0 0 43 (C1) n - 1
REM
REM in /home/nfs/bkarasulu/CARBON/AIRSS/Generating-Clusters/TERSOFF/Only-C1/FIRE-HFTN
REM
REM
REM
REM
REM
REM ./C.cell (11c1c37f851c82e70ff6c80c92926a4b)
REM AIRSS Version 0.9.1 bugfix July 2018 build 013d7b7c2542+ Fri, 06 Jul 2018 19:26:36 +0100
REM compiler GCC version 9.2.1 20190827 (Red Hat 9.2.1-1)
REM options -cpp -mtune=generic -march=x86-64 -g -O0 -fpre-include=/usr/include/finclude/math-vector-fortran.h
REM seed -105508422 377008764 1135510166 -1986204840 -1112887770 892375324 -818755325 1626472498 -1171339999 -578524456 -1437203149 1785697710 989590567 -1389933211 -481732081 -1982406967 2099445941 45026621 1987269414 -298039255 -1867088575 -339460958 -1654605420 -1237776193 -1699973496 586325647 1954515466 506266386 223492856 531042069 1316515670 -1518535505 -94528089
REM
CELL 1.54180   50.00000   50.00000   50.00000   90.00000   90.00000   90.00000
LATT -1
SFAC C  
C      1  0.5400440000000  0.4676620000000  0.5486860000000 1.0
C      1  0.5441880000000  0.4592820000000  0.5234450000000 1.0
C      1  0.4353930000000  0.4950610000000  0.5069430000000 1.0
C      1  0.5060850000000  0.5673360000000  0.4735290000000 1.0
C      1  0.4546910000000  0.5474640000000  0.4748870000000 1.0
C      1  0.4472580000000  0.5411380000000  0.5001030000000 1.0
C      1  0.4305630000000  0.4972820000000  0.4781100000000 1.0
C      1  0.4485430000000  0.5190920000000  0.5185920000000 1.0
C      1  0.4747930000000  0.4838780000000  0.4823760000000 1.0
C      1  0.4702510000000  0.5098270000000  0.4471240000000 1.0
C      1  0.5109130000000  0.5115510000000  0.5011260000000 1.0
C      1  0.5411600000000  0.4613130000000  0.4951800000000 1.0
C      1  0.5009900000000  0.4924350000000  0.5704830000000 1.0
C      1  0.4443290000000  0.4995520000000  0.4544450000000 1.0
C      1  0.4669790000000  0.4390940000000  0.4905030000000 1.0
C      1  0.5297330000000  0.5159800000000  0.4805730000000 1.0
C      1  0.4459180000000  0.4436190000000  0.5098870000000 1.0
C      1  0.5087910000000  0.4712690000000  0.4577490000000 1.0
C      1  0.4952430000000  0.4408250000000  0.4992570000000 1.0
C      1  0.5134920000000  0.5415140000000  0.5524260000000 1.0
C      1  0.5003590000000  0.5455850000000  0.4565950000000 1.0
C      1  0.4987880000000  0.4976370000000  0.4480590000000 1.0
C      1  0.4698290000000  0.5210880000000  0.5396920000000 1.0
C      1  0.5599430000000  0.4788370000000  0.4821750000000 1.0
C      1  0.4351870000000  0.4680380000000  0.5167110000000 1.0
C      1  0.5599500000000  0.5312520000000  0.5318640000000 1.0
C      1  0.4872920000000  0.5651680000000  0.5211450000000 1.0
C      1  0.4945810000000  0.4516150000000  0.5260890000000 1.0
C      1  0.4876650000000  0.4789640000000  0.5281410000000 1.0
C      1  0.5160570000000  0.5210140000000  0.4561390000000 1.0
C      1  0.4653670000000  0.4605630000000  0.4718270000000 1.0
C      1  0.5678320000000  0.5200470000000  0.5087670000000 1.0
C      1  0.4983400000000  0.5741270000000  0.4983820000000 1.0
C      1  0.5804940000000  0.4693590000000  0.4660590000000 1.0
C      1  0.5397050000000  0.5382580000000  0.5479070000000 1.0
C      1  0.4902830000000  0.4931240000000  0.5036580000000 1.0
C      1  0.4821680000000  0.4964500000000  0.5496400000000 1.0
C      1  0.5249350000000  0.4799010000000  0.5673820000000 1.0
C      1  0.5159510000000  0.4544000000000  0.4816680000000 1.0
C      1  0.5995870000000  0.4604120000000  0.4507440000000 1.0
C      1  0.4725960000000  0.5381720000000  0.4548890000000 1.0
C      1  0.5556790000000  0.5067080000000  0.4870450000000 1.0
C      1  0.4880530000000  0.5441070000000  0.5399980000000 1.0
END
