TITL C-599892-9790-1014 0.0449215002133178 125000 -782.795874860249 0 0 129 (C1) n - 1
REM
REM in /home/nfs/bkarasulu/CARBON/AIRSS/Generating-Clusters/TERSOFF/Only-C1/FIRE-HFTN
REM
REM
REM
REM
REM
REM ./C.cell (11c1c37f851c82e70ff6c80c92926a4b)
REM AIRSS Version 0.9.1 bugfix July 2018 build 013d7b7c2542+ Fri, 06 Jul 2018 19:26:36 +0100
REM compiler GCC version 9.2.1 20190827 (Red Hat 9.2.1-1)
REM options -cpp -mtune=generic -march=x86-64 -g -O0 -fpre-include=/usr/include/finclude/math-vector-fortran.h
REM seed -9890822 -2023568305 1305168254 -516063960 249532119 -316701848 -268364017 -282625021 1418942888 -400124528 411473050 1076319836 -381792406 800787813 -1736468378 -1328257483 -95901874 -549715829 -1829065852 -941613673 1184981903 -1745998616 -637055174 -1362889851 -195961371 733049805 1402397994 -1845636631 1469773249 -298018390 -1162952283 1273690992 1995021178
REM
CELL 1.54180   50.00000   50.00000   50.00000   90.00000   90.00000   90.00000
LATT -1
SFAC C  
C      1  0.4954410000000  0.5542320000000  0.4634890000000 1.0
C      1  0.5180120000000  0.3794340000000  0.4385800000000 1.0
C      1  0.4782150000000  0.5364200000000  0.4821510000000 1.0
C      1  0.4855090000000  0.5613170000000  0.5221060000000 1.0
C      1  0.4441620000000  0.4018690000000  0.4914390000000 1.0
C      1  0.5505670000000  0.4089560000000  0.5361630000000 1.0
C      1  0.4968960000000  0.5227410000000  0.5023830000000 1.0
C      1  0.5230770000000  0.3621010000000  0.4159240000000 1.0
C      1  0.5077880000000  0.5335560000000  0.5604810000000 1.0
C      1  0.5667290000000  0.5179660000000  0.4483930000000 1.0
C      1  0.5252250000000  0.5314490000000  0.3965830000000 1.0
C      1  0.5680870000000  0.5621090000000  0.4917720000000 1.0
C      1  0.5739900000000  0.5341940000000  0.5342480000000 1.0
C      1  0.4876700000000  0.4905510000000  0.4349040000000 1.0
C      1  0.5101010000000  0.4649260000000  0.5861880000000 1.0
C      1  0.4422150000000  0.5903840000000  0.5197130000000 1.0
C      1  0.3933400000000  0.5228340000000  0.5000000000000 1.0
C      1  0.5666920000000  0.5467710000000  0.5622370000000 1.0
C      1  0.4935180000000  0.6056040000000  0.4583010000000 1.0
C      1  0.4293370000000  0.5741720000000  0.5410870000000 1.0
C      1  0.5648140000000  0.4330680000000  0.4861840000000 1.0
C      1  0.5362080000000  0.5914560000000  0.5105900000000 1.0
C      1  0.4809030000000  0.5109800000000  0.5255450000000 1.0
C      1  0.4674300000000  0.4132450000000  0.5583770000000 1.0
C      1  0.5172940000000  0.5931550000000  0.5338630000000 1.0
C      1  0.4102780000000  0.4699660000000  0.4844820000000 1.0
C      1  0.4664880000000  0.5566010000000  0.5010410000000 1.0
C      1  0.4921060000000  0.3404090000000  0.4409060000000 1.0
C      1  0.5274610000000  0.5786870000000  0.5586690000000 1.0
C      1  0.5688010000000  0.5217820000000  0.5798440000000 1.0
C      1  0.5853300000000  0.5067210000000  0.4723230000000 1.0
C      1  0.4717460000000  0.4111020000000  0.5302630000000 1.0
C      1  0.4576820000000  0.5353700000000  0.5969060000000 1.0
C      1  0.4631940000000  0.4796920000000  0.5801020000000 1.0
C      1  0.4994640000000  0.4024400000000  0.5217850000000 1.0
C      1  0.4523610000000  0.4527910000000  0.5820520000000 1.0
C      1  0.5001730000000  0.5280810000000  0.3853990000000 1.0
C      1  0.5284840000000  0.6001890000000  0.4246060000000 1.0
C      1  0.5421530000000  0.4222050000000  0.4308800000000 1.0
C      1  0.4900080000000  0.4787910000000  0.5709870000000 1.0
C      1  0.5412470000000  0.5715530000000  0.4889810000000 1.0
C      1  0.5565060000000  0.5739200000000  0.5600040000000 1.0
C      1  0.5761080000000  0.4532230000000  0.5247470000000 1.0
C      1  0.5243710000000  0.4074770000000  0.4768600000000 1.0
C      1  0.4933050000000  0.5163410000000  0.4311830000000 1.0
C      1  0.5329790000000  0.4812500000000  0.5921350000000 1.0
C      1  0.4497890000000  0.5347840000000  0.4049730000000 1.0
C      1  0.5610550000000  0.6026900000000  0.5211670000000 1.0
C      1  0.4922500000000  0.4524020000000  0.4978420000000 1.0
C      1  0.4148860000000  0.4613430000000  0.5115530000000 1.0
C      1  0.5251550000000  0.5323650000000  0.5371510000000 1.0
C      1  0.5221910000000  0.5745130000000  0.4152970000000 1.0
C      1  0.4723090000000  0.4322200000000  0.5789960000000 1.0
C      1  0.4739410000000  0.5661620000000  0.5471770000000 1.0
C      1  0.5489710000000  0.5033750000000  0.5898500000000 1.0
C      1  0.5710350000000  0.5933660000000  0.5449150000000 1.0
C      1  0.5366990000000  0.4290210000000  0.4897370000000 1.0
C      1  0.4345690000000  0.5620780000000  0.4466440000000 1.0
C      1  0.4198830000000  0.4334800000000  0.5499330000000 1.0
C      1  0.4269630000000  0.4366780000000  0.5223280000000 1.0
C      1  0.5642260000000  0.4688470000000  0.4580510000000 1.0
C      1  0.5172920000000  0.4617370000000  0.4557220000000 1.0
C      1  0.4482140000000  0.4185200000000  0.5137560000000 1.0
C      1  0.4864890000000  0.3777920000000  0.4777390000000 1.0
C      1  0.4793250000000  0.5816560000000  0.4623480000000 1.0
C      1  0.4028840000000  0.5763750000000  0.5474300000000 1.0
C      1  0.4217330000000  0.4810160000000  0.5582110000000 1.0
C      1  0.5828510000000  0.4542750000000  0.4963020000000 1.0
C      1  0.5452500000000  0.5409700000000  0.4454880000000 1.0
C      1  0.4728690000000  0.5304950000000  0.3876690000000 1.0
C      1  0.5979070000000  0.5148070000000  0.5416490000000 1.0
C      1  0.4620540000000  0.5411830000000  0.6219080000000 1.0
C      1  0.5539100000000  0.4445580000000  0.4201580000000 1.0
C      1  0.4777060000000  0.4687870000000  0.4796890000000 1.0
C      1  0.4430850000000  0.4988560000000  0.5689880000000 1.0
C      1  0.4143880000000  0.5431620000000  0.4576760000000 1.0
C      1  0.5145900000000  0.6136210000000  0.4435340000000 1.0
C      1  0.4931450000000  0.4757610000000  0.5439870000000 1.0
C      1  0.5369640000000  0.4910210000000  0.4905240000000 1.0
C      1  0.4026190000000  0.5207650000000  0.4725260000000 1.0
C      1  0.4614860000000  0.4906400000000  0.4879850000000 1.0
C      1  0.5932780000000  0.5092250000000  0.5693050000000 1.0
C      1  0.4943360000000  0.5668420000000  0.4173190000000 1.0
C      1  0.5013420000000  0.4366630000000  0.5830580000000 1.0
C      1  0.5294370000000  0.4551630000000  0.5298880000000 1.0
C      1  0.5497620000000  0.4940750000000  0.5159890000000 1.0
C      1  0.5391080000000  0.4723670000000  0.4694010000000 1.0
C      1  0.5184080000000  0.4447500000000  0.5061070000000 1.0
C      1  0.4409420000000  0.5131190000000  0.4206160000000 1.0
C      1  0.5075640000000  0.3391340000000  0.4178530000000 1.0
C      1  0.4090300000000  0.4827310000000  0.5319020000000 1.0
C      1  0.5820610000000  0.5430230000000  0.5060560000000 1.0
C      1  0.4820110000000  0.5223270000000  0.5529370000000 1.0
C      1  0.4463690000000  0.5604710000000  0.4188710000000 1.0
C      1  0.4686160000000  0.5775670000000  0.4122240000000 1.0
C      1  0.5664300000000  0.4982370000000  0.4252970000000 1.0
C      1  0.5367950000000  0.5488960000000  0.4171190000000 1.0
C      1  0.5043140000000  0.3941630000000  0.4933550000000 1.0
C      1  0.4076910000000  0.5095410000000  0.5205670000000 1.0
C      1  0.5222440000000  0.4070090000000  0.5418100000000 1.0
C      1  0.4476570000000  0.5559640000000  0.5544810000000 1.0
C      1  0.4929870000000  0.5440150000000  0.4353030000000 1.0
C      1  0.5289810000000  0.4034720000000  0.4484460000000 1.0
C      1  0.4464720000000  0.5760200000000  0.4948130000000 1.0
C      1  0.5641340000000  0.4695080000000  0.4297530000000 1.0
C      1  0.5121190000000  0.5589200000000  0.5729220000000 1.0
C      1  0.4544710000000  0.5280380000000  0.5677220000000 1.0
C      1  0.5717890000000  0.4263420000000  0.5351760000000 1.0
C      1  0.4467640000000  0.5099730000000  0.4466040000000 1.0
C      1  0.5485040000000  0.5188500000000  0.5293990000000 1.0
C      1  0.4572470000000  0.5004710000000  0.5143920000000 1.0
C      1  0.4498780000000  0.5784280000000  0.4660250000000 1.0
C      1  0.6104660000000  0.5089400000000  0.5164910000000 1.0
C      1  0.5970750000000  0.5214190000000  0.4937460000000 1.0
C      1  0.4648670000000  0.6075170000000  0.5268870000000 1.0
C      1  0.5847750000000  0.4766690000000  0.4765430000000 1.0
C      1  0.5273880000000  0.5561170000000  0.4675480000000 1.0
C      1  0.4909410000000  0.4706800000000  0.4541780000000 1.0
C      1  0.4268700000000  0.4536710000000  0.5682410000000 1.0
C      1  0.5091890000000  0.5456190000000  0.5174220000000 1.0
C      1  0.5163320000000  0.4176800000000  0.5679800000000 1.0
C      1  0.4609420000000  0.5138320000000  0.4704510000000 1.0
C      1  0.5534640000000  0.4699890000000  0.5300160000000 1.0
C      1  0.5155500000000  0.5075620000000  0.4875340000000 1.0
C      1  0.4590640000000  0.3830130000000  0.4797230000000 1.0
C      1  0.4919790000000  0.6070510000000  0.5314260000000 1.0
C      1  0.4059940000000  0.4919330000000  0.4685970000000 1.0
C      1  0.4349500000000  0.5163770000000  0.5197710000000 1.0
C      1  0.4972610000000  0.3652240000000  0.4549770000000 1.0
END
