TITL C-599894-471-616 0.454010444633468 125000 -297.349003334235 0 0 51 (C1) n - 1
REM
REM in /home/nfs/bkarasulu/CARBON/AIRSS/Generating-Clusters/TERSOFF/Only-C1/FIRE-HFTN
REM
REM
REM
REM
REM
REM ./C.cell (11c1c37f851c82e70ff6c80c92926a4b)
REM AIRSS Version 0.9.1 bugfix July 2018 build 013d7b7c2542+ Fri, 06 Jul 2018 19:26:36 +0100
REM compiler GCC version 9.2.1 20190827 (Red Hat 9.2.1-1)
REM options -cpp -mtune=generic -march=x86-64 -g -O0 -fpre-include=/usr/include/finclude/math-vector-fortran.h
REM seed 1726447517 -2051402995 -1466391413 -1699684143 703775465 -1807967636 -42198745 -1935205020 840947925 54276358 -824703759 56460799 1073254150 -1831771503 140990808 -216568932 -533432403 -1307868725 -1496596703 -1651060888 -1937062020 -275750124 -1317107228 -1310621984 -640048897 -920626680 1146229041 1220748862 -1981905306 1034882711 1959795478 -1103967341 -1635328716
REM
CELL 1.54180   50.00000   50.00000   50.00000   90.00000   90.00000   90.00000
LATT -1
SFAC C  
C      1  0.5606500000000  0.4610830000000  0.4358450000000 1.0
C      1  0.4540390000000  0.4243290000000  0.5179510000000 1.0
C      1  0.5195570000000  0.5558610000000  0.4756960000000 1.0
C      1  0.5469750000000  0.5743430000000  0.5406750000000 1.0
C      1  0.5094310000000  0.4756010000000  0.5051230000000 1.0
C      1  0.5266270000000  0.4386730000000  0.4613010000000 1.0
C      1  0.5341640000000  0.4572340000000  0.4416460000000 1.0
C      1  0.5451960000000  0.5579050000000  0.5634430000000 1.0
C      1  0.5468090000000  0.4644260000000  0.5502180000000 1.0
C      1  0.4274680000000  0.4913170000000  0.4559840000000 1.0
C      1  0.5330530000000  0.5353820000000  0.5750500000000 1.0
C      1  0.5043650000000  0.5962740000000  0.5346090000000 1.0
C      1  0.5203920000000  0.5677300000000  0.4995380000000 1.0
C      1  0.5073310000000  0.4655150000000  0.4018280000000 1.0
C      1  0.5111260000000  0.4997970000000  0.5192360000000 1.0
C      1  0.5461350000000  0.5100980000000  0.5746380000000 1.0
C      1  0.4563190000000  0.5029490000000  0.4931120000000 1.0
C      1  0.3545370000000  0.4791840000000  0.4279690000000 1.0
C      1  0.5454910000000  0.4925160000000  0.5526270000000 1.0
C      1  0.5767710000000  0.5328040000000  0.4690620000000 1.0
C      1  0.4756000000000  0.4918050000000  0.4504460000000 1.0
C      1  0.5376520000000  0.5056670000000  0.5281780000000 1.0
C      1  0.5714770000000  0.5855060000000  0.5332960000000 1.0
C      1  0.4476310000000  0.4640380000000  0.5769160000000 1.0
C      1  0.5579140000000  0.5177560000000  0.5133760000000 1.0
C      1  0.5170480000000  0.4320940000000  0.4867710000000 1.0
C      1  0.4418830000000  0.4924200000000  0.5382220000000 1.0
C      1  0.5294770000000  0.5396320000000  0.4549630000000 1.0
C      1  0.5142510000000  0.5194270000000  0.4431470000000 1.0
C      1  0.4530140000000  0.4953840000000  0.4664410000000 1.0
C      1  0.4871470000000  0.5105620000000  0.5305140000000 1.0
C      1  0.4885150000000  0.5257700000000  0.5540500000000 1.0
C      1  0.3986200000000  0.5227190000000  0.5494410000000 1.0
C      1  0.4722930000000  0.4123840000000  0.5027140000000 1.0
C      1  0.4448980000000  0.4438930000000  0.5334130000000 1.0
C      1  0.5574710000000  0.5393190000000  0.4515810000000 1.0
C      1  0.4194340000000  0.5079820000000  0.5440870000000 1.0
C      1  0.4961290000000  0.4139200000000  0.4908410000000 1.0
C      1  0.4617630000000  0.5024470000000  0.5204840000000 1.0
C      1  0.5753170000000  0.5244120000000  0.4944110000000 1.0
C      1  0.5943820000000  0.5947000000000  0.5249310000000 1.0
C      1  0.5006510000000  0.4590130000000  0.3774920000000 1.0
C      1  0.5048950000000  0.5343880000000  0.5733690000000 1.0
C      1  0.5143490000000  0.4724990000000  0.4279800000000 1.0
C      1  0.4030470000000  0.4872510000000  0.4465670000000 1.0
C      1  0.3785910000000  0.4831840000000  0.4371900000000 1.0
C      1  0.4446840000000  0.4665900000000  0.5498160000000 1.0
C      1  0.5221050000000  0.4505240000000  0.5077050000000 1.0
C      1  0.5237080000000  0.5794690000000  0.5248620000000 1.0
C      1  0.5015110000000  0.4946470000000  0.4404000000000 1.0
C      1  0.5381050000000  0.4475780000000  0.5308470000000 1.0
END
