TITL C-599892-9790-312 5.73697597542553 125000 -270.866545426793 0 0 48 (C1) n - 1
REM
REM in /home/nfs/bkarasulu/CARBON/AIRSS/Generating-Clusters/TERSOFF/Only-C1/FIRE-HFTN
REM
REM
REM
REM
REM
REM ./C.cell (11c1c37f851c82e70ff6c80c92926a4b)
REM AIRSS Version 0.9.1 bugfix July 2018 build 013d7b7c2542+ Fri, 06 Jul 2018 19:26:36 +0100
REM compiler GCC version 9.2.1 20190827 (Red Hat 9.2.1-1)
REM options -cpp -mtune=generic -march=x86-64 -g -O0 -fpre-include=/usr/include/finclude/math-vector-fortran.h
REM seed 1253971676 -1282790412 -1817802851 1438417828 2010413414 414268042 -1024251359 -796187477 626317464 1608753571 987390018 -766221834 1957492244 -1120159667 73704802 -695993341 -732646682 -618345048 -1442315888 1393804441 439758992 -1142852057 -390407669 1803145414 -786990588 -1928562664 82217244 -1792134650 822696378 -1469862771 2111193231 119375332 1048337066
REM
CELL 1.54180   50.00000   50.00000   50.00000   90.00000   90.00000   90.00000
LATT -1
SFAC C  
C      1  0.4901510000000  0.4862440000000  0.5661870000000 1.0
C      1  0.5319940000000  0.4601300000000  0.5879990000000 1.0
C      1  0.5345060000000  0.4535420000000  0.4661120000000 1.0
C      1  0.4947960000000  0.5110540000000  0.5542900000000 1.0
C      1  0.4578900000000  0.4459140000000  0.5190170000000 1.0
C      1  0.4641060000000  0.4748730000000  0.5654420000000 1.0
C      1  0.4225920000000  0.4813300000000  0.4476680000000 1.0
C      1  0.4293820000000  0.4849140000000  0.6055110000000 1.0
C      1  0.5255770000000  0.4936840000000  0.4329280000000 1.0
C      1  0.5520500000000  0.5199930000000  0.4009240000000 1.0
C      1  0.5489250000000  0.5895870000000  0.5389770000000 1.0
C      1  0.5303990000000  0.4496070000000  0.4935070000000 1.0
C      1  0.5075900000000  0.4362510000000  0.5024610000000 1.0
C      1  0.5038770000000  0.5860680000000  0.5209440000000 1.0
C      1  0.4460650000000  0.4798360000000  0.5861450000000 1.0
C      1  0.5718510000000  0.5056340000000  0.3886010000000 1.0
C      1  0.4338640000000  0.5168110000000  0.5100140000000 1.0
C      1  0.5617780000000  0.5302920000000  0.5658900000000 1.0
C      1  0.4206700000000  0.4544930000000  0.4569320000000 1.0
C      1  0.5570360000000  0.5272870000000  0.4489910000000 1.0
C      1  0.4822890000000  0.4353550000000  0.5103690000000 1.0
C      1  0.3886210000000  0.4488430000000  0.4927440000000 1.0
C      1  0.5699510000000  0.5392400000000  0.4707440000000 1.0
C      1  0.5111080000000  0.4723700000000  0.5783500000000 1.0
C      1  0.4003550000000  0.4972610000000  0.4468150000000 1.0
C      1  0.4243640000000  0.4335890000000  0.4396330000000 1.0
C      1  0.4355320000000  0.4452690000000  0.5023560000000 1.0
C      1  0.5482820000000  0.5309950000000  0.5414800000000 1.0
C      1  0.4989510000000  0.5339840000000  0.5389510000000 1.0
C      1  0.4772760000000  0.5454460000000  0.5240160000000 1.0
C      1  0.5448990000000  0.5138020000000  0.4277260000000 1.0
C      1  0.5459940000000  0.4644600000000  0.5113630000000 1.0
C      1  0.4146400000000  0.4495370000000  0.4842900000000 1.0
C      1  0.5268230000000  0.5747940000000  0.5329750000000 1.0
C      1  0.5855640000000  0.5613920000000  0.4670410000000 1.0
C      1  0.5390570000000  0.5402310000000  0.3878210000000 1.0
C      1  0.5733750000000  0.5287860000000  0.5891770000000 1.0
C      1  0.5666940000000  0.5284060000000  0.4963260000000 1.0
C      1  0.4809750000000  0.5724450000000  0.5166240000000 1.0
C      1  0.4983750000000  0.4983430000000  0.4285030000000 1.0
C      1  0.4568210000000  0.4588920000000  0.5437310000000 1.0
C      1  0.5575200000000  0.5156710000000  0.5194440000000 1.0
C      1  0.5333160000000  0.4697150000000  0.4450920000000 1.0
C      1  0.4546500000000  0.5309730000000  0.5168380000000 1.0
C      1  0.4720700000000  0.4970360000000  0.4315730000000 1.0
C      1  0.4473650000000  0.4911250000000  0.4391360000000 1.0
C      1  0.5248010000000  0.5466730000000  0.5384230000000 1.0
C      1  0.5552310000000  0.4878210000000  0.5199180000000 1.0
END
