TITL C-599894-471-255 -4089.75869053325 125000 -1101.54244718 0 0 185 (C1) n - 1
REM
REM in /home/nfs/bkarasulu/CARBON/AIRSS/Generating-Clusters/TERSOFF/Only-C1/FIRE-HFTN
REM
REM
REM
REM
REM
REM ./C.cell (11c1c37f851c82e70ff6c80c92926a4b)
REM AIRSS Version 0.9.1 bugfix July 2018 build 013d7b7c2542+ Fri, 06 Jul 2018 19:26:36 +0100
REM compiler GCC version 9.2.1 20190827 (Red Hat 9.2.1-1)
REM options -cpp -mtune=generic -march=x86-64 -g -O0 -fpre-include=/usr/include/finclude/math-vector-fortran.h
REM seed -1641379505 -239186151 -1817137816 2025985985 637446973 -1718927324 -543719222 -1655090167 1638083740 1143514104 1826007416 1301485778 752955353 -1462972641 -592889862 1804712282 -1315323197 915773808 401850330 592161992 -281905963 242421009 -2046501033 578741156 601015099 -35761502 423402947 648315548 1574389896 2050532079 63018980 1241594844 -266004965
REM
CELL 1.54180   50.00000   50.00000   50.00000   90.00000   90.00000   90.00000
LATT -1
SFAC C  
C      1  0.5674690000000  0.4952540000000  0.5963610000000 1.0
C      1  0.4602930000000  0.4870290000000  0.5650820000000 1.0
C      1  0.4597210000000  0.4373360000000  0.5727650000000 1.0
C      1  0.6276120000000  0.5731430000000  0.4590250000000 1.0
C      1  0.5786680000000  0.4706270000000  0.5838480000000 1.0
C      1  0.4431410000000  0.4584600000000  0.5309330000000 1.0
C      1  0.4104320000000  0.4810770000000  0.4740240000000 1.0
C      1  0.3671820000000  0.5325740000000  0.5285690000000 1.0
C      1  0.5943580000000  0.5484920000000  0.5230770000000 1.0
C      1  0.5874520000000  0.4431980000000  0.4363270000000 1.0
C      1  0.4760900000000  0.5053700000000  0.4787970000000 1.0
C      1  0.5789440000000  0.4984760000000  0.4713560000000 1.0
C      1  0.5609890000000  0.6104260000000  0.4421700000000 1.0
C      1  0.4370400000000  0.3895480000000  0.5215400000000 1.0
C      1  0.3702050000000  0.4547030000000  0.5378890000000 1.0
C      1  0.3976130000000  0.4503770000000  0.5385860000000 1.0
C      1  0.5483850000000  0.4927350000000  0.5341210000000 1.0
C      1  0.4556860000000  0.5754880000000  0.4995750000000 1.0
C      1  0.5668990000000  0.5476480000000  0.5744450000000 1.0
C      1  0.6368590000000  0.5515240000000  0.4702900000000 1.0
C      1  0.5512170000000  0.5744410000000  0.4705440000000 1.0
C      1  0.4812940000000  0.4858400000000  0.5201240000000 1.0
C      1  0.4877650000000  0.4934720000000  0.5658210000000 1.0
C      1  0.5667240000000  0.5715170000000  0.5604650000000 1.0
C      1  0.4958520000000  0.4346560000000  0.5232760000000 1.0
C      1  0.5603350000000  0.4770450000000  0.4630570000000 1.0
C      1  0.4880340000000  0.4327500000000  0.4133670000000 1.0
C      1  0.4796090000000  0.4380680000000  0.5935090000000 1.0
C      1  0.6191000000000  0.4938950000000  0.5057260000000 1.0
C      1  0.4471570000000  0.5409990000000  0.4337870000000 1.0
C      1  0.5142740000000  0.4229170000000  0.5394470000000 1.0
C      1  0.5569030000000  0.4652550000000  0.6337620000000 1.0
C      1  0.4158530000000  0.5632070000000  0.5222440000000 1.0
C      1  0.5557360000000  0.4434190000000  0.5263100000000 1.0
C      1  0.5970330000000  0.4852510000000  0.5207380000000 1.0
C      1  0.4199830000000  0.4984970000000  0.5421850000000 1.0
C      1  0.4670880000000  0.6314740000000  0.5659020000000 1.0
C      1  0.5695130000000  0.5438520000000  0.5108620000000 1.0
C      1  0.4273770000000  0.4150040000000  0.4489140000000 1.0
C      1  0.5539800000000  0.4133260000000  0.5804380000000 1.0
C      1  0.4954350000000  0.5177770000000  0.5789210000000 1.0
C      1  0.5884120000000  0.4322190000000  0.4853320000000 1.0
C      1  0.4354880000000  0.5060230000000  0.3994360000000 1.0
C      1  0.5669060000000  0.6266830000000  0.4200640000000 1.0
C      1  0.4139650000000  0.6067320000000  0.4552110000000 1.0
C      1  0.5059220000000  0.4077580000000  0.5646370000000 1.0
C      1  0.4033120000000  0.4682880000000  0.4196820000000 1.0
C      1  0.4916900000000  0.3846100000000  0.4713200000000 1.0
C      1  0.5331740000000  0.3936760000000  0.5702140000000 1.0
C      1  0.5369610000000  0.5227070000000  0.4841910000000 1.0
C      1  0.6167430000000  0.4994380000000  0.5716790000000 1.0
C      1  0.6015540000000  0.4917280000000  0.4541590000000 1.0
C      1  0.5656530000000  0.4381640000000  0.5927140000000 1.0
C      1  0.4423080000000  0.6229480000000  0.5777820000000 1.0
C      1  0.5259900000000  0.4683040000000  0.4985190000000 1.0
C      1  0.3749710000000  0.5095290000000  0.4845100000000 1.0
C      1  0.6124800000000  0.5407550000000  0.5412580000000 1.0
C      1  0.4517530000000  0.4873990000000  0.3860340000000 1.0
C      1  0.4534410000000  0.4502420000000  0.5059480000000 1.0
C      1  0.5143950000000  0.5298570000000  0.5604180000000 1.0
C      1  0.4215910000000  0.4556070000000  0.4722270000000 1.0
C      1  0.5631300000000  0.6182530000000  0.4699950000000 1.0
C      1  0.5156920000000  0.5357710000000  0.3856160000000 1.0
C      1  0.5925270000000  0.6284100000000  0.4106310000000 1.0
C      1  0.5090540000000  0.4503330000000  0.4023650000000 1.0
C      1  0.4941300000000  0.4609650000000  0.6010660000000 1.0
C      1  0.3166940000000  0.5146000000000  0.5331910000000 1.0
C      1  0.4983240000000  0.4902190000000  0.4712890000000 1.0
C      1  0.5172180000000  0.5537680000000  0.4470680000000 1.0
C      1  0.4546790000000  0.4602860000000  0.5572610000000 1.0
C      1  0.4891150000000  0.5243950000000  0.3829830000000 1.0
C      1  0.5364330000000  0.4094530000000  0.4573440000000 1.0
C      1  0.5468780000000  0.4656010000000  0.5434800000000 1.0
C      1  0.4259760000000  0.5325180000000  0.4801360000000 1.0
C      1  0.4428070000000  0.4442520000000  0.3646590000000 1.0
C      1  0.6027670000000  0.4660010000000  0.5411580000000 1.0
C      1  0.4169690000000  0.4709040000000  0.5338480000000 1.0
C      1  0.4915700000000  0.4696380000000  0.4514050000000 1.0
C      1  0.5564990000000  0.5248220000000  0.4071760000000 1.0
C      1  0.5383750000000  0.4446100000000  0.4065150000000 1.0
C      1  0.4623320000000  0.3817250000000  0.5103780000000 1.0
C      1  0.5506840000000  0.3963460000000  0.5189310000000 1.0
C      1  0.4970210000000  0.4159280000000  0.5918620000000 1.0
C      1  0.4107880000000  0.5401080000000  0.5044130000000 1.0
C      1  0.4654840000000  0.4360540000000  0.4311940000000 1.0
C      1  0.5124100000000  0.4493380000000  0.4509170000000 1.0
C      1  0.4011960000000  0.5656380000000  0.5469510000000 1.0
C      1  0.3441920000000  0.4547750000000  0.5363700000000 1.0
C      1  0.4958410000000  0.6153780000000  0.5279730000000 1.0
C      1  0.5226230000000  0.5101950000000  0.5357130000000 1.0
C      1  0.3839770000000  0.5268490000000  0.5061280000000 1.0
C      1  0.3930860000000  0.5024850000000  0.4604800000000 1.0
C      1  0.6666350000000  0.4907510000000  0.4997650000000 1.0
C      1  0.5517900000000  0.5829460000000  0.4408620000000 1.0
C      1  0.4675410000000  0.4526720000000  0.4553730000000 1.0
C      1  0.4317550000000  0.4074280000000  0.5429950000000 1.0
C      1  0.5607220000000  0.4418610000000  0.6205710000000 1.0
C      1  0.6011740000000  0.4691680000000  0.4376450000000 1.0
C      1  0.5582880000000  0.4791900000000  0.4344670000000 1.0
C      1  0.4942750000000  0.5374480000000  0.4461280000000 1.0
C      1  0.4506740000000  0.5441780000000  0.4644520000000 1.0
C      1  0.4038170000000  0.5583240000000  0.4501740000000 1.0
C      1  0.4344860000000  0.5573160000000  0.6086880000000 1.0
C      1  0.3774980000000  0.5506900000000  0.5475830000000 1.0
C      1  0.5340800000000  0.5645620000000  0.4251840000000 1.0
C      1  0.4362180000000  0.5830930000000  0.5181130000000 1.0
C      1  0.6129000000000  0.4047040000000  0.4535920000000 1.0
C      1  0.5491450000000  0.5032610000000  0.4235180000000 1.0
C      1  0.4495860000000  0.4529190000000  0.4780000000000 1.0
C      1  0.5221360000000  0.6129830000000  0.5217410000000 1.0
C      1  0.4092610000000  0.4311160000000  0.4643660000000 1.0
C      1  0.4845610000000  0.6502810000000  0.5762030000000 1.0
C      1  0.4380130000000  0.4302370000000  0.4260860000000 1.0
C      1  0.4448130000000  0.6017880000000  0.5373580000000 1.0
C      1  0.6244910000000  0.4171740000000  0.5353570000000 1.0
C      1  0.4587700000000  0.5353380000000  0.5571240000000 1.0
C      1  0.4780510000000  0.5337660000000  0.4713610000000 1.0
C      1  0.3839200000000  0.4236940000000  0.4708600000000 1.0
C      1  0.5248010000000  0.5677350000000  0.5363490000000 1.0
C      1  0.5462870000000  0.6410200000000  0.4077590000000 1.0
C      1  0.5484570000000  0.6016020000000  0.5168730000000 1.0
C      1  0.4994510000000  0.5137020000000  0.4311050000000 1.0
C      1  0.4804740000000  0.4949570000000  0.3835090000000 1.0
C      1  0.5218110000000  0.5297970000000  0.5097570000000 1.0
C      1  0.4923450000000  0.5440090000000  0.4967570000000 1.0
C      1  0.5711270000000  0.4977210000000  0.5177770000000 1.0
C      1  0.4289460000000  0.6031280000000  0.5619560000000 1.0
C      1  0.5674030000000  0.4446160000000  0.4997000000000 1.0
C      1  0.4251420000000  0.4516550000000  0.4100880000000 1.0
C      1  0.4125570000000  0.5808860000000  0.5683740000000 1.0
C      1  0.4904410000000  0.4870750000000  0.4265640000000 1.0
C      1  0.5267710000000  0.5087060000000  0.4392930000000 1.0
C      1  0.5265540000000  0.6538730000000  0.3965960000000 1.0
C      1  0.4337610000000  0.5188970000000  0.4227000000000 1.0
C      1  0.5587240000000  0.4901250000000  0.6229920000000 1.0
C      1  0.4158430000000  0.5696540000000  0.5939520000000 1.0
C      1  0.5419020000000  0.5517460000000  0.5196630000000 1.0
C      1  0.4654780000000  0.3866980000000  0.4817510000000 1.0
C      1  0.4089220000000  0.4243760000000  0.5432720000000 1.0
C      1  0.5408270000000  0.4194920000000  0.5297050000000 1.0
C      1  0.6431950000000  0.5043230000000  0.4960620000000 1.0
C      1  0.4649740000000  0.4974370000000  0.5026540000000 1.0
C      1  0.5289100000000  0.3690410000000  0.5545070000000 1.0
C      1  0.4766950000000  0.5525910000000  0.5403570000000 1.0
C      1  0.5668190000000  0.5221200000000  0.5848680000000 1.0
C      1  0.6012130000000  0.4759780000000  0.5675540000000 1.0
C      1  0.5619090000000  0.4329730000000  0.4220490000000 1.0
C      1  0.5043950000000  0.5547070000000  0.5503690000000 1.0
C      1  0.5370660000000  0.5456160000000  0.4026230000000 1.0
C      1  0.5234680000000  0.5032190000000  0.4671520000000 1.0
C      1  0.4210610000000  0.5805860000000  0.4591010000000 1.0
C      1  0.4402920000000  0.4607530000000  0.3864460000000 1.0
C      1  0.5168060000000  0.3908630000000  0.4647180000000 1.0
C      1  0.4601840000000  0.5555120000000  0.4131050000000 1.0
C      1  0.5331430000000  0.4627780000000  0.5679510000000 1.0
C      1  0.4789710000000  0.3961680000000  0.5539300000000 1.0
C      1  0.4463500000000  0.5730940000000  0.4723540000000 1.0
C      1  0.4755810000000  0.5589320000000  0.5123790000000 1.0
C      1  0.4061340000000  0.5302200000000  0.4579430000000 1.0
C      1  0.4550890000000  0.4120270000000  0.5594480000000 1.0
C      1  0.4704980000000  0.6166120000000  0.5407370000000 1.0
C      1  0.5080590000000  0.3640330000000  0.5364770000000 1.0
C      1  0.4967620000000  0.4769690000000  0.4003130000000 1.0
C      1  0.4721040000000  0.5340700000000  0.5842100000000 1.0
C      1  0.5558200000000  0.5972550000000  0.4889130000000 1.0
C      1  0.4828830000000  0.3778480000000  0.5314120000000 1.0
C      1  0.5017600000000  0.6676320000000  0.5852720000000 1.0
C      1  0.6205840000000  0.5233080000000  0.5599250000000 1.0
C      1  0.3416670000000  0.5217850000000  0.5311980000000 1.0
C      1  0.3899900000000  0.4881450000000  0.4334340000000 1.0
C      1  0.4699670000000  0.5444840000000  0.3903140000000 1.0
C      1  0.5627450000000  0.5903750000000  0.5404030000000 1.0
C      1  0.5354260000000  0.5504640000000  0.4699480000000 1.0
C      1  0.6134170000000  0.4407520000000  0.5362510000000 1.0
C      1  0.5324620000000  0.4364920000000  0.4650650000000 1.0
C      1  0.4437710000000  0.5092850000000  0.5545460000000 1.0
C      1  0.5478140000000  0.4565880000000  0.4807950000000 1.0
C      1  0.6429050000000  0.5288410000000  0.4825930000000 1.0
C      1  0.5178440000000  0.4668660000000  0.5895530000000 1.0
C      1  0.5533070000000  0.4079630000000  0.4346270000000 1.0
C      1  0.5963960000000  0.4260190000000  0.4586120000000 1.0
C      1  0.4578890000000  0.5445850000000  0.6057210000000 1.0
C      1  0.4996580000000  0.4907680000000  0.5398420000000 1.0
C      1  0.4442980000000  0.3964110000000  0.4640890000000 1.0
C      1  0.5666160000000  0.5167280000000  0.4941100000000 1.0
END
