TITL C-599893-4344-1233 1.56631136551296 125000 -104.216046585815 0 0 19 (C1) n - 1
REM
REM in /home/nfs/bkarasulu/CARBON/AIRSS/Generating-Clusters/TERSOFF/Only-C1/FIRE-HFTN
REM
REM
REM
REM
REM
REM ./C.cell (11c1c37f851c82e70ff6c80c92926a4b)
REM AIRSS Version 0.9.1 bugfix July 2018 build 013d7b7c2542+ Fri, 06 Jul 2018 19:26:36 +0100
REM compiler GCC version 9.2.1 20190827 (Red Hat 9.2.1-1)
REM options -cpp -mtune=generic -march=x86-64 -g -O0 -fpre-include=/usr/include/finclude/math-vector-fortran.h
REM seed -1096940811 -807878167 60607716 -1688459511 993540102 708533359 1986582012 1308220105 885495777 -1356556619 2128800720 1639228050 -2070619127 1498855645 965976987 1812705951 -1703040738 113961706 -1980437342 -1290266138 2115372608 -151597097 -1950824126 -1561787299 -2052145392 -49663019 -87133776 1967871305 -1184817552 -1486267959 1800375916 101099816 -1160113207
REM
CELL 1.54180   50.00000   50.00000   50.00000   90.00000   90.00000   90.00000
LATT -1
SFAC C  
C      1  0.5812500000000  0.5290430000000  0.4472560000000 1.0
C      1  0.5431270000000  0.4682630000000  0.5689490000000 1.0
C      1  0.3617600000000  0.4646540000000  0.5312580000000 1.0
C      1  0.5849190000000  0.4750410000000  0.4690360000000 1.0
C      1  0.4100140000000  0.4823020000000  0.5201030000000 1.0
C      1  0.4681440000000  0.5506460000000  0.4812190000000 1.0
C      1  0.4870380000000  0.5310120000000  0.4836110000000 1.0
C      1  0.5663970000000  0.4935650000000  0.4769420000000 1.0
C      1  0.5611430000000  0.5165970000000  0.4610050000000 1.0
C      1  0.3856870000000  0.4734050000000  0.5257270000000 1.0
C      1  0.5100620000000  0.5313750000000  0.4676990000000 1.0
C      1  0.4839870000000  0.5100130000000  0.5026160000000 1.0
C      1  0.4585970000000  0.5001810000000  0.5088100000000 1.0
C      1  0.5066270000000  0.4989390000000  0.5147270000000 1.0
C      1  0.4343330000000  0.4911980000000  0.5144800000000 1.0
C      1  0.5321490000000  0.4890260000000  0.5203460000000 1.0
C      1  0.5378300000000  0.4782970000000  0.5454860000000 1.0
C      1  0.5519480000000  0.4899190000000  0.5006360000000 1.0
C      1  0.5349880000000  0.5265240000000  0.4600930000000 1.0
END
