TITL C-599895-9959-1073 1.27666320670863 125000 -377.662474347434 0 0 62 (C1) n - 1
REM
REM in /home/nfs/bkarasulu/CARBON/AIRSS/Generating-Clusters/TERSOFF/Only-C1/FIRE-HFTN
REM
REM
REM
REM
REM
REM ./C.cell (11c1c37f851c82e70ff6c80c92926a4b)
REM AIRSS Version 0.9.1 bugfix July 2018 build 013d7b7c2542+ Fri, 06 Jul 2018 19:26:36 +0100
REM compiler GCC version 9.2.1 20190827 (Red Hat 9.2.1-1)
REM options -cpp -mtune=generic -march=x86-64 -g -O0 -fpre-include=/usr/include/finclude/math-vector-fortran.h
REM seed -472856878 -1876288857 1996100971 -692636795 516197550 1618944585 -1304599999 2060454765 565585779 2127683396 -685586564 4227041 360510067 -107230546 -2026077411 -467062073 229752640 2009534155 -15751884 -1698742979 -1122355341 -1451487816 -220125837 953683363 1829355906 390912543 313704528 -68694819 -103774447 1750914132 1879627068 -1319635908 1653115742
REM
CELL 1.54180   50.00000   50.00000   50.00000   90.00000   90.00000   90.00000
LATT -1
SFAC C  
C      1  0.5104250000000  0.6066210000000  0.5693900000000 1.0
C      1  0.4562820000000  0.5424090000000  0.4511240000000 1.0
C      1  0.4943440000000  0.5146680000000  0.4408500000000 1.0
C      1  0.4737010000000  0.4699570000000  0.4314790000000 1.0
C      1  0.4620680000000  0.4407460000000  0.5519830000000 1.0
C      1  0.3817900000000  0.5069700000000  0.5189000000000 1.0
C      1  0.5514150000000  0.5553180000000  0.4578230000000 1.0
C      1  0.5787690000000  0.4928440000000  0.4681910000000 1.0
C      1  0.4963530000000  0.4286210000000  0.4438150000000 1.0
C      1  0.4994290000000  0.5553830000000  0.4693030000000 1.0
C      1  0.5633680000000  0.4709950000000  0.4695870000000 1.0
C      1  0.5839020000000  0.5204450000000  0.4705290000000 1.0
C      1  0.5276920000000  0.5121540000000  0.4772620000000 1.0
C      1  0.5261590000000  0.5619710000000  0.4634630000000 1.0
C      1  0.4854090000000  0.4277060000000  0.5604400000000 1.0
C      1  0.5970070000000  0.5303790000000  0.4932050000000 1.0
C      1  0.4838960000000  0.4750310000000  0.5022270000000 1.0
C      1  0.5918610000000  0.5592530000000  0.5361390000000 1.0
C      1  0.4832490000000  0.5546600000000  0.5226520000000 1.0
C      1  0.5256860000000  0.4494240000000  0.4943020000000 1.0
C      1  0.4681560000000  0.5051700000000  0.5363000000000 1.0
C      1  0.4453770000000  0.5032800000000  0.4776390000000 1.0
C      1  0.5550950000000  0.6164620000000  0.5865750000000 1.0
C      1  0.5370200000000  0.4610890000000  0.4708580000000 1.0
C      1  0.4031820000000  0.4928200000000  0.5235040000000 1.0
C      1  0.4979460000000  0.4563790000000  0.4391610000000 1.0
C      1  0.5471990000000  0.5784570000000  0.5562910000000 1.0
C      1  0.5265870000000  0.5632080000000  0.5441040000000 1.0
C      1  0.4918400000000  0.5924130000000  0.5555430000000 1.0
C      1  0.4267600000000  0.4784910000000  0.5269610000000 1.0
C      1  0.4906750000000  0.4919730000000  0.5242140000000 1.0
C      1  0.5737010000000  0.5392340000000  0.4514870000000 1.0
C      1  0.4396650000000  0.5256800000000  0.4641580000000 1.0
C      1  0.5152900000000  0.5009510000000  0.4546270000000 1.0
C      1  0.4578320000000  0.3891520000000  0.5109970000000 1.0
C      1  0.5391770000000  0.4375880000000  0.5158760000000 1.0
C      1  0.4639420000000  0.4858560000000  0.4856830000000 1.0
C      1  0.5997370000000  0.5441940000000  0.5157150000000 1.0
C      1  0.4326650000000  0.4516870000000  0.4601500000000 1.0
C      1  0.5857400000000  0.5415730000000  0.4269970000000 1.0
C      1  0.5322830000000  0.4275920000000  0.5397770000000 1.0
C      1  0.5737310000000  0.5718960000000  0.5509040000000 1.0
C      1  0.5306610000000  0.5123280000000  0.5038350000000 1.0
C      1  0.5165030000000  0.5028550000000  0.5245560000000 1.0
C      1  0.4828430000000  0.4261230000000  0.4914590000000 1.0
C      1  0.4677460000000  0.5330800000000  0.5324730000000 1.0
C      1  0.4775710000000  0.4974140000000  0.4256480000000 1.0
C      1  0.4318430000000  0.4532800000000  0.5136380000000 1.0
C      1  0.4635540000000  0.4158140000000  0.5095030000000 1.0
C      1  0.5114610000000  0.4237150000000  0.5560910000000 1.0
C      1  0.5182460000000  0.4723010000000  0.4519480000000 1.0
C      1  0.4883520000000  0.5586080000000  0.4951380000000 1.0
C      1  0.4554470000000  0.4662710000000  0.5624270000000 1.0
C      1  0.4877930000000  0.4155480000000  0.4657850000000 1.0
C      1  0.4503340000000  0.4347870000000  0.5262480000000 1.0
C      1  0.5383170000000  0.6012380000000  0.5714050000000 1.0
C      1  0.4258390000000  0.4498400000000  0.4861000000000 1.0
C      1  0.4990910000000  0.5693360000000  0.5408240000000 1.0
C      1  0.4475780000000  0.4872380000000  0.5448950000000 1.0
C      1  0.4844550000000  0.5397790000000  0.4505490000000 1.0
C      1  0.4489570000000  0.4593240000000  0.4401580000000 1.0
C      1  0.4970010000000  0.4504230000000  0.4971320000000 1.0
END
