TITL C-599891-72-956 -998.628699434396 125000 -510.653872936481 0 0 85 (C1) n - 1
REM
REM in /home/nfs/bkarasulu/CARBON/AIRSS/Generating-Clusters/TERSOFF/Only-C1/FIRE-HFTN
REM
REM
REM
REM
REM
REM ./C.cell (11c1c37f851c82e70ff6c80c92926a4b)
REM AIRSS Version 0.9.1 bugfix July 2018 build 013d7b7c2542+ Fri, 06 Jul 2018 19:26:36 +0100
REM compiler GCC version 9.2.1 20190827 (Red Hat 9.2.1-1)
REM options -cpp -mtune=generic -march=x86-64 -g -O0 -fpre-include=/usr/include/finclude/math-vector-fortran.h
REM seed 1196734009 -1970580689 -701891722 1486298711 1068465768 -1172043117 1451949743 -1481713974 850051168 879159312 -1077314107 -395133543 766910686 419296842 -1277746074 876775324 1871900052 57391869 -277761899 822469655 -57043451 -984731670 -1712162992 484353178 1119741713 251126913 1785326099 -91759225 608071101 -1172609020 1056273732 -861506795 505370264
REM
CELL 1.54180   50.00000   50.00000   50.00000   90.00000   90.00000   90.00000
LATT -1
SFAC C  
C      1  0.4233780000000  0.4868820000000  0.5110240000000 1.0
C      1  0.4308400000000  0.4881180000000  0.5416620000000 1.0
C      1  0.5504560000000  0.5289960000000  0.5574070000000 1.0
C      1  0.5898600000000  0.5365760000000  0.5241280000000 1.0
C      1  0.4781150000000  0.4909810000000  0.4300230000000 1.0
C      1  0.4768480000000  0.5206530000000  0.5611850000000 1.0
C      1  0.5061670000000  0.4697680000000  0.5806230000000 1.0
C      1  0.4543640000000  0.4912350000000  0.6001250000000 1.0
C      1  0.4272530000000  0.5325790000000  0.4485340000000 1.0
C      1  0.4786260000000  0.4793220000000  0.5863740000000 1.0
C      1  0.5029780000000  0.5415800000000  0.5006500000000 1.0
C      1  0.5119210000000  0.5307920000000  0.5903010000000 1.0
C      1  0.4513830000000  0.5714200000000  0.4910270000000 1.0
C      1  0.5283360000000  0.5299440000000  0.5050100000000 1.0
C      1  0.6160800000000  0.5039890000000  0.4659150000000 1.0
C      1  0.5899420000000  0.4435880000000  0.5547630000000 1.0
C      1  0.4676740000000  0.4432790000000  0.3444400000000 1.0
C      1  0.4643510000000  0.5183440000000  0.6064390000000 1.0
C      1  0.4579220000000  0.4962800000000  0.4592790000000 1.0
C      1  0.4727090000000  0.4498940000000  0.3691490000000 1.0
C      1  0.4799620000000  0.4637880000000  0.4210660000000 1.0
C      1  0.4759280000000  0.5256760000000  0.5334950000000 1.0
C      1  0.5367040000000  0.5028080000000  0.5034760000000 1.0
C      1  0.5105620000000  0.4370090000000  0.4818310000000 1.0
C      1  0.5052010000000  0.4556210000000  0.5542970000000 1.0
C      1  0.5034390000000  0.5364340000000  0.4280680000000 1.0
C      1  0.4854240000000  0.4387360000000  0.5427870000000 1.0
C      1  0.4843720000000  0.4448320000000  0.4418050000000 1.0
C      1  0.4867290000000  0.5813310000000  0.4238590000000 1.0
C      1  0.4741600000000  0.4921350000000  0.5615710000000 1.0
C      1  0.5939000000000  0.5203030000000  0.4730890000000 1.0
C      1  0.5313660000000  0.4863600000000  0.5811190000000 1.0
C      1  0.4727330000000  0.4998290000000  0.5189000000000 1.0
C      1  0.5291340000000  0.4979280000000  0.4312020000000 1.0
C      1  0.5635250000000  0.5411340000000  0.5340140000000 1.0
C      1  0.4605540000000  0.4815220000000  0.5387440000000 1.0
C      1  0.4275300000000  0.5582170000000  0.4982330000000 1.0
C      1  0.5714140000000  0.4666750000000  0.4880660000000 1.0
C      1  0.5078400000000  0.4313110000000  0.4530790000000 1.0
C      1  0.4486790000000  0.4684210000000  0.4705930000000 1.0
C      1  0.5115470000000  0.5452150000000  0.4544010000000 1.0
C      1  0.4211740000000  0.5103860000000  0.4933880000000 1.0
C      1  0.4712210000000  0.4530540000000  0.4660390000000 1.0
C      1  0.4612990000000  0.4526570000000  0.5357010000000 1.0
C      1  0.5477610000000  0.5494700000000  0.5113160000000 1.0
C      1  0.4324270000000  0.5113890000000  0.4660960000000 1.0
C      1  0.5173790000000  0.4854660000000  0.5139240000000 1.0
C      1  0.5525780000000  0.5055500000000  0.4427690000000 1.0
C      1  0.4771310000000  0.4566090000000  0.3943930000000 1.0
C      1  0.4353460000000  0.4633560000000  0.4962600000000 1.0
C      1  0.5393160000000  0.4246800000000  0.5194070000000 1.0
C      1  0.4915440000000  0.4596580000000  0.4854130000000 1.0
C      1  0.4876740000000  0.5482460000000  0.5228830000000 1.0
C      1  0.4889200000000  0.5389760000000  0.4742500000000 1.0
C      1  0.4451000000000  0.5523900000000  0.4472460000000 1.0
C      1  0.5339850000000  0.5601580000000  0.4644380000000 1.0
C      1  0.4947680000000  0.5580460000000  0.4121710000000 1.0
C      1  0.4299830000000  0.4905650000000  0.5738200000000 1.0
C      1  0.6191040000000  0.4793660000000  0.4768670000000 1.0
C      1  0.5326040000000  0.5157350000000  0.5768810000000 1.0
C      1  0.4635410000000  0.4182000000000  0.5070710000000 1.0
C      1  0.5971700000000  0.5337000000000  0.4981220000000 1.0
C      1  0.4898730000000  0.4189890000000  0.5209000000000 1.0
C      1  0.3890510000000  0.5371010000000  0.5184970000000 1.0
C      1  0.4821910000000  0.5752170000000  0.5291620000000 1.0
C      1  0.5232320000000  0.4661030000000  0.5341510000000 1.0
C      1  0.5550090000000  0.4714030000000  0.5747090000000 1.0
C      1  0.5460080000000  0.4484190000000  0.5336060000000 1.0
C      1  0.4813740000000  0.5081670000000  0.4752130000000 1.0
C      1  0.5597350000000  0.4449450000000  0.4762310000000 1.0
C      1  0.5678860000000  0.5090360000000  0.4664920000000 1.0
C      1  0.5486960000000  0.5653590000000  0.4871550000000 1.0
C      1  0.4667920000000  0.5616630000000  0.4668170000000 1.0
C      1  0.5647470000000  0.4539530000000  0.5543470000000 1.0
C      1  0.5997100000000  0.4659470000000  0.4900480000000 1.0
C      1  0.5582550000000  0.4923290000000  0.4880400000000 1.0
C      1  0.4835250000000  0.5297910000000  0.5872860000000 1.0
C      1  0.4646740000000  0.5868790000000  0.5104940000000 1.0
C      1  0.4120730000000  0.5353950000000  0.5038920000000 1.0
C      1  0.4792980000000  0.5840290000000  0.4499840000000 1.0
C      1  0.4474920000000  0.4421430000000  0.5123200000000 1.0
C      1  0.4928360000000  0.5884200000000  0.5504010000000 1.0
C      1  0.5023090000000  0.5077440000000  0.4264890000000 1.0
C      1  0.4909590000000  0.4880860000000  0.4979100000000 1.0
C      1  0.5143450000000  0.4217180000000  0.5056530000000 1.0
END
