TITL C-599897-7526-1263 181.301462041905 125000 -1056.29280100418 0 0 173 (C1) n - 1
REM
REM in /home/nfs/bkarasulu/CARBON/AIRSS/Generating-Clusters/TERSOFF/Only-C1/FIRE-HFTN
REM
REM
REM
REM
REM
REM ./C.cell (11c1c37f851c82e70ff6c80c92926a4b)
REM AIRSS Version 0.9.1 bugfix July 2018 build 013d7b7c2542+ Fri, 06 Jul 2018 19:26:36 +0100
REM compiler GCC version 9.2.1 20190827 (Red Hat 9.2.1-1)
REM options -cpp -mtune=generic -march=x86-64 -g -O0 -fpre-include=/usr/include/finclude/math-vector-fortran.h
REM seed -1147651214 422894004 64494878 144603733 -2121160589 962906021 898906452 918169878 -772840025 -479284231 1093483245 333491019 -1348894992 940594584 1342177718 2030563914 -1251293536 1346508713 32063130 808681095 1002525667 -1922996588 -2119702627 -1901124729 1469000754 -1745288784 1035716064 326509850 -1149524985 595511398 -173233000 -113459861 2049906474
REM
CELL 1.54180   50.00000   50.00000   50.00000   90.00000   90.00000   90.00000
LATT -1
SFAC C  
C      1  0.4055830000000  0.5366830000000  0.4407150000000 1.0
C      1  0.5482030000000  0.5678830000000  0.4209310000000 1.0
C      1  0.6025750000000  0.5411490000000  0.5036780000000 1.0
C      1  0.5316800000000  0.5624110000000  0.5262660000000 1.0
C      1  0.5897130000000  0.5522890000000  0.4614040000000 1.0
C      1  0.4297850000000  0.4942280000000  0.5099030000000 1.0
C      1  0.4391690000000  0.5060190000000  0.5977000000000 1.0
C      1  0.4657540000000  0.5402910000000  0.5642670000000 1.0
C      1  0.4747580000000  0.6003780000000  0.4450770000000 1.0
C      1  0.5153110000000  0.4312870000000  0.5906350000000 1.0
C      1  0.4698400000000  0.5706980000000  0.4323090000000 1.0
C      1  0.4191290000000  0.5813760000000  0.4501030000000 1.0
C      1  0.5156630000000  0.5745690000000  0.4821570000000 1.0
C      1  0.4596570000000  0.5653400000000  0.4843730000000 1.0
C      1  0.4071540000000  0.4753150000000  0.5720530000000 1.0
C      1  0.3934220000000  0.5352220000000  0.5259580000000 1.0
C      1  0.4839730000000  0.6108400000000  0.5472320000000 1.0
C      1  0.4511690000000  0.5366040000000  0.4851600000000 1.0
C      1  0.4980490000000  0.5499520000000  0.3958330000000 1.0
C      1  0.5989670000000  0.4777310000000  0.4549390000000 1.0
C      1  0.4027090000000  0.4409270000000  0.5507290000000 1.0
C      1  0.4430100000000  0.5111160000000  0.5288220000000 1.0
C      1  0.5673560000000  0.5611320000000  0.4786240000000 1.0
C      1  0.3996350000000  0.5115240000000  0.4533690000000 1.0
C      1  0.4768170000000  0.5676830000000  0.6021220000000 1.0
C      1  0.4507100000000  0.5176690000000  0.5548940000000 1.0
C      1  0.4845250000000  0.4071620000000  0.4276410000000 1.0
C      1  0.5804980000000  0.5621950000000  0.5071820000000 1.0
C      1  0.4387390000000  0.5766100000000  0.5017070000000 1.0
C      1  0.4967340000000  0.5200420000000  0.4855080000000 1.0
C      1  0.4839550000000  0.3984210000000  0.5384080000000 1.0
C      1  0.5211490000000  0.5338110000000  0.3968850000000 1.0
C      1  0.4810880000000  0.6160870000000  0.4693280000000 1.0
C      1  0.5490930000000  0.3874960000000  0.5335500000000 1.0
C      1  0.5600330000000  0.5181740000000  0.4233720000000 1.0
C      1  0.5364690000000  0.4145560000000  0.5793420000000 1.0
C      1  0.4300810000000  0.5421980000000  0.4256840000000 1.0
C      1  0.5848520000000  0.4674500000000  0.5327770000000 1.0
C      1  0.5242010000000  0.4276730000000  0.5313930000000 1.0
C      1  0.5368970000000  0.5019320000000  0.4631240000000 1.0
C      1  0.4886790000000  0.3899760000000  0.4485330000000 1.0
C      1  0.5281090000000  0.4609320000000  0.4458840000000 1.0
C      1  0.5681390000000  0.4444300000000  0.4119840000000 1.0
C      1  0.3905530000000  0.5067630000000  0.5324660000000 1.0
C      1  0.5601060000000  0.4099060000000  0.4486660000000 1.0
C      1  0.6298450000000  0.4779580000000  0.5212200000000 1.0
C      1  0.4733970000000  0.4818840000000  0.3999780000000 1.0
C      1  0.5629840000000  0.6065200000000  0.4517020000000 1.0
C      1  0.4375920000000  0.5575470000000  0.5247300000000 1.0
C      1  0.4995360000000  0.5790170000000  0.5893980000000 1.0
C      1  0.5222910000000  0.5603860000000  0.5891410000000 1.0
C      1  0.5496230000000  0.6031620000000  0.5007120000000 1.0
C      1  0.5124540000000  0.4537100000000  0.5364870000000 1.0
C      1  0.4864740000000  0.4542000000000  0.5240030000000 1.0
C      1  0.4725620000000  0.5513440000000  0.4072440000000 1.0
C      1  0.3870400000000  0.4586740000000  0.5358390000000 1.0
C      1  0.5674840000000  0.4071950000000  0.5229130000000 1.0
C      1  0.4561190000000  0.5332550000000  0.5145250000000 1.0
C      1  0.5056330000000  0.4828030000000  0.6157200000000 1.0
C      1  0.4784310000000  0.4788320000000  0.5708390000000 1.0
C      1  0.4513420000000  0.5301740000000  0.4098270000000 1.0
C      1  0.4943600000000  0.5999630000000  0.5700410000000 1.0
C      1  0.6236830000000  0.5317040000000  0.5203870000000 1.0
C      1  0.4674510000000  0.4321740000000  0.4628630000000 1.0
C      1  0.4667220000000  0.5434890000000  0.5924580000000 1.0
C      1  0.4159460000000  0.4430520000000  0.4287840000000 1.0
C      1  0.4994470000000  0.5076800000000  0.5312760000000 1.0
C      1  0.5224510000000  0.3848680000000  0.4850130000000 1.0
C      1  0.4418830000000  0.3957120000000  0.4818840000000 1.0
C      1  0.5839800000000  0.4960390000000  0.5381270000000 1.0
C      1  0.5929790000000  0.4511600000000  0.4511630000000 1.0
C      1  0.5232990000000  0.6010680000000  0.4894680000000 1.0
C      1  0.4519400000000  0.4876480000000  0.4651500000000 1.0
C      1  0.4947240000000  0.4705210000000  0.4765030000000 1.0
C      1  0.5438690000000  0.5404960000000  0.4134600000000 1.0
C      1  0.4001590000000  0.4938570000000  0.5049090000000 1.0
C      1  0.5454530000000  0.5179250000000  0.5168430000000 1.0
C      1  0.4204880000000  0.5275820000000  0.5898010000000 1.0
C      1  0.4522370000000  0.5015670000000  0.4077110000000 1.0
C      1  0.3979670000000  0.4609780000000  0.4399890000000 1.0
C      1  0.3928700000000  0.5132340000000  0.4821820000000 1.0
C      1  0.4879520000000  0.5682140000000  0.4764520000000 1.0
C      1  0.4918800000000  0.4962480000000  0.5556380000000 1.0
C      1  0.4968290000000  0.5100150000000  0.6064640000000 1.0
C      1  0.4954580000000  0.5017850000000  0.4423270000000 1.0
C      1  0.5662200000000  0.6109430000000  0.4785460000000 1.0
C      1  0.6005220000000  0.5295900000000  0.4758450000000 1.0
C      1  0.5597480000000  0.4694200000000  0.4905780000000 1.0
C      1  0.5656440000000  0.5890750000000  0.4291700000000 1.0
C      1  0.5422590000000  0.3944500000000  0.5611790000000 1.0
C      1  0.4851540000000  0.5236310000000  0.5123600000000 1.0
C      1  0.5581550000000  0.5797060000000  0.5254970000000 1.0
C      1  0.4482970000000  0.4481350000000  0.5510850000000 1.0
C      1  0.5020330000000  0.4125760000000  0.5218490000000 1.0
C      1  0.5246080000000  0.4968570000000  0.5184190000000 1.0
C      1  0.6036220000000  0.5642860000000  0.4403590000000 1.0
C      1  0.4675280000000  0.4542430000000  0.4105880000000 1.0
C      1  0.5616670000000  0.5818510000000  0.5556850000000 1.0
C      1  0.4138030000000  0.5496600000000  0.5408230000000 1.0
C      1  0.6131700000000  0.4298560000000  0.5237610000000 1.0
C      1  0.4875190000000  0.4432320000000  0.4791020000000 1.0
C      1  0.4904410000000  0.4181040000000  0.5862320000000 1.0
C      1  0.3972940000000  0.5611020000000  0.4538850000000 1.0
C      1  0.5752180000000  0.4328100000000  0.4372030000000 1.0
C      1  0.5668780000000  0.4963630000000  0.4062490000000 1.0
C      1  0.5417770000000  0.4288240000000  0.4853380000000 1.0
C      1  0.5715530000000  0.5079640000000  0.5154950000000 1.0
C      1  0.4538350000000  0.4652870000000  0.5732610000000 1.0
C      1  0.5872510000000  0.5035580000000  0.4667650000000 1.0
C      1  0.6324250000000  0.5046820000000  0.5190220000000 1.0
C      1  0.4972470000000  0.4895520000000  0.3874230000000 1.0
C      1  0.5466090000000  0.5708730000000  0.5763030000000 1.0
C      1  0.4392640000000  0.4562580000000  0.4180870000000 1.0
C      1  0.4839300000000  0.5550180000000  0.5487780000000 1.0
C      1  0.5386430000000  0.5559400000000  0.4819620000000 1.0
C      1  0.4225190000000  0.4019710000000  0.5023910000000 1.0
C      1  0.5408160000000  0.4042170000000  0.4706980000000 1.0
C      1  0.5752130000000  0.4929800000000  0.4917080000000 1.0
C      1  0.4879570000000  0.4347050000000  0.4195270000000 1.0
C      1  0.5814110000000  0.5057250000000  0.5642720000000 1.0
C      1  0.3896160000000  0.5390070000000  0.4971620000000 1.0
C      1  0.4928350000000  0.3842330000000  0.4771340000000 1.0
C      1  0.4418380000000  0.4646930000000  0.4789010000000 1.0
C      1  0.5928520000000  0.5827440000000  0.4239010000000 1.0
C      1  0.5495240000000  0.4297440000000  0.5149890000000 1.0
C      1  0.4146060000000  0.5823320000000  0.4889230000000 1.0
C      1  0.4393490000000  0.5687230000000  0.4353950000000 1.0
C      1  0.5327020000000  0.3763260000000  0.5116210000000 1.0
C      1  0.5365220000000  0.5421530000000  0.5072830000000 1.0
C      1  0.5432930000000  0.4541530000000  0.4714680000000 1.0
C      1  0.3881850000000  0.4663180000000  0.5082250000000 1.0
C      1  0.5216760000000  0.4892410000000  0.4422660000000 1.0
C      1  0.4936040000000  0.5269310000000  0.4565500000000 1.0
C      1  0.5951670000000  0.4099770000000  0.5227040000000 1.0
C      1  0.5583160000000  0.4586270000000  0.5200010000000 1.0
C      1  0.4871000000000  0.5538140000000  0.4514830000000 1.0
C      1  0.4897430000000  0.4325830000000  0.5045590000000 1.0
C      1  0.4668610000000  0.3852020000000  0.4943700000000 1.0
C      1  0.4322820000000  0.4802180000000  0.5848230000000 1.0
C      1  0.5069450000000  0.5636780000000  0.5384870000000 1.0
C      1  0.6454220000000  0.5659110000000  0.5560010000000 1.0
C      1  0.4468920000000  0.4148690000000  0.4620960000000 1.0
C      1  0.4673060000000  0.5168830000000  0.6045000000000 1.0
C      1  0.5137960000000  0.4585010000000  0.6012360000000 1.0
C      1  0.3904320000000  0.4843890000000  0.5512370000000 1.0
C      1  0.5133740000000  0.4445680000000  0.4281780000000 1.0
C      1  0.5443740000000  0.5171770000000  0.5952660000000 1.0
C      1  0.5674200000000  0.4697070000000  0.4023000000000 1.0
C      1  0.4826290000000  0.4021430000000  0.5661050000000 1.0
C      1  0.3941680000000  0.5629710000000  0.4832780000000 1.0
C      1  0.5061240000000  0.4801160000000  0.6434310000000 1.0
C      1  0.4611400000000  0.3911660000000  0.5237380000000 1.0
C      1  0.4349120000000  0.4057310000000  0.5284700000000 1.0
C      1  0.4070420000000  0.4885100000000  0.4378330000000 1.0
C      1  0.5090480000000  0.6205190000000  0.4747510000000 1.0
C      1  0.4311270000000  0.4857090000000  0.4200300000000 1.0
C      1  0.5192320000000  0.5309230000000  0.5981020000000 1.0
C      1  0.4738580000000  0.6162300000000  0.5225070000000 1.0
C      1  0.5343650000000  0.4735330000000  0.5346500000000 1.0
C      1  0.4434620000000  0.5110450000000  0.4771670000000 1.0
C      1  0.4139830000000  0.5444890000000  0.5692470000000 1.0
C      1  0.5615110000000  0.5116280000000  0.4516540000000 1.0
C      1  0.5161880000000  0.4949700000000  0.4882540000000 1.0
C      1  0.5569210000000  0.5005130000000  0.5770260000000 1.0
C      1  0.4279280000000  0.4284630000000  0.5463320000000 1.0
C      1  0.5167970000000  0.5078530000000  0.3866420000000 1.0
C      1  0.4421580000000  0.4679200000000  0.5069420000000 1.0
C      1  0.4784060000000  0.4843130000000  0.4570570000000 1.0
C      1  0.6357260000000  0.5491870000000  0.5385240000000 1.0
C      1  0.4686030000000  0.6182610000000  0.4956760000000 1.0
C      1  0.6109160000000  0.4576000000000  0.5265210000000 1.0
C      1  0.5417860000000  0.4816960000000  0.5625200000000 1.0
C      1  0.4591810000000  0.4585990000000  0.5271920000000 1.0
END
