TITL C-599893-4344-402 0.0410618633445108 125000 -99.7579193206839 0 0 18 (C1) n - 1
REM
REM in /home/nfs/bkarasulu/CARBON/AIRSS/Generating-Clusters/TERSOFF/Only-C1/FIRE-HFTN
REM
REM
REM
REM
REM
REM ./C.cell (11c1c37f851c82e70ff6c80c92926a4b)
REM AIRSS Version 0.9.1 bugfix July 2018 build 013d7b7c2542+ Fri, 06 Jul 2018 19:26:36 +0100
REM compiler GCC version 9.2.1 20190827 (Red Hat 9.2.1-1)
REM options -cpp -mtune=generic -march=x86-64 -g -O0 -fpre-include=/usr/include/finclude/math-vector-fortran.h
REM seed -1953077196 -1312906624 133500020 -1922180949 510185713 1405858734 1934066741 -497225113 567332954 1551127581 1253304890 -1517397195 -1168140635 -1272124314 -1132009283 -723593704 1305503268 -826817019 286379724 817859000 1775928535 355838504 1972869063 -677192093 1659411049 -1511963142 1557541839 28273065 -1721340108 1268762861 -472075493 1389572783 -465543468
REM
CELL 1.54180   50.00000   50.00000   50.00000   90.00000   90.00000   90.00000
LATT -1
SFAC C  
C      1  0.5073240000000  0.4809670000000  0.4809680000000 1.0
C      1  0.4509240000000  0.5048580000000  0.4684420000000 1.0
C      1  0.5298230000000  0.5045140000000  0.5465090000000 1.0
C      1  0.4441060000000  0.5209050000000  0.4884430000000 1.0
C      1  0.4670520000000  0.4872220000000  0.4538900000000 1.0
C      1  0.4630270000000  0.5374500000000  0.5333430000000 1.0
C      1  0.4481740000000  0.5328890000000  0.5117920000000 1.0
C      1  0.5227230000000  0.4713360000000  0.5022550000000 1.0
C      1  0.5253710000000  0.5080170000000  0.4164420000000 1.0
C      1  0.5109530000000  0.4988140000000  0.4361040000000 1.0
C      1  0.4560060000000  0.4685860000000  0.4372020000000 1.0
C      1  0.4849640000000  0.5332370000000  0.5477170000000 1.0
C      1  0.4952980000000  0.4889100000000  0.4570170000000 1.0
C      1  0.5284970000000  0.4880670000000  0.5239200000000 1.0
C      1  0.5084220000000  0.5216230000000  0.5521030000000 1.0
C      1  0.5730660000000  0.5031300000000  0.5787640000000 1.0
C      1  0.5321030000000  0.4456340000000  0.5018810000000 1.0
C      1  0.5521670000000  0.5038410000000  0.5632080000000 1.0
END
