TITL C-599897-7526-1344 8.44977913858042 125000 -242.00009976179 0 0 41 (C1) n - 1
REM
REM in /home/nfs/bkarasulu/CARBON/AIRSS/Generating-Clusters/TERSOFF/Only-C1/FIRE-HFTN
REM
REM
REM
REM
REM
REM ./C.cell (11c1c37f851c82e70ff6c80c92926a4b)
REM AIRSS Version 0.9.1 bugfix July 2018 build 013d7b7c2542+ Fri, 06 Jul 2018 19:26:36 +0100
REM compiler GCC version 9.2.1 20190827 (Red Hat 9.2.1-1)
REM options -cpp -mtune=generic -march=x86-64 -g -O0 -fpre-include=/usr/include/finclude/math-vector-fortran.h
REM seed 2031455129 -2144709593 876751064 299544554 77383636 -605663145 1318320132 -152026123 151576554 -835249221 -1380167022 1101977070 1529171991 -1026845890 2030510947 1079566187 -1643054030 1818024249 991095371 -1197707338 -374223076 152397867 -1750283887 789045262 -1985805536 1291850525 -1798359044 1439940810 -76085203 -3531474 1577070949 -1777440598 1286460552
REM
CELL 1.54180   50.00000   50.00000   50.00000   90.00000   90.00000   90.00000
LATT -1
SFAC C  
C      1  0.5343010000000  0.4226050000000  0.5369660000000 1.0
C      1  0.5083460000000  0.5043230000000  0.5488390000000 1.0
C      1  0.5352400000000  0.5308930000000  0.4901820000000 1.0
C      1  0.5884430000000  0.4652450000000  0.5122560000000 1.0
C      1  0.3830720000000  0.6019480000000  0.4730910000000 1.0
C      1  0.3494920000000  0.6375420000000  0.4527340000000 1.0
C      1  0.5275460000000  0.4727960000000  0.4458310000000 1.0
C      1  0.4897990000000  0.4700810000000  0.5195180000000 1.0
C      1  0.5349270000000  0.5058880000000  0.5402730000000 1.0
C      1  0.4503220000000  0.5307800000000  0.5136850000000 1.0
C      1  0.5142870000000  0.5323210000000  0.4734140000000 1.0
C      1  0.5079690000000  0.4929050000000  0.4432600000000 1.0
C      1  0.5929710000000  0.4896610000000  0.5765810000000 1.0
C      1  0.5228150000000  0.4222830000000  0.4631460000000 1.0
C      1  0.4166520000000  0.5663530000000  0.4934470000000 1.0
C      1  0.5566460000000  0.5011790000000  0.5231000000000 1.0
C      1  0.4883010000000  0.4957810000000  0.5304720000000 1.0
C      1  0.5495290000000  0.4316160000000  0.5569240000000 1.0
C      1  0.5837700000000  0.4437200000000  0.4971740000000 1.0
C      1  0.3998620000000  0.5841500000000  0.4832690000000 1.0
C      1  0.5224770000000  0.4291250000000  0.5123140000000 1.0
C      1  0.5015230000000  0.5106290000000  0.5751500000000 1.0
C      1  0.5213040000000  0.4456220000000  0.4476090000000 1.0
C      1  0.5544710000000  0.5111130000000  0.4965000000000 1.0
C      1  0.5008510000000  0.4469220000000  0.5127050000000 1.0
C      1  0.5529340000000  0.4814720000000  0.4546420000000 1.0
C      1  0.5030950000000  0.5167480000000  0.4546270000000 1.0
C      1  0.3326980000000  0.6553430000000  0.4425520000000 1.0
C      1  0.4334430000000  0.5485560000000  0.5036220000000 1.0
C      1  0.3662820000000  0.6197450000000  0.4629120000000 1.0
C      1  0.5766110000000  0.4824240000000  0.5311020000000 1.0
C      1  0.5655090000000  0.4511020000000  0.5656640000000 1.0
C      1  0.5635290000000  0.4959920000000  0.4745030000000 1.0
C      1  0.4678790000000  0.5132300000000  0.5229180000000 1.0
C      1  0.5644330000000  0.4276020000000  0.4883100000000 1.0
C      1  0.3161810000000  0.6728520000000  0.4325380000000 1.0
C      1  0.5788020000000  0.4748550000000  0.5585880000000 1.0
C      1  0.5007770000000  0.3757510000000  0.4471960000000 1.0
C      1  0.5365290000000  0.4241530000000  0.4880010000000 1.0
C      1  0.4949290000000  0.5163840000000  0.5996970000000 1.0
C      1  0.5114560000000  0.3983110000000  0.4546910000000 1.0
END
