TITL C-599896-8500-664 95.8978268566248 125000 -1166.55073402319 0 0 190 (C1) n - 1
REM
REM in /home/nfs/bkarasulu/CARBON/AIRSS/Generating-Clusters/TERSOFF/Only-C1/FIRE-HFTN
REM
REM
REM
REM
REM
REM ./C.cell (11c1c37f851c82e70ff6c80c92926a4b)
REM AIRSS Version 0.9.1 bugfix July 2018 build 013d7b7c2542+ Fri, 06 Jul 2018 19:26:36 +0100
REM compiler GCC version 9.2.1 20190827 (Red Hat 9.2.1-1)
REM options -cpp -mtune=generic -march=x86-64 -g -O0 -fpre-include=/usr/include/finclude/math-vector-fortran.h
REM seed -878057651 1642552689 -887012540 -147270530 -485006554 -262328494 958589880 -1735769476 -186830901 118991347 -864251766 -1613331583 -1059797659 486974089 -737783718 995800007 1958715625 1597284448 1484242367 -1254111583 733097988 -882885912 1123697919 1336474220 -585683212 735055714 -36626739 173177988 -1833816706 2046688465 -716997467 -175669146 -411367691
REM
CELL 1.54180   50.00000   50.00000   50.00000   90.00000   90.00000   90.00000
LATT -1
SFAC C  
C      1  0.4651600000000  0.4720220000000  0.4335320000000 1.0
C      1  0.5822210000000  0.5672940000000  0.4372110000000 1.0
C      1  0.4559870000000  0.5747270000000  0.4519820000000 1.0
C      1  0.4931200000000  0.4072490000000  0.4310600000000 1.0
C      1  0.4674120000000  0.6000760000000  0.5437800000000 1.0
C      1  0.5365250000000  0.5722870000000  0.3879240000000 1.0
C      1  0.5115580000000  0.3575710000000  0.4822530000000 1.0
C      1  0.4524320000000  0.4304150000000  0.6062590000000 1.0
C      1  0.4902650000000  0.5446500000000  0.4303070000000 1.0
C      1  0.4374830000000  0.4814870000000  0.5493430000000 1.0
C      1  0.5036740000000  0.5010970000000  0.4430870000000 1.0
C      1  0.5117780000000  0.3863650000000  0.4409620000000 1.0
C      1  0.4700220000000  0.5790170000000  0.4766930000000 1.0
C      1  0.5468260000000  0.4814870000000  0.4021360000000 1.0
C      1  0.4472180000000  0.5012690000000  0.5951160000000 1.0
C      1  0.5404870000000  0.5195620000000  0.5565330000000 1.0
C      1  0.5022330000000  0.5191840000000  0.5264680000000 1.0
C      1  0.6104980000000  0.4910030000000  0.4485980000000 1.0
C      1  0.4671560000000  0.4263060000000  0.5504460000000 1.0
C      1  0.5452860000000  0.4525970000000  0.3997180000000 1.0
C      1  0.5488310000000  0.4097840000000  0.5422220000000 1.0
C      1  0.5380030000000  0.5901100000000  0.4389240000000 1.0
C      1  0.4508570000000  0.4601150000000  0.4543640000000 1.0
C      1  0.5004640000000  0.5378410000000  0.4766650000000 1.0
C      1  0.4303790000000  0.5884920000000  0.4476060000000 1.0
C      1  0.4472630000000  0.4642450000000  0.5685370000000 1.0
C      1  0.4417470000000  0.5459740000000  0.4145430000000 1.0
C      1  0.5489560000000  0.4989780000000  0.5155030000000 1.0
C      1  0.5218290000000  0.5147050000000  0.6045740000000 1.0
C      1  0.5845450000000  0.3898070000000  0.5163150000000 1.0
C      1  0.5312770000000  0.5146320000000  0.5310120000000 1.0
C      1  0.4140900000000  0.5968920000000  0.4695670000000 1.0
C      1  0.5895310000000  0.4765920000000  0.4358550000000 1.0
C      1  0.4317200000000  0.4594280000000  0.5103810000000 1.0
C      1  0.3397550000000  0.4342490000000  0.5299340000000 1.0
C      1  0.4061370000000  0.5049690000000  0.5053060000000 1.0
C      1  0.4212330000000  0.4160280000000  0.5292580000000 1.0
C      1  0.4255490000000  0.4534570000000  0.4091280000000 1.0
C      1  0.4725900000000  0.5102460000000  0.5855760000000 1.0
C      1  0.4553380000000  0.5009610000000  0.5401250000000 1.0
C      1  0.6141660000000  0.4476440000000  0.5156370000000 1.0
C      1  0.4837230000000  0.4653720000000  0.4939010000000 1.0
C      1  0.5412280000000  0.5584170000000  0.4838030000000 1.0
C      1  0.5906480000000  0.4484930000000  0.4439020000000 1.0
C      1  0.5708100000000  0.4606390000000  0.6043030000000 1.0
C      1  0.5872920000000  0.5379680000000  0.5644510000000 1.0
C      1  0.5917780000000  0.5185590000000  0.5849340000000 1.0
C      1  0.5682620000000  0.4928750000000  0.4218670000000 1.0
C      1  0.5202300000000  0.4404090000000  0.4042990000000 1.0
C      1  0.5866410000000  0.5635750000000  0.4915220000000 1.0
C      1  0.4221690000000  0.4820180000000  0.4956280000000 1.0
C      1  0.5277060000000  0.4236460000000  0.5910140000000 1.0
C      1  0.5501500000000  0.4553180000000  0.4800340000000 1.0
C      1  0.3862200000000  0.4450830000000  0.5046500000000 1.0
C      1  0.4613390000000  0.4583490000000  0.6135850000000 1.0
C      1  0.4758130000000  0.3899790000000  0.4703390000000 1.0
C      1  0.4112640000000  0.4420710000000  0.5194870000000 1.0
C      1  0.5446530000000  0.4704920000000  0.5669860000000 1.0
C      1  0.4000270000000  0.4911620000000  0.4468040000000 1.0
C      1  0.4777460000000  0.5110780000000  0.6287010000000 1.0
C      1  0.4990290000000  0.3742380000000  0.4638770000000 1.0
C      1  0.5042390000000  0.5852530000000  0.6048390000000 1.0
C      1  0.4447310000000  0.5274670000000  0.4832700000000 1.0
C      1  0.4263830000000  0.5676680000000  0.4041970000000 1.0
C      1  0.4713910000000  0.5995300000000  0.5717610000000 1.0
C      1  0.4767050000000  0.4646920000000  0.3872340000000 1.0
C      1  0.4532630000000  0.4522200000000  0.3965760000000 1.0
C      1  0.4524800000000  0.5371260000000  0.5094750000000 1.0
C      1  0.4950270000000  0.5264460000000  0.4514780000000 1.0
C      1  0.4588620000000  0.4503200000000  0.5044970000000 1.0
C      1  0.5398200000000  0.6098610000000  0.5207320000000 1.0
C      1  0.5395270000000  0.4359990000000  0.4624280000000 1.0
C      1  0.4691520000000  0.5571650000000  0.5214450000000 1.0
C      1  0.4508810000000  0.6202620000000  0.4850150000000 1.0
C      1  0.5674270000000  0.4359070000000  0.4043630000000 1.0
C      1  0.3876610000000  0.6034020000000  0.4673840000000 1.0
C      1  0.5003310000000  0.4790960000000  0.3758190000000 1.0
C      1  0.5207470000000  0.4465280000000  0.5321890000000 1.0
C      1  0.4275220000000  0.5214100000000  0.4184580000000 1.0
C      1  0.5244360000000  0.4944600000000  0.3867190000000 1.0
C      1  0.4529380000000  0.5789260000000  0.5312960000000 1.0
C      1  0.4204350000000  0.5032760000000  0.3981000000000 1.0
C      1  0.4719830000000  0.4526690000000  0.5598540000000 1.0
C      1  0.4506410000000  0.4304670000000  0.4531590000000 1.0
C      1  0.4837790000000  0.4767620000000  0.6240560000000 1.0
C      1  0.5186240000000  0.4428880000000  0.6080430000000 1.0
C      1  0.4208510000000  0.5883410000000  0.4209010000000 1.0
C      1  0.4455750000000  0.4736740000000  0.5948680000000 1.0
C      1  0.5866980000000  0.5861020000000  0.5368990000000 1.0
C      1  0.4185370000000  0.4001490000000  0.5039090000000 1.0
C      1  0.6073720000000  0.4648520000000  0.5369570000000 1.0
C      1  0.5410850000000  0.5346610000000  0.4237650000000 1.0
C      1  0.4929290000000  0.4725760000000  0.5555060000000 1.0
C      1  0.3958680000000  0.4630930000000  0.4514130000000 1.0
C      1  0.5450010000000  0.4828350000000  0.4716730000000 1.0
C      1  0.5472670000000  0.4981270000000  0.5704650000000 1.0
C      1  0.3860200000000  0.4538580000000  0.4770490000000 1.0
C      1  0.5029960000000  0.5578150000000  0.6119430000000 1.0
C      1  0.4947850000000  0.5486690000000  0.5316240000000 1.0
C      1  0.4767090000000  0.5433440000000  0.6145580000000 1.0
C      1  0.4228930000000  0.4221940000000  0.4531350000000 1.0
C      1  0.4970380000000  0.5172700000000  0.4969870000000 1.0
C      1  0.5064790000000  0.4317060000000  0.4268610000000 1.0
C      1  0.5199270000000  0.4623050000000  0.5555610000000 1.0
C      1  0.6044730000000  0.4405260000000  0.4674920000000 1.0
C      1  0.4810030000000  0.4949370000000  0.4897360000000 1.0
C      1  0.4288930000000  0.6012290000000  0.4940560000000 1.0
C      1  0.5660170000000  0.5215410000000  0.4311130000000 1.0
C      1  0.4396590000000  0.4806730000000  0.4719930000000 1.0
C      1  0.6076330000000  0.5191800000000  0.4900590000000 1.0
C      1  0.4162410000000  0.5148320000000  0.4441120000000 1.0
C      1  0.4640320000000  0.5555610000000  0.4308990000000 1.0
C      1  0.4398440000000  0.4156240000000  0.5545770000000 1.0
C      1  0.4958840000000  0.6023200000000  0.5855840000000 1.0
C      1  0.4991000000000  0.6324650000000  0.5217920000000 1.0
C      1  0.4003340000000  0.5312690000000  0.5136010000000 1.0
C      1  0.5390700000000  0.4116750000000  0.5693100000000 1.0
C      1  0.5122950000000  0.4689690000000  0.6188630000000 1.0
C      1  0.5214300000000  0.6312570000000  0.4803710000000 1.0
C      1  0.5705870000000  0.5599340000000  0.5747560000000 1.0
C      1  0.5006090000000  0.4779450000000  0.3477770000000 1.0
C      1  0.4991810000000  0.5103480000000  0.5878760000000 1.0
C      1  0.5363070000000  0.5876900000000  0.4103850000000 1.0
C      1  0.6002520000000  0.4047260000000  0.5007580000000 1.0
C      1  0.6080500000000  0.4308490000000  0.4938190000000 1.0
C      1  0.4113090000000  0.5561020000000  0.5277800000000 1.0
C      1  0.4017830000000  0.5506050000000  0.4713100000000 1.0
C      1  0.4270440000000  0.5426180000000  0.5501090000000 1.0
C      1  0.5136140000000  0.4421540000000  0.4524070000000 1.0
C      1  0.5632150000000  0.5757850000000  0.4794380000000 1.0
C      1  0.5686930000000  0.4570810000000  0.5759550000000 1.0
C      1  0.5598550000000  0.3868490000000  0.5294480000000 1.0
C      1  0.4942580000000  0.4531030000000  0.4688360000000 1.0
C      1  0.5575940000000  0.4506070000000  0.5075300000000 1.0
C      1  0.4571360000000  0.5025910000000  0.4769330000000 1.0
C      1  0.5626410000000  0.4752480000000  0.5209990000000 1.0
C      1  0.5432360000000  0.3655180000000  0.5221080000000 1.0
C      1  0.5953240000000  0.5387290000000  0.5352440000000 1.0
C      1  0.4385880000000  0.4172970000000  0.5850050000000 1.0
C      1  0.5045580000000  0.4564810000000  0.5124520000000 1.0
C      1  0.4856140000000  0.4873910000000  0.4274870000000 1.0
C      1  0.5498410000000  0.5048230000000  0.4884730000000 1.0
C      1  0.4822180000000  0.6101260000000  0.5217120000000 1.0
C      1  0.5439420000000  0.4321530000000  0.5251720000000 1.0
C      1  0.6056970000000  0.5168710000000  0.5192140000000 1.0
C      1  0.4158170000000  0.4063260000000  0.4766930000000 1.0
C      1  0.5801600000000  0.5069440000000  0.6066450000000 1.0
C      1  0.5327660000000  0.4906000000000  0.6164870000000 1.0
C      1  0.3620110000000  0.4396910000000  0.5175170000000 1.0
C      1  0.4811330000000  0.5919800000000  0.4984700000000 1.0
C      1  0.5540350000000  0.4167580000000  0.4468300000000 1.0
C      1  0.5846970000000  0.5397000000000  0.4466600000000 1.0
C      1  0.5950300000000  0.5404230000000  0.4754310000000 1.0
C      1  0.5395800000000  0.3928920000000  0.4409200000000 1.0
C      1  0.4215820000000  0.5324090000000  0.4663150000000 1.0
C      1  0.5338750000000  0.5479750000000  0.3759020000000 1.0
C      1  0.5146270000000  0.5890980000000  0.4574640000000 1.0
C      1  0.4741810000000  0.6234660000000  0.4694590000000 1.0
C      1  0.5914250000000  0.4559470000000  0.5589070000000 1.0
C      1  0.4843700000000  0.4976760000000  0.5415340000000 1.0
C      1  0.6113580000000  0.4924110000000  0.5321020000000 1.0
C      1  0.5154380000000  0.5668950000000  0.5376890000000 1.0
C      1  0.4316820000000  0.5425710000000  0.5788170000000 1.0
C      1  0.4639890000000  0.4224080000000  0.5059370000000 1.0
C      1  0.5325790000000  0.5867150000000  0.5324980000000 1.0
C      1  0.5761880000000  0.5845210000000  0.5619200000000 1.0
C      1  0.4138000000000  0.4771500000000  0.3972180000000 1.0
C      1  0.4254960000000  0.5184500000000  0.5920040000000 1.0
C      1  0.4110630000000  0.4433820000000  0.4351040000000 1.0
C      1  0.6181990000000  0.4996880000000  0.4728140000000 1.0
C      1  0.5273550000000  0.5426200000000  0.6068150000000 1.0
C      1  0.4533370000000  0.5841970000000  0.5872820000000 1.0
C      1  0.4699000000000  0.4093600000000  0.4490300000000 1.0
C      1  0.5240240000000  0.6298270000000  0.5085250000000 1.0
C      1  0.4268610000000  0.5813880000000  0.5173290000000 1.0
C      1  0.5288920000000  0.5212570000000  0.3766360000000 1.0
C      1  0.5619810000000  0.4861060000000  0.6146190000000 1.0
C      1  0.5911900000000  0.5636950000000  0.5201090000000 1.0
C      1  0.5637760000000  0.5839460000000  0.4514650000000 1.0
C      1  0.5148520000000  0.5640020000000  0.4745690000000 1.0
C      1  0.4518720000000  0.5570420000000  0.5941050000000 1.0
C      1  0.5501560000000  0.5547290000000  0.5941850000000 1.0
C      1  0.5266820000000  0.3551090000000  0.5040290000000 1.0
C      1  0.5271580000000  0.4888610000000  0.4511350000000 1.0
C      1  0.5026610000000  0.6152950000000  0.4654050000000 1.0
C      1  0.5163320000000  0.5453180000000  0.4186090000000 1.0
C      1  0.4699270000000  0.3983850000000  0.4961780000000 1.0
C      1  0.5480120000000  0.5314480000000  0.4826500000000 1.0
C      1  0.5744090000000  0.4291770000000  0.4308450000000 1.0
C      1  0.4431390000000  0.5245550000000  0.5336150000000 1.0
END
