TITL C-599891-72-106 0.0483354589413681 125000 -1165.63079768414 0 0 190 (C1) n - 1
REM
REM in /home/nfs/bkarasulu/CARBON/AIRSS/Generating-Clusters/TERSOFF/Only-C1/FIRE-HFTN
REM
REM
REM
REM
REM
REM ./C.cell (11c1c37f851c82e70ff6c80c92926a4b)
REM AIRSS Version 0.9.1 bugfix July 2018 build 013d7b7c2542+ Fri, 06 Jul 2018 19:26:36 +0100
REM compiler GCC version 9.2.1 20190827 (Red Hat 9.2.1-1)
REM options -cpp -mtune=generic -march=x86-64 -g -O0 -fpre-include=/usr/include/finclude/math-vector-fortran.h
REM seed -2121167627 -100540935 -837384813 1556022849 133116520 -1568829897 -908892564 1768099357 196038737 1065283279 -617052256 150053515 2000246711 723258909 -166942787 -1956951248 -1874211907 -1751066216 1040980216 -1096717151 886333889 1126302244 -109898797 -48766680 -1389596219 1639588366 1919297146 -1935430779 255238520 -2012054408 -797445225 -1352236176 -1835723243
REM
CELL 1.54180   50.00000   50.00000   50.00000   90.00000   90.00000   90.00000
LATT -1
SFAC C  
C      1  0.4051880000000  0.5460670000000  0.5523450000000 1.0
C      1  0.4345550000000  0.5292840000000  0.4601250000000 1.0
C      1  0.4854970000000  0.4817260000000  0.4656540000000 1.0
C      1  0.4706020000000  0.3147430000000  0.5487260000000 1.0
C      1  0.5050130000000  0.5959680000000  0.5493630000000 1.0
C      1  0.5047790000000  0.5685830000000  0.5586380000000 1.0
C      1  0.5338540000000  0.5638620000000  0.5641260000000 1.0
C      1  0.4464950000000  0.4401170000000  0.4940540000000 1.0
C      1  0.4220940000000  0.5541320000000  0.4569360000000 1.0
C      1  0.5502780000000  0.4509860000000  0.4637360000000 1.0
C      1  0.4178940000000  0.4315130000000  0.5309940000000 1.0
C      1  0.4671540000000  0.5440500000000  0.5975160000000 1.0
C      1  0.5356920000000  0.6014350000000  0.5111350000000 1.0
C      1  0.4191210000000  0.5037730000000  0.5202750000000 1.0
C      1  0.4552560000000  0.6073280000000  0.5634880000000 1.0
C      1  0.5002240000000  0.4221020000000  0.4314500000000 1.0
C      1  0.4745390000000  0.6206110000000  0.4700150000000 1.0
C      1  0.4497820000000  0.5754170000000  0.6292390000000 1.0
C      1  0.5694100000000  0.5264740000000  0.5752170000000 1.0
C      1  0.5444120000000  0.5376350000000  0.5633670000000 1.0
C      1  0.4213460000000  0.4346600000000  0.4383290000000 1.0
C      1  0.5249330000000  0.4663730000000  0.6174760000000 1.0
C      1  0.5222480000000  0.5477120000000  0.4799450000000 1.0
C      1  0.5838400000000  0.5221530000000  0.5298750000000 1.0
C      1  0.5823300000000  0.5990760000000  0.4710770000000 1.0
C      1  0.4828540000000  0.5878720000000  0.4354400000000 1.0
C      1  0.4634030000000  0.5407000000000  0.4116660000000 1.0
C      1  0.5122870000000  0.5367450000000  0.6408800000000 1.0
C      1  0.5151430000000  0.3720630000000  0.5375860000000 1.0
C      1  0.4647280000000  0.5743320000000  0.5122350000000 1.0
C      1  0.5329800000000  0.5347710000000  0.6229860000000 1.0
C      1  0.4388430000000  0.5229950000000  0.4045460000000 1.0
C      1  0.5270070000000  0.3839090000000  0.5602590000000 1.0
C      1  0.4631730000000  0.5247020000000  0.4671870000000 1.0
C      1  0.4453840000000  0.4944420000000  0.3979710000000 1.0
C      1  0.6123000000000  0.4555570000000  0.4480640000000 1.0
C      1  0.5431650000000  0.4605690000000  0.5112500000000 1.0
C      1  0.4862940000000  0.4552490000000  0.3829710000000 1.0
C      1  0.5308250000000  0.6036820000000  0.5391930000000 1.0
C      1  0.3996130000000  0.4215450000000  0.5108940000000 1.0
C      1  0.5279380000000  0.4016250000000  0.5802650000000 1.0
C      1  0.5304290000000  0.5305170000000  0.4052880000000 1.0
C      1  0.5535790000000  0.4238690000000  0.4735200000000 1.0
C      1  0.5172030000000  0.4711630000000  0.5593520000000 1.0
C      1  0.5670760000000  0.4741290000000  0.4102500000000 1.0
C      1  0.3946990000000  0.4993590000000  0.4115190000000 1.0
C      1  0.4725820000000  0.6022300000000  0.5152300000000 1.0
C      1  0.5443770000000  0.6016330000000  0.3989220000000 1.0
C      1  0.3565540000000  0.5740870000000  0.4816030000000 1.0
C      1  0.3863550000000  0.5243980000000  0.5537840000000 1.0
C      1  0.4893310000000  0.6127730000000  0.4931070000000 1.0
C      1  0.6163760000000  0.5199670000000  0.4334350000000 1.0
C      1  0.4676430000000  0.4498200000000  0.4032440000000 1.0
C      1  0.3822780000000  0.5358440000000  0.5040920000000 1.0
C      1  0.5693820000000  0.5946600000000  0.4071650000000 1.0
C      1  0.6060760000000  0.5456540000000  0.4411880000000 1.0
C      1  0.5226110000000  0.4216790000000  0.5970630000000 1.0
C      1  0.4734400000000  0.5514270000000  0.4621180000000 1.0
C      1  0.6033870000000  0.5819120000000  0.4743120000000 1.0
C      1  0.4339730000000  0.5416760000000  0.5451860000000 1.0
C      1  0.4696500000000  0.5132640000000  0.4957760000000 1.0
C      1  0.5241910000000  0.5858800000000  0.4110660000000 1.0
C      1  0.5073180000000  0.4187290000000  0.4594320000000 1.0
C      1  0.4166240000000  0.5809840000000  0.4497500000000 1.0
C      1  0.4423610000000  0.4506670000000  0.5770840000000 1.0
C      1  0.4913790000000  0.4326300000000  0.4780110000000 1.0
C      1  0.3950110000000  0.5111850000000  0.5058620000000 1.0
C      1  0.4198610000000  0.4564700000000  0.4175660000000 1.0
C      1  0.4408590000000  0.4380150000000  0.6009970000000 1.0
C      1  0.4460040000000  0.4290770000000  0.5213100000000 1.0
C      1  0.5291810000000  0.6004860000000  0.4592010000000 1.0
C      1  0.4722490000000  0.4293690000000  0.4234800000000 1.0
C      1  0.6328820000000  0.5022640000000  0.5376250000000 1.0
C      1  0.5280420000000  0.5583430000000  0.4067890000000 1.0
C      1  0.5704910000000  0.5189990000000  0.4691870000000 1.0
C      1  0.4760030000000  0.4690950000000  0.5431700000000 1.0
C      1  0.5348010000000  0.5119660000000  0.6060410000000 1.0
C      1  0.5891960000000  0.5360470000000  0.4842560000000 1.0
C      1  0.4438490000000  0.4665640000000  0.4049370000000 1.0
C      1  0.3665270000000  0.5880630000000  0.4611490000000 1.0
C      1  0.5197180000000  0.4422390000000  0.5167730000000 1.0
C      1  0.5551170000000  0.4971430000000  0.4794340000000 1.0
C      1  0.6188400000000  0.5138090000000  0.5580010000000 1.0
C      1  0.3838960000000  0.4700100000000  0.5363280000000 1.0
C      1  0.5521520000000  0.4684940000000  0.6270140000000 1.0
C      1  0.6225360000000  0.4762650000000  0.4650780000000 1.0
C      1  0.5148640000000  0.5232630000000  0.4898410000000 1.0
C      1  0.3900200000000  0.5896510000000  0.4486250000000 1.0
C      1  0.4233840000000  0.5078840000000  0.5926380000000 1.0
C      1  0.4722470000000  0.4152570000000  0.5307660000000 1.0
C      1  0.4697500000000  0.3872190000000  0.5360330000000 1.0
C      1  0.6066000000000  0.5081020000000  0.4095980000000 1.0
C      1  0.4147810000000  0.5149590000000  0.6162160000000 1.0
C      1  0.3644990000000  0.5545250000000  0.4978320000000 1.0
C      1  0.4823280000000  0.5018630000000  0.4237830000000 1.0
C      1  0.4062790000000  0.4543350000000  0.5467660000000 1.0
C      1  0.5719720000000  0.4463740000000  0.4154750000000 1.0
C      1  0.4815610000000  0.4686440000000  0.5138350000000 1.0
C      1  0.5560270000000  0.4684760000000  0.4857310000000 1.0
C      1  0.5698580000000  0.5793860000000  0.4312070000000 1.0
C      1  0.5334200000000  0.4684010000000  0.4461730000000 1.0
C      1  0.4372980000000  0.5996390000000  0.4460060000000 1.0
C      1  0.4630740000000  0.4488090000000  0.5585690000000 1.0
C      1  0.4703230000000  0.5659750000000  0.4858950000000 1.0
C      1  0.6254900000000  0.4718670000000  0.4935690000000 1.0
C      1  0.5457490000000  0.4857020000000  0.4255030000000 1.0
C      1  0.4571030000000  0.5697890000000  0.6034030000000 1.0
C      1  0.6091090000000  0.4463420000000  0.5324920000000 1.0
C      1  0.5517830000000  0.4817500000000  0.5276740000000 1.0
C      1  0.5687840000000  0.4229690000000  0.5241540000000 1.0
C      1  0.5092310000000  0.5191640000000  0.3905110000000 1.0
C      1  0.5719770000000  0.5968960000000  0.5683040000000 1.0
C      1  0.4224290000000  0.4674920000000  0.5663080000000 1.0
C      1  0.4100800000000  0.5217720000000  0.4073670000000 1.0
C      1  0.4872530000000  0.5489100000000  0.5473050000000 1.0
C      1  0.4992430000000  0.4505820000000  0.4988940000000 1.0
C      1  0.5112590000000  0.5934590000000  0.4356920000000 1.0
C      1  0.5854050000000  0.5428190000000  0.5115320000000 1.0
C      1  0.5878680000000  0.4908450000000  0.4010630000000 1.0
C      1  0.5624750000000  0.5026750000000  0.5939070000000 1.0
C      1  0.5267460000000  0.5014050000000  0.4782400000000 1.0
C      1  0.5734230000000  0.4565470000000  0.5644650000000 1.0
C      1  0.5274660000000  0.5179430000000  0.5497670000000 1.0
C      1  0.4758210000000  0.5189600000000  0.5940530000000 1.0
C      1  0.5022620000000  0.4245730000000  0.5336460000000 1.0
C      1  0.4469960000000  0.4213430000000  0.4360870000000 1.0
C      1  0.5714750000000  0.4856490000000  0.6171670000000 1.0
C      1  0.6341220000000  0.4908760000000  0.5130840000000 1.0
C      1  0.3852950000000  0.4642450000000  0.4472870000000 1.0
C      1  0.3972000000000  0.4386030000000  0.4581940000000 1.0
C      1  0.4276000000000  0.4959850000000  0.5675350000000 1.0
C      1  0.3879890000000  0.4398850000000  0.4924630000000 1.0
C      1  0.4543090000000  0.5899980000000  0.5838750000000 1.0
C      1  0.3787420000000  0.4648260000000  0.5075970000000 1.0
C      1  0.4785190000000  0.3396120000000  0.5441730000000 1.0
C      1  0.5114330000000  0.4980190000000  0.3723200000000 1.0
C      1  0.4623970000000  0.6144630000000  0.5385340000000 1.0
C      1  0.5233420000000  0.4231740000000  0.4144530000000 1.0
C      1  0.4944180000000  0.5207420000000  0.5089400000000 1.0
C      1  0.3957900000000  0.4724770000000  0.4212750000000 1.0
C      1  0.4727570000000  0.5601900000000  0.4338830000000 1.0
C      1  0.4628680000000  0.2902530000000  0.5532070000000 1.0
C      1  0.5484930000000  0.5883850000000  0.5576430000000 1.0
C      1  0.5832740000000  0.4399970000000  0.5430800000000 1.0
C      1  0.5625360000000  0.5292080000000  0.4424490000000 1.0
C      1  0.4408910000000  0.4697620000000  0.4881200000000 1.0
C      1  0.5181360000000  0.6076240000000  0.4879830000000 1.0
C      1  0.6059680000000  0.5539710000000  0.4688630000000 1.0
C      1  0.3826360000000  0.4886910000000  0.4923400000000 1.0
C      1  0.5127950000000  0.4407980000000  0.6153380000000 1.0
C      1  0.4745440000000  0.5026010000000  0.4498870000000 1.0
C      1  0.5920860000000  0.5237270000000  0.5572390000000 1.0
C      1  0.6150850000000  0.4475260000000  0.5045650000000 1.0
C      1  0.5291900000000  0.3841700000000  0.4875200000000 1.0
C      1  0.5598080000000  0.4808400000000  0.5721890000000 1.0
C      1  0.5734630000000  0.4209200000000  0.4951640000000 1.0
C      1  0.5496730000000  0.4290170000000  0.4114180000000 1.0
C      1  0.4224880000000  0.4822530000000  0.4673630000000 1.0
C      1  0.3791460000000  0.4975190000000  0.5485460000000 1.0
C      1  0.6262320000000  0.5016440000000  0.4528880000000 1.0
C      1  0.4918230000000  0.4819280000000  0.5638730000000 1.0
C      1  0.5423830000000  0.5635080000000  0.4853120000000 1.0
C      1  0.3934540000000  0.4821120000000  0.4677740000000 1.0
C      1  0.5531270000000  0.5797650000000  0.5050740000000 1.0
C      1  0.5264250000000  0.3733710000000  0.5118250000000 1.0
C      1  0.4920960000000  0.4342830000000  0.6320360000000 1.0
C      1  0.4912350000000  0.4959460000000  0.5889970000000 1.0
C      1  0.5022190000000  0.4729160000000  0.3708430000000 1.0
C      1  0.4327180000000  0.5125740000000  0.5438210000000 1.0
C      1  0.5135100000000  0.4815010000000  0.4627130000000 1.0
C      1  0.5591580000000  0.5946790000000  0.4544580000000 1.0
C      1  0.5018960000000  0.5263680000000  0.5361550000000 1.0
C      1  0.5383980000000  0.4892750000000  0.5521300000000 1.0
C      1  0.4641640000000  0.4270110000000  0.4772260000000 1.0
C      1  0.5145270000000  0.4910420000000  0.6060220000000 1.0
C      1  0.5953000000000  0.4426960000000  0.4314000000000 1.0
C      1  0.5523840000000  0.5541160000000  0.6226290000000 1.0
C      1  0.5309750000000  0.4066070000000  0.4706030000000 1.0
C      1  0.4684020000000  0.4830710000000  0.4912180000000 1.0
C      1  0.5449390000000  0.5149780000000  0.4247560000000 1.0
C      1  0.6005170000000  0.4283480000000  0.4893130000000 1.0
C      1  0.4602560000000  0.5557590000000  0.5356110000000 1.0
C      1  0.4282390000000  0.4787950000000  0.5129250000000 1.0
C      1  0.5740930000000  0.4973470000000  0.5219990000000 1.0
C      1  0.5756320000000  0.5686130000000  0.5174280000000 1.0
C      1  0.4873170000000  0.3655360000000  0.5394020000000 1.0
C      1  0.4645580000000  0.6060450000000  0.4480130000000 1.0
C      1  0.5783260000000  0.5519610000000  0.4331500000000 1.0
C      1  0.4272880000000  0.5041710000000  0.4510490000000 1.0
C      1  0.4851420000000  0.5220680000000  0.4045430000000 1.0
END
