TITL C-599896-8500-236 -8.84555178704312e-05 125000 -535.70578473355 0 0 88 (C1) n - 1
REM
REM in /home/nfs/bkarasulu/CARBON/AIRSS/Generating-Clusters/TERSOFF/Only-C1/FIRE-HFTN
REM
REM
REM
REM
REM
REM ./C.cell (11c1c37f851c82e70ff6c80c92926a4b)
REM AIRSS Version 0.9.1 bugfix July 2018 build 013d7b7c2542+ Fri, 06 Jul 2018 19:26:36 +0100
REM compiler GCC version 9.2.1 20190827 (Red Hat 9.2.1-1)
REM options -cpp -mtune=generic -march=x86-64 -g -O0 -fpre-include=/usr/include/finclude/math-vector-fortran.h
REM seed 447283357 -1137965807 -532086541 1578147505 1542847577 -781709037 1263275030 -775944643 -1243467698 988894236 -1023528597 429058459 1003003936 1703304072 1805813393 -351119169 -1296232620 -1863494446 1009196156 792453869 -780682395 -1471632477 997966701 -291307310 95509035 -295936826 -1197545874 -865600169 741683132 720562716 974969205 -1330120583 1067641600
REM
CELL 1.54180   50.00000   50.00000   50.00000   90.00000   90.00000   90.00000
LATT -1
SFAC C  
C      1  0.4343560000000  0.4598140000000  0.5044660000000 1.0
C      1  0.4628240000000  0.4341060000000  0.5350580000000 1.0
C      1  0.5273910000000  0.4907070000000  0.5594740000000 1.0
C      1  0.5045910000000  0.5419080000000  0.4103080000000 1.0
C      1  0.5400530000000  0.4950030000000  0.5823850000000 1.0
C      1  0.5310070000000  0.4335710000000  0.5661570000000 1.0
C      1  0.5913060000000  0.5198110000000  0.5357600000000 1.0
C      1  0.5425540000000  0.5676250000000  0.5118730000000 1.0
C      1  0.4664290000000  0.5851750000000  0.4787970000000 1.0
C      1  0.5523000000000  0.4946060000000  0.6053940000000 1.0
C      1  0.4876450000000  0.4585820000000  0.4454090000000 1.0
C      1  0.5021680000000  0.4996640000000  0.4295450000000 1.0
C      1  0.4418280000000  0.4756440000000  0.5510280000000 1.0
C      1  0.5035510000000  0.4153990000000  0.5184900000000 1.0
C      1  0.5662670000000  0.5508650000000  0.4682710000000 1.0
C      1  0.4903960000000  0.5930550000000  0.4652940000000 1.0
C      1  0.5202690000000  0.4200190000000  0.4718830000000 1.0
C      1  0.5587670000000  0.5496910000000  0.4960110000000 1.0
C      1  0.4978210000000  0.4184010000000  0.4905480000000 1.0
C      1  0.5719150000000  0.5067890000000  0.5212940000000 1.0
C      1  0.4786030000000  0.5431170000000  0.4193340000000 1.0
C      1  0.5568230000000  0.4485750000000  0.4618310000000 1.0
C      1  0.5619940000000  0.4517940000000  0.5293510000000 1.0
C      1  0.4462720000000  0.5724400000000  0.4642110000000 1.0
C      1  0.4399130000000  0.5468690000000  0.4547780000000 1.0
C      1  0.5298980000000  0.5577540000000  0.5653480000000 1.0
C      1  0.4869070000000  0.5327270000000  0.5568710000000 1.0
C      1  0.5345520000000  0.5117050000000  0.4880440000000 1.0
C      1  0.4641460000000  0.5098530000000  0.4926030000000 1.0
C      1  0.5535270000000  0.4420480000000  0.5543610000000 1.0
C      1  0.4857090000000  0.4716630000000  0.4702830000000 1.0
C      1  0.5553420000000  0.5220650000000  0.5037980000000 1.0
C      1  0.4577790000000  0.5330030000000  0.4366480000000 1.0
C      1  0.5017460000000  0.5539730000000  0.5692780000000 1.0
C      1  0.5298910000000  0.5309890000000  0.4119170000000 1.0
C      1  0.4940730000000  0.4745050000000  0.4244870000000 1.0
C      1  0.4471580000000  0.4477350000000  0.5542580000000 1.0
C      1  0.4694490000000  0.4245190000000  0.4865430000000 1.0
C      1  0.4592310000000  0.5055270000000  0.4446400000000 1.0
C      1  0.5467350000000  0.5574740000000  0.5876910000000 1.0
C      1  0.4404110000000  0.5409370000000  0.5605440000000 1.0
C      1  0.4690610000000  0.5826250000000  0.5074780000000 1.0
C      1  0.4063970000000  0.4825990000000  0.4664690000000 1.0
C      1  0.4913790000000  0.5286530000000  0.5295210000000 1.0
C      1  0.4677040000000  0.4940540000000  0.4692740000000 1.0
C      1  0.4560500000000  0.4143220000000  0.4648550000000 1.0
C      1  0.5205660000000  0.5821900000000  0.5011460000000 1.0
C      1  0.4608800000000  0.5822820000000  0.5725170000000 1.0
C      1  0.5326880000000  0.4847300000000  0.4809810000000 1.0
C      1  0.4247290000000  0.5290550000000  0.4720480000000 1.0
C      1  0.5143820000000  0.4817530000000  0.5380470000000 1.0
C      1  0.5502080000000  0.5172410000000  0.4281210000000 1.0
C      1  0.5474040000000  0.4395590000000  0.4363360000000 1.0
C      1  0.4764630000000  0.4781560000000  0.5833470000000 1.0
C      1  0.4241310000000  0.5068740000000  0.5168800000000 1.0
C      1  0.5101080000000  0.4166960000000  0.4176240000000 1.0
C      1  0.4311160000000  0.4807360000000  0.5252030000000 1.0
C      1  0.5695290000000  0.4786780000000  0.5246910000000 1.0
C      1  0.5626390000000  0.5602730000000  0.6081480000000 1.0
C      1  0.5073240000000  0.4739270000000  0.4891440000000 1.0
C      1  0.5458690000000  0.4622010000000  0.4172830000000 1.0
C      1  0.4859560000000  0.5750840000000  0.5797480000000 1.0
C      1  0.5455010000000  0.4321560000000  0.4823640000000 1.0
C      1  0.5308610000000  0.4543040000000  0.3944220000000 1.0
C      1  0.5644300000000  0.5350970000000  0.4460340000000 1.0
C      1  0.5411510000000  0.5633760000000  0.5400010000000 1.0
C      1  0.5062390000000  0.5178810000000  0.4491960000000 1.0
C      1  0.4489870000000  0.5763400000000  0.5263160000000 1.0
C      1  0.4067410000000  0.5093420000000  0.4621830000000 1.0
C      1  0.4839330000000  0.5081950000000  0.5123910000000 1.0
C      1  0.5243980000000  0.4213750000000  0.4417780000000 1.0
C      1  0.5510680000000  0.4767370000000  0.4611930000000 1.0
C      1  0.4181920000000  0.4635390000000  0.4814470000000 1.0
C      1  0.5506870000000  0.4876790000000  0.4330500000000 1.0
C      1  0.5564280000000  0.4348480000000  0.5076680000000 1.0
C      1  0.4547910000000  0.4388720000000  0.5074790000000 1.0
C      1  0.5171040000000  0.5270820000000  0.4719780000000 1.0
C      1  0.4611150000000  0.5216840000000  0.5648680000000 1.0
C      1  0.5159290000000  0.5904570000000  0.4744390000000 1.0
C      1  0.5029850000000  0.4360800000000  0.5644300000000 1.0
C      1  0.4897150000000  0.4262430000000  0.5408400000000 1.0
C      1  0.4902850000000  0.4550750000000  0.5813020000000 1.0
C      1  0.4962670000000  0.5837210000000  0.5162870000000 1.0
C      1  0.4996110000000  0.4844410000000  0.5145630000000 1.0
C      1  0.4452360000000  0.5682630000000  0.5532700000000 1.0
C      1  0.4578730000000  0.4931490000000  0.5676970000000 1.0
C      1  0.5143940000000  0.4323050000000  0.3954120000000 1.0
C      1  0.4379000000000  0.5203660000000  0.4962680000000 1.0
END
