TITL C-599893-4344-1060 0.000104405941275734 125000 -757.466687435791 0 0 123 (C1) n - 1
REM
REM in /home/nfs/bkarasulu/CARBON/AIRSS/Generating-Clusters/TERSOFF/Only-C1/FIRE-HFTN
REM
REM
REM
REM
REM
REM ./C.cell (11c1c37f851c82e70ff6c80c92926a4b)
REM AIRSS Version 0.9.1 bugfix July 2018 build 013d7b7c2542+ Fri, 06 Jul 2018 19:26:36 +0100
REM compiler GCC version 9.2.1 20190827 (Red Hat 9.2.1-1)
REM options -cpp -mtune=generic -march=x86-64 -g -O0 -fpre-include=/usr/include/finclude/math-vector-fortran.h
REM seed -289503238 -223042664 492172652 1260153887 353305683 121563865 -424824860 324518067 -23961461 -2015624645 -1923258124 310412472 -2116175298 153451098 1694796500 1240889667 903107308 1902370137 -97050796 -1430366246 202577896 1384398015 -2116454964 1294882940 -1004396740 412989464 -465059442 382190197 535996728 -1486965441 1937713223 1799911423 -58061349
REM
CELL 1.54180   50.00000   50.00000   50.00000   90.00000   90.00000   90.00000
LATT -1
SFAC C  
C      1  0.5893570000000  0.5618450000000  0.4446200000000 1.0
C      1  0.4329770000000  0.4507590000000  0.4490080000000 1.0
C      1  0.5764700000000  0.5760280000000  0.4257980000000 1.0
C      1  0.4690680000000  0.5232220000000  0.4900070000000 1.0
C      1  0.5584340000000  0.4936210000000  0.5332010000000 1.0
C      1  0.4901220000000  0.4604450000000  0.5185570000000 1.0
C      1  0.5594580000000  0.4702270000000  0.5136700000000 1.0
C      1  0.5304140000000  0.5346320000000  0.4762520000000 1.0
C      1  0.4404680000000  0.4209980000000  0.5471500000000 1.0
C      1  0.3745250000000  0.5452340000000  0.4601060000000 1.0
C      1  0.5343160000000  0.3892480000000  0.5204380000000 1.0
C      1  0.4650600000000  0.5377290000000  0.4407890000000 1.0
C      1  0.4417540000000  0.4740580000000  0.4340350000000 1.0
C      1  0.5428910000000  0.5535090000000  0.4924320000000 1.0
C      1  0.4375040000000  0.5780610000000  0.4278200000000 1.0
C      1  0.5193640000000  0.4875120000000  0.4710660000000 1.0
C      1  0.4773960000000  0.4686230000000  0.5420060000000 1.0
C      1  0.4941960000000  0.5213780000000  0.5030050000000 1.0
C      1  0.5156970000000  0.5122820000000  0.4867240000000 1.0
C      1  0.4865260000000  0.5737770000000  0.4245680000000 1.0
C      1  0.4440180000000  0.5758150000000  0.5507860000000 1.0
C      1  0.5721630000000  0.4941690000000  0.4408640000000 1.0
C      1  0.4748080000000  0.4352430000000  0.5803930000000 1.0
C      1  0.5862480000000  0.5039010000000  0.5307650000000 1.0
C      1  0.5108020000000  0.4607160000000  0.4075890000000 1.0
C      1  0.4916450000000  0.5801830000000  0.4527890000000 1.0
C      1  0.5220720000000  0.5437560000000  0.5996580000000 1.0
C      1  0.5027740000000  0.4949920000000  0.5706870000000 1.0
C      1  0.4092580000000  0.5169480000000  0.5307180000000 1.0
C      1  0.4273340000000  0.4980520000000  0.4394640000000 1.0
C      1  0.5121950000000  0.4398180000000  0.4674930000000 1.0
C      1  0.4819920000000  0.5193450000000  0.3860010000000 1.0
C      1  0.5751330000000  0.5695680000000  0.5245110000000 1.0
C      1  0.4297880000000  0.5606620000000  0.5350660000000 1.0
C      1  0.4159860000000  0.5214650000000  0.4501120000000 1.0
C      1  0.4682910000000  0.4739800000000  0.6204700000000 1.0
C      1  0.5144670000000  0.4042680000000  0.5335960000000 1.0
C      1  0.4843590000000  0.5198110000000  0.4311550000000 1.0
C      1  0.5293510000000  0.4744760000000  0.4233050000000 1.0
C      1  0.5888640000000  0.4651860000000  0.5090000000000 1.0
C      1  0.4109100000000  0.5468820000000  0.4922660000000 1.0
C      1  0.4809570000000  0.5031790000000  0.5839930000000 1.0
C      1  0.5360730000000  0.5307110000000  0.4484520000000 1.0
C      1  0.4854410000000  0.6352540000000  0.5238730000000 1.0
C      1  0.4878370000000  0.3970980000000  0.5268400000000 1.0
C      1  0.5174600000000  0.4907040000000  0.4431030000000 1.0
C      1  0.4727830000000  0.4097920000000  0.4816130000000 1.0
C      1  0.5273430000000  0.4971210000000  0.6261310000000 1.0
C      1  0.5616810000000  0.5811510000000  0.5462480000000 1.0
C      1  0.4590110000000  0.5433660000000  0.4701080000000 1.0
C      1  0.5954330000000  0.4852630000000  0.4878370000000 1.0
C      1  0.4488710000000  0.5931240000000  0.4730190000000 1.0
C      1  0.5301030000000  0.5203170000000  0.6131100000000 1.0
C      1  0.4766240000000  0.4276400000000  0.4105860000000 1.0
C      1  0.4667520000000  0.4033340000000  0.5092820000000 1.0
C      1  0.4829630000000  0.4549270000000  0.4098400000000 1.0
C      1  0.4924810000000  0.4591050000000  0.6214220000000 1.0
C      1  0.5100350000000  0.6350330000000  0.5339230000000 1.0
C      1  0.4362580000000  0.4492660000000  0.5543950000000 1.0
C      1  0.4870050000000  0.4342210000000  0.4786260000000 1.0
C      1  0.5146270000000  0.4740030000000  0.6311000000000 1.0
C      1  0.5275460000000  0.4615040000000  0.4777460000000 1.0
C      1  0.5188090000000  0.3771540000000  0.4481500000000 1.0
C      1  0.5193240000000  0.4312510000000  0.5410020000000 1.0
C      1  0.5160200000000  0.4494900000000  0.5199950000000 1.0
C      1  0.4168000000000  0.4680330000000  0.5482660000000 1.0
C      1  0.4941740000000  0.5439470000000  0.3862440000000 1.0
C      1  0.4257550000000  0.4272210000000  0.4970900000000 1.0
C      1  0.5995490000000  0.4768870000000  0.5348970000000 1.0
C      1  0.5930410000000  0.5115580000000  0.5021170000000 1.0
C      1  0.4630700000000  0.4571240000000  0.5633330000000 1.0
C      1  0.5299770000000  0.5748910000000  0.4018050000000 1.0
C      1  0.4314460000000  0.4291390000000  0.4679690000000 1.0
C      1  0.4970990000000  0.4397770000000  0.6004080000000 1.0
C      1  0.4323870000000  0.5932950000000  0.4498410000000 1.0
C      1  0.5202610000000  0.4483050000000  0.5632980000000 1.0
C      1  0.4165020000000  0.5416610000000  0.5195200000000 1.0
C      1  0.5393240000000  0.3789970000000  0.4962540000000 1.0
C      1  0.5035040000000  0.5656110000000  0.4028920000000 1.0
C      1  0.4694380000000  0.5727850000000  0.4712410000000 1.0
C      1  0.5135070000000  0.5942480000000  0.4612480000000 1.0
C      1  0.5529560000000  0.6077230000000  0.5450870000000 1.0
C      1  0.4283340000000  0.5380670000000  0.4709720000000 1.0
C      1  0.4087700000000  0.4920390000000  0.5400230000000 1.0
C      1  0.5226830000000  0.4773010000000  0.5620320000000 1.0
C      1  0.5946250000000  0.4645040000000  0.5609940000000 1.0
C      1  0.4417690000000  0.4151130000000  0.5188450000000 1.0
C      1  0.4598140000000  0.4123520000000  0.5687930000000 1.0
C      1  0.5276930000000  0.5485800000000  0.5720660000000 1.0
C      1  0.5103750000000  0.5409880000000  0.5510790000000 1.0
C      1  0.5326810000000  0.3748930000000  0.4707690000000 1.0
C      1  0.4650840000000  0.4767810000000  0.4160080000000 1.0
C      1  0.5861980000000  0.5356620000000  0.4880780000000 1.0
C      1  0.5500660000000  0.5640250000000  0.5651540000000 1.0
C      1  0.4533150000000  0.4999480000000  0.4914790000000 1.0
C      1  0.4503670000000  0.6126320000000  0.4927550000000 1.0
C      1  0.5534750000000  0.4484750000000  0.5927800000000 1.0
C      1  0.5367090000000  0.4581730000000  0.5037090000000 1.0
C      1  0.5680200000000  0.4664850000000  0.5733180000000 1.0
C      1  0.6148590000000  0.4511920000000  0.5738870000000 1.0
C      1  0.4508230000000  0.4081010000000  0.4636720000000 1.0
C      1  0.5017870000000  0.3863890000000  0.4298710000000 1.0
C      1  0.4763790000000  0.4557360000000  0.4944750000000 1.0
C      1  0.5835610000000  0.5382990000000  0.4590510000000 1.0
C      1  0.4647820000000  0.4951740000000  0.6039780000000 1.0
C      1  0.3848530000000  0.5543210000000  0.4835610000000 1.0
C      1  0.5693770000000  0.5541610000000  0.5020680000000 1.0
C      1  0.5080780000000  0.5628130000000  0.6136260000000 1.0
C      1  0.5548420000000  0.5793260000000  0.4104390000000 1.0
C      1  0.4857460000000  0.4034060000000  0.4170950000000 1.0
C      1  0.5896370000000  0.4833100000000  0.4603940000000 1.0
C      1  0.4750570000000  0.5033870000000  0.4089640000000 1.0
C      1  0.5639390000000  0.5214680000000  0.4455550000000 1.0
C      1  0.4600610000000  0.5613700000000  0.4244510000000 1.0
C      1  0.3892910000000  0.5292030000000  0.4438550000000 1.0
C      1  0.4562500000000  0.4737620000000  0.4885660000000 1.0
C      1  0.5339990000000  0.6258780000000  0.5408570000000 1.0
C      1  0.4991740000000  0.5317090000000  0.5286630000000 1.0
C      1  0.5573690000000  0.4777000000000  0.4230370000000 1.0
C      1  0.5124970000000  0.5179080000000  0.4362960000000 1.0
C      1  0.5497960000000  0.4846470000000  0.5588590000000 1.0
C      1  0.4641530000000  0.6273670000000  0.5100630000000 1.0
C      1  0.5250260000000  0.4397170000000  0.5900230000000 1.0
END
