TITL C-599893-4344-401 -0.0400640936881336 125000 -146.99589645015 0 0 26 (C1) n - 1
REM
REM in /home/nfs/bkarasulu/CARBON/AIRSS/Generating-Clusters/TERSOFF/Only-C1/FIRE-HFTN
REM
REM
REM
REM
REM
REM ./C.cell (11c1c37f851c82e70ff6c80c92926a4b)
REM AIRSS Version 0.9.1 bugfix July 2018 build 013d7b7c2542+ Fri, 06 Jul 2018 19:26:36 +0100
REM compiler GCC version 9.2.1 20190827 (Red Hat 9.2.1-1)
REM options -cpp -mtune=generic -march=x86-64 -g -O0 -fpre-include=/usr/include/finclude/math-vector-fortran.h
REM seed 122111543 -777012544 -1764286984 -639262715 -1439502575 -1075364647 -319387439 -1803365189 241816580 -1066198912 53293540 -2104830454 328297930 -90729221 -358093715 1435532708 -29308090 -1396222774 -703456842 949983061 1198839324 42345185 -603573650 1202536988 -1738872345 -2103281197 1256736021 -1962742112 -1578641587 17435372 -1489530714 76611292 -702856282
REM
CELL 1.54180   50.00000   50.00000   50.00000   90.00000   90.00000   90.00000
LATT -1
SFAC C  
C      1  0.5230830000000  0.5608560000000  0.4799260000000 1.0
C      1  0.4798010000000  0.4426940000000  0.5574410000000 1.0
C      1  0.4477260000000  0.5097080000000  0.4161960000000 1.0
C      1  0.4876320000000  0.4658450000000  0.5440560000000 1.0
C      1  0.4265690000000  0.5107410000000  0.4009990000000 1.0
C      1  0.5299180000000  0.5198190000000  0.4186480000000 1.0
C      1  0.4649020000000  0.3986400000000  0.5828510000000 1.0
C      1  0.4575720000000  0.3769670000000  0.5953500000000 1.0
C      1  0.5198380000000  0.5468560000000  0.4576130000000 1.0
C      1  0.4937050000000  0.4905180000000  0.4692320000000 1.0
C      1  0.4692600000000  0.5086890000000  0.4315950000000 1.0
C      1  0.5443110000000  0.5144150000000  0.3970720000000 1.0
C      1  0.5141610000000  0.5250190000000  0.4410990000000 1.0
C      1  0.4950800000000  0.4888720000000  0.5581650000000 1.0
C      1  0.4723540000000  0.4206740000000  0.5701420000000 1.0
C      1  0.5043190000000  0.5149510000000  0.5573290000000 1.0
C      1  0.5584130000000  0.5090430000000  0.3758140000000 1.0
C      1  0.4910560000000  0.4760710000000  0.4913280000000 1.0
C      1  0.5273120000000  0.5269050000000  0.5706740000000 1.0
C      1  0.5179820000000  0.5529140000000  0.5311420000000 1.0
C      1  0.4975630000000  0.5327870000000  0.5355970000000 1.0
C      1  0.5390690000000  0.5186740000000  0.5936790000000 1.0
C      1  0.4883080000000  0.4668240000000  0.5160570000000 1.0
C      1  0.5350250000000  0.5495880000000  0.5543240000000 1.0
C      1  0.4923110000000  0.5078990000000  0.4473610000000 1.0
C      1  0.5227310000000  0.5640300000000  0.5063110000000 1.0
END
