TITL C-599894-471-43 1.01463813902506 125000 -288.331966041801 0 0 49 (C1) n - 1
REM
REM in /home/nfs/bkarasulu/CARBON/AIRSS/Generating-Clusters/TERSOFF/Only-C1/FIRE-HFTN
REM
REM
REM
REM
REM
REM ./C.cell (11c1c37f851c82e70ff6c80c92926a4b)
REM AIRSS Version 0.9.1 bugfix July 2018 build 013d7b7c2542+ Fri, 06 Jul 2018 19:26:36 +0100
REM compiler GCC version 9.2.1 20190827 (Red Hat 9.2.1-1)
REM options -cpp -mtune=generic -march=x86-64 -g -O0 -fpre-include=/usr/include/finclude/math-vector-fortran.h
REM seed 807775104 1455113250 -1841217454 1945262967 1701618654 1857940401 11410615 1987405608 374526680 -2065150932 -702830447 1153796458 -475392838 1471574508 -1068041868 -1694063165 -533650311 996174111 -1029550500 -229641861 1176282811 -417742121 -722166647 -34427021 -1756081169 720922252 1535116410 709615927 1376170999 -744632631 1008152897 -1051392033 -1651136966
REM
CELL 1.54180   50.00000   50.00000   50.00000   90.00000   90.00000   90.00000
LATT -1
SFAC C  
C      1  0.4306390000000  0.5928810000000  0.6141790000000 1.0
C      1  0.4555090000000  0.5390540000000  0.5329410000000 1.0
C      1  0.5389060000000  0.5337450000000  0.5913880000000 1.0
C      1  0.5274180000000  0.5173870000000  0.4472850000000 1.0
C      1  0.4933330000000  0.4868480000000  0.4281660000000 1.0
C      1  0.5317670000000  0.4223320000000  0.4974080000000 1.0
C      1  0.5374230000000  0.5200130000000  0.4744890000000 1.0
C      1  0.4547850000000  0.5137560000000  0.4611490000000 1.0
C      1  0.5784450000000  0.4803800000000  0.4794440000000 1.0
C      1  0.4529980000000  0.5167780000000  0.4902910000000 1.0
C      1  0.5559350000000  0.5006120000000  0.4840400000000 1.0
C      1  0.5161110000000  0.5098950000000  0.5499280000000 1.0
C      1  0.5701780000000  0.4964320000000  0.4299410000000 1.0
C      1  0.5085190000000  0.5549050000000  0.5009200000000 1.0
C      1  0.4997510000000  0.5128990000000  0.4398600000000 1.0
C      1  0.4616570000000  0.5391380000000  0.5053740000000 1.0
C      1  0.6031510000000  0.4886940000000  0.4946500000000 1.0
C      1  0.4537430000000  0.4702780000000  0.4797370000000 1.0
C      1  0.5494920000000  0.5459020000000  0.6118760000000 1.0
C      1  0.4662860000000  0.4784390000000  0.4312850000000 1.0
C      1  0.5706220000000  0.4522890000000  0.4869170000000 1.0
C      1  0.4638430000000  0.4631430000000  0.5467940000000 1.0
C      1  0.5437820000000  0.4335210000000  0.4524550000000 1.0
C      1  0.4520730000000  0.4852980000000  0.4545740000000 1.0
C      1  0.5125830000000  0.4661550000000  0.4278500000000 1.0
C      1  0.4590550000000  0.4436320000000  0.4872440000000 1.0
C      1  0.5057900000000  0.4339970000000  0.4938730000000 1.0
C      1  0.5065340000000  0.4806080000000  0.4861360000000 1.0
C      1  0.4624210000000  0.4909530000000  0.4991200000000 1.0
C      1  0.5019400000000  0.5006360000000  0.5295450000000 1.0
C      1  0.5530150000000  0.4313250000000  0.4797240000000 1.0
C      1  0.4819030000000  0.5546030000000  0.4917050000000 1.0
C      1  0.5829140000000  0.4829730000000  0.4494720000000 1.0
C      1  0.4516180000000  0.5161820000000  0.5519750000000 1.0
C      1  0.5089700000000  0.4555040000000  0.4745270000000 1.0
C      1  0.4366160000000  0.5758500000000  0.5953790000000 1.0
C      1  0.5478050000000  0.5113550000000  0.4284450000000 1.0
C      1  0.5212080000000  0.4502800000000  0.4492090000000 1.0
C      1  0.5279840000000  0.5214660000000  0.5705930000000 1.0
C      1  0.4429340000000  0.5578490000000  0.5755070000000 1.0
C      1  0.4772330000000  0.5284080000000  0.4499610000000 1.0
C      1  0.4503730000000  0.5631590000000  0.5481380000000 1.0
C      1  0.5293990000000  0.5409670000000  0.4913680000000 1.0
C      1  0.4744350000000  0.4428800000000  0.5324240000000 1.0
C      1  0.4802760000000  0.5534860000000  0.4629960000000 1.0
C      1  0.4437630000000  0.5290160000000  0.5769800000000 1.0
C      1  0.4901520000000  0.4909240000000  0.5062870000000 1.0
C      1  0.4551430000000  0.4883010000000  0.5508220000000 1.0
C      1  0.4795680000000  0.4348750000000  0.5056300000000 1.0
END
