TITL C-599892-9790-594 26102.9511460234 125000 -986.627671285991 0 0 162 (C1) n - 1
REM
REM in /home/nfs/bkarasulu/CARBON/AIRSS/Generating-Clusters/TERSOFF/Only-C1/FIRE-HFTN
REM
REM
REM
REM
REM
REM ./C.cell (11c1c37f851c82e70ff6c80c92926a4b)
REM AIRSS Version 0.9.1 bugfix July 2018 build 013d7b7c2542+ Fri, 06 Jul 2018 19:26:36 +0100
REM compiler GCC version 9.2.1 20190827 (Red Hat 9.2.1-1)
REM options -cpp -mtune=generic -march=x86-64 -g -O0 -fpre-include=/usr/include/finclude/math-vector-fortran.h
REM seed 1194769851 -1754318307 -1657130417 -1689283888 -1604856849 -1611122072 1863569197 927884214 368482208 -929621778 2014863859 178123292 1210551550 164683768 1145447782 1396899690 920303500 -1706870368 -214437730 -1575360044 -1683984517 736443673 -770601582 437925513 1445122484 785048864 -463476174 -1074954779 1165806459 1987365761 -97535063 -735725880 675336405
REM
CELL 1.54180   50.00000   50.00000   50.00000   90.00000   90.00000   90.00000
LATT -1
SFAC C  
C      1  0.5307860000000  0.5623560000000  0.5126930000000 1.0
C      1  0.4246010000000  0.5371150000000  0.3902990000000 1.0
C      1  0.5567320000000  0.5682580000000  0.5222680000000 1.0
C      1  0.4266990000000  0.6097500000000  0.5310620000000 1.0
C      1  0.4488500000000  0.4407900000000  0.5889560000000 1.0
C      1  0.4384020000000  0.5852730000000  0.4681920000000 1.0
C      1  0.4718180000000  0.5624220000000  0.5792180000000 1.0
C      1  0.5197420000000  0.3891620000000  0.4973470000000 1.0
C      1  0.4346840000000  0.5182820000000  0.4593580000000 1.0
C      1  0.5347630000000  0.4396350000000  0.5270490000000 1.0
C      1  0.5392530000000  0.5048600000000  0.4892410000000 1.0
C      1  0.4109160000000  0.4473550000000  0.5511100000000 1.0
C      1  0.4546630000000  0.5304300000000  0.5413730000000 1.0
C      1  0.6295760000000  0.5097060000000  0.5293410000000 1.0
C      1  0.4866930000000  0.4181070000000  0.5403790000000 1.0
C      1  0.4719110000000  0.6248330000000  0.5253940000000 1.0
C      1  0.4773370000000  0.5194170000000  0.6391290000000 1.0
C      1  0.4368350000000  0.4358690000000  0.4247720000000 1.0
C      1  0.5135490000000  0.4933350000000  0.5313950000000 1.0
C      1  0.4674280000000  0.5806960000000  0.4665440000000 1.0
C      1  0.3890180000000  0.4422050000000  0.4339960000000 1.0
C      1  0.4142220000000  0.6098690000000  0.5072680000000 1.0
C      1  0.4276450000000  0.3994340000000  0.4822010000000 1.0
C      1  0.5214410000000  0.5682900000000  0.4666840000000 1.0
C      1  0.4272260000000  0.5647390000000  0.4511470000000 1.0
C      1  0.5095490000000  0.4706260000000  0.4032220000000 1.0
C      1  0.4103270000000  0.4956320000000  0.5353230000000 1.0
C      1  0.4859450000000  0.5022040000000  0.5678980000000 1.0
C      1  0.4771760000000  0.4452200000000  0.4849340000000 1.0
C      1  0.5761060000000  0.4616150000000  0.4832480000000 1.0
C      1  0.4295590000000  0.5164640000000  0.5450490000000 1.0
C      1  0.4160780000000  0.5413390000000  0.5110360000000 1.0
C      1  0.4382880000000  0.4899570000000  0.5028880000000 1.0
C      1  0.3953500000000  0.5345940000000  0.5653020000000 1.0
C      1  0.3985080000000  0.5393770000000  0.4876210000000 1.0
C      1  0.4663170000000  0.4889240000000  0.3951010000000 1.0
C      1  0.5355780000000  0.4805470000000  0.4727910000000 1.0
C      1  0.5483930000000  0.4254320000000  0.4840900000000 1.0
C      1  0.5114960000000  0.4919200000000  0.3837640000000 1.0
C      1  0.4577500000000  0.4758990000000  0.5191790000000 1.0
C      1  0.4798690000000  0.3927250000000  0.5246960000000 1.0
C      1  0.5677560000000  0.4919830000000  0.5242220000000 1.0
C      1  0.5718310000000  0.4137860000000  0.4958670000000 1.0
C      1  0.5039200000000  0.6438900000000  0.4538350000000 1.0
C      1  0.5301350000000  0.4063920000000  0.4466960000000 1.0
C      1  0.5331820000000  0.3864000000000  0.5231870000000 1.0
C      1  0.4890660000000  0.5146970000000  0.6163440000000 1.0
C      1  0.5239230000000  0.4571450000000  0.5856950000000 1.0
C      1  0.5752550000000  0.4643940000000  0.5129070000000 1.0
C      1  0.4068120000000  0.4424810000000  0.5247180000000 1.0
C      1  0.5573210000000  0.5164010000000  0.4477670000000 1.0
C      1  0.4403030000000  0.4119240000000  0.5366460000000 1.0
C      1  0.3819370000000  0.5167250000000  0.4961900000000 1.0
C      1  0.6009120000000  0.4174190000000  0.5390340000000 1.0
C      1  0.4644680000000  0.5135080000000  0.4637120000000 1.0
C      1  0.5549630000000  0.5738200000000  0.5511060000000 1.0
C      1  0.4748280000000  0.4994340000000  0.4401270000000 1.0
C      1  0.5680660000000  0.4531700000000  0.5591440000000 1.0
C      1  0.5762900000000  0.5551000000000  0.4734650000000 1.0
C      1  0.4731630000000  0.5699230000000  0.4388160000000 1.0
C      1  0.5091320000000  0.5608510000000  0.5306120000000 1.0
C      1  0.5336350000000  0.5336880000000  0.5688870000000 1.0
C      1  0.5255070000000  0.4767730000000  0.4261160000000 1.0
C      1  0.6114060000000  0.5308560000000  0.5365210000000 1.0
C      1  0.4174430000000  0.5415040000000  0.4643070000000 1.0
C      1  0.4194420000000  0.4972900000000  0.4469280000000 1.0
C      1  0.4948700000000  0.6380800000000  0.4798690000000 1.0
C      1  0.4108840000000  0.5394570000000  0.5408740000000 1.0
C      1  0.5473090000000  0.4541640000000  0.4783430000000 1.0
C      1  0.4781460000000  0.4333140000000  0.5867510000000 1.0
C      1  0.5380130000000  0.4923820000000  0.4464990000000 1.0
C      1  0.4541050000000  0.6049940000000  0.5351290000000 1.0
C      1  0.5730840000000  0.4934760000000  0.4135420000000 1.0
C      1  0.5564560000000  0.5439100000000  0.4553030000000 1.0
C      1  0.5033760000000  0.5167940000000  0.3967220000000 1.0
C      1  0.5121350000000  0.6693660000000  0.4479360000000 1.0
C      1  0.4505370000000  0.3892780000000  0.5229150000000 1.0
C      1  0.4105030000000  0.4321620000000  0.4212980000000 1.0
C      1  0.4137240000000  0.5137550000000  0.3975440000000 1.0
C      1  0.4357380000000  0.5189540000000  0.5024270000000 1.0
C      1  0.5375280000000  0.4296000000000  0.5826600000000 1.0
C      1  0.4446440000000  0.3815480000000  0.4955410000000 1.0
C      1  0.5152510000000  0.5233900000000  0.4886660000000 1.0
C      1  0.4073940000000  0.4782800000000  0.4638970000000 1.0
C      1  0.4593540000000  0.5567140000000  0.5542900000000 1.0
C      1  0.4024540000000  0.5111090000000  0.5803900000000 1.0
C      1  0.4791410000000  0.4750810000000  0.5657590000000 1.0
C      1  0.6030370000000  0.5466310000000  0.5134720000000 1.0
C      1  0.4223160000000  0.6022640000000  0.4829750000000 1.0
C      1  0.5827700000000  0.5114970000000  0.4344880000000 1.0
C      1  0.5780600000000  0.4985190000000  0.5517360000000 1.0
C      1  0.6254370000000  0.5322240000000  0.4231660000000 1.0
C      1  0.4598180000000  0.4330580000000  0.5408820000000 1.0
C      1  0.5227590000000  0.5513030000000  0.4886520000000 1.0
C      1  0.4550290000000  0.4474480000000  0.4429400000000 1.0
C      1  0.4195670000000  0.4728720000000  0.4888940000000 1.0
C      1  0.5816860000000  0.5404840000000  0.5741200000000 1.0
C      1  0.4718560000000  0.4689750000000  0.4351120000000 1.0
C      1  0.6021210000000  0.5434200000000  0.4646180000000 1.0
C      1  0.5374340000000  0.5933760000000  0.5623430000000 1.0
C      1  0.4851790000000  0.6351160000000  0.5045590000000 1.0
C      1  0.4465110000000  0.5627640000000  0.4289230000000 1.0
C      1  0.6042480000000  0.5290740000000  0.4400240000000 1.0
C      1  0.5884300000000  0.4068580000000  0.5157830000000 1.0
C      1  0.6180300000000  0.4397630000000  0.5333650000000 1.0
C      1  0.4566410000000  0.4640390000000  0.5474900000000 1.0
C      1  0.5034940000000  0.6012280000000  0.4201140000000 1.0
C      1  0.4638050000000  0.5783120000000  0.5360470000000 1.0
C      1  0.4926930000000  0.5787330000000  0.5851820000000 1.0
C      1  0.4923070000000  0.3833570000000  0.4999150000000 1.0
C      1  0.5516900000000  0.5126450000000  0.4010810000000 1.0
C      1  0.3877340000000  0.4612790000000  0.4529420000000 1.0
C      1  0.5692690000000  0.5071430000000  0.4985650000000 1.0
C      1  0.4130990000000  0.4989070000000  0.4197080000000 1.0
C      1  0.5659240000000  0.4295800000000  0.5750690000000 1.0
C      1  0.5611330000000  0.4479950000000  0.5318580000000 1.0
C      1  0.4386910000000  0.5558520000000  0.4031440000000 1.0
C      1  0.5126080000000  0.5389850000000  0.5491950000000 1.0
C      1  0.4323530000000  0.4609700000000  0.5692670000000 1.0
C      1  0.5874350000000  0.4132460000000  0.5645910000000 1.0
C      1  0.4177270000000  0.4874010000000  0.5814810000000 1.0
C      1  0.5147290000000  0.5920530000000  0.5771080000000 1.0
C      1  0.4811340000000  0.5780430000000  0.4910790000000 1.0
C      1  0.4811790000000  0.4662490000000  0.4072250000000 1.0
C      1  0.5997940000000  0.5051730000000  0.4937020000000 1.0
C      1  0.4754800000000  0.5214730000000  0.5223790000000 1.0
C      1  0.5402390000000  0.4830620000000  0.5833740000000 1.0
C      1  0.5655410000000  0.4794800000000  0.5694660000000 1.0
C      1  0.6186550000000  0.4895570000000  0.5113930000000 1.0
C      1  0.5564920000000  0.5506020000000  0.5680660000000 1.0
C      1  0.6109340000000  0.5315810000000  0.4887290000000 1.0
C      1  0.5387490000000  0.4889030000000  0.5285170000000 1.0
C      1  0.4170780000000  0.4459320000000  0.4984670000000 1.0
C      1  0.5283450000000  0.5099490000000  0.5854280000000 1.0
C      1  0.4785440000000  0.4644070000000  0.5035170000000 1.0
C      1  0.5298450000000  0.4056760000000  0.4753790000000 1.0
C      1  0.4846060000000  0.5189110000000  0.4918270000000 1.0
C      1  0.4702780000000  0.3740950000000  0.4839740000000 1.0
C      1  0.4782340000000  0.5115950000000  0.4115440000000 1.0
C      1  0.4971600000000  0.5735890000000  0.4229410000000 1.0
C      1  0.5863890000000  0.4654200000000  0.4558260000000 1.0
C      1  0.5442890000000  0.4214580000000  0.4287440000000 1.0
C      1  0.5316800000000  0.3913370000000  0.5501430000000 1.0
C      1  0.5089930000000  0.4333760000000  0.5285050000000 1.0
C      1  0.5047390000000  0.6242220000000  0.4337100000000 1.0
C      1  0.3890400000000  0.4998790000000  0.5173510000000 1.0
C      1  0.5754740000000  0.4658720000000  0.4275450000000 1.0
C      1  0.4552830000000  0.4375360000000  0.4692570000000 1.0
C      1  0.6224100000000  0.4625460000000  0.5193270000000 1.0
C      1  0.4315530000000  0.4272940000000  0.4821630000000 1.0
C      1  0.5267580000000  0.5310610000000  0.4052630000000 1.0
C      1  0.5781930000000  0.5607080000000  0.5041270000000 1.0
C      1  0.5212090000000  0.4078540000000  0.5717830000000 1.0
C      1  0.5002190000000  0.5094730000000  0.5915810000000 1.0
C      1  0.5929990000000  0.5222520000000  0.5563980000000 1.0
C      1  0.5358830000000  0.5593520000000  0.4444850000000 1.0
C      1  0.4854950000000  0.5729100000000  0.5187760000000 1.0
C      1  0.5607670000000  0.4417760000000  0.4212000000000 1.0
C      1  0.4945380000000  0.4572610000000  0.5825780000000 1.0
C      1  0.4968540000000  0.5142350000000  0.5423580000000 1.0
C      1  0.4924730000000  0.4134550000000  0.5702310000000 1.0
C      1  0.5204380000000  0.5550570000000  0.4210660000000 1.0
END
