TITL C-599894-471-367 59144.5322945896 125000 -1013.32432137372 0 0 169 (C1) n - 1
REM
REM in /home/nfs/bkarasulu/CARBON/AIRSS/Generating-Clusters/TERSOFF/Only-C1/FIRE-HFTN
REM
REM
REM
REM
REM
REM ./C.cell (11c1c37f851c82e70ff6c80c92926a4b)
REM AIRSS Version 0.9.1 bugfix July 2018 build 013d7b7c2542+ Fri, 06 Jul 2018 19:26:36 +0100
REM compiler GCC version 9.2.1 20190827 (Red Hat 9.2.1-1)
REM options -cpp -mtune=generic -march=x86-64 -g -O0 -fpre-include=/usr/include/finclude/math-vector-fortran.h
REM seed 1722599615 -871058882 1754302088 -1933820370 -1515315938 1073051732 -1896230930 17155560 1995444795 -1015895529 1400863347 2111952926 86482389 -489800296 1805632454 533671063 -994862205 -2077442091 -1977764777 1204472874 -187418045 -1693349017 2023232349 2049132765 528029058 637851715 -28542182 -1948499196 -985081775 1090121619 -404853216 -872743029 1259237125
REM
CELL 1.54180   50.00000   50.00000   50.00000   90.00000   90.00000   90.00000
LATT -1
SFAC C  
C      1  0.5901770000000  0.4587350000000  0.4443700000000 1.0
C      1  0.4838820000000  0.5446530000000  0.5687910000000 1.0
C      1  0.5304280000000  0.4646850000000  0.5112810000000 1.0
C      1  0.4537210000000  0.5288300000000  0.4454650000000 1.0
C      1  0.4541610000000  0.5583810000000  0.4456550000000 1.0
C      1  0.6111930000000  0.5382480000000  0.4459710000000 1.0
C      1  0.3668120000000  0.5496890000000  0.4715030000000 1.0
C      1  0.4339230000000  0.5670130000000  0.4654310000000 1.0
C      1  0.3668930000000  0.5298730000000  0.5446640000000 1.0
C      1  0.4025850000000  0.4729650000000  0.5454160000000 1.0
C      1  0.5190350000000  0.4434710000000  0.4703840000000 1.0
C      1  0.3882620000000  0.4827500000000  0.4784890000000 1.0
C      1  0.3597280000000  0.5361250000000  0.5184340000000 1.0
C      1  0.4851240000000  0.4668860000000  0.6022500000000 1.0
C      1  0.4910330000000  0.4818030000000  0.4897810000000 1.0
C      1  0.5159680000000  0.5052590000000  0.5520840000000 1.0
C      1  0.6070590000000  0.5399500000000  0.5603110000000 1.0
C      1  0.5243090000000  0.4376290000000  0.5145840000000 1.0
C      1  0.5719820000000  0.5736440000000  0.5674440000000 1.0
C      1  0.5377900000000  0.5520430000000  0.5508880000000 1.0
C      1  0.5406700000000  0.3935920000000  0.5001230000000 1.0
C      1  0.5838270000000  0.4382640000000  0.4278180000000 1.0
C      1  0.4474760000000  0.5042130000000  0.3925170000000 1.0
C      1  0.5647450000000  0.4417010000000  0.5721590000000 1.0
C      1  0.5100590000000  0.4385660000000  0.6035130000000 1.0
C      1  0.4975090000000  0.4965450000000  0.5339250000000 1.0
C      1  0.4991980000000  0.4609460000000  0.4731440000000 1.0
C      1  0.5072900000000  0.4817590000000  0.5127310000000 1.0
C      1  0.5120430000000  0.3990400000000  0.4569440000000 1.0
C      1  0.4430670000000  0.4082660000000  0.5381880000000 1.0
C      1  0.5530800000000  0.5289250000000  0.5542780000000 1.0
C      1  0.4732000000000  0.5182850000000  0.3952820000000 1.0
C      1  0.5002840000000  0.4504450000000  0.5549810000000 1.0
C      1  0.4694350000000  0.4032790000000  0.3946070000000 1.0
C      1  0.4052430000000  0.4483550000000  0.4537080000000 1.0
C      1  0.5024850000000  0.4151760000000  0.4344480000000 1.0
C      1  0.5594440000000  0.4844770000000  0.5467380000000 1.0
C      1  0.5725460000000  0.5493380000000  0.4864150000000 1.0
C      1  0.5147090000000  0.4661750000000  0.5708880000000 1.0
C      1  0.5885340000000  0.5575330000000  0.5461410000000 1.0
C      1  0.3662320000000  0.5024990000000  0.5539520000000 1.0
C      1  0.3845910000000  0.5665140000000  0.4605390000000 1.0
C      1  0.4315620000000  0.5275910000000  0.5835790000000 1.0
C      1  0.4142710000000  0.4159210000000  0.4947600000000 1.0
C      1  0.5799430000000  0.4588810000000  0.4982380000000 1.0
C      1  0.4383970000000  0.5767860000000  0.5612150000000 1.0
C      1  0.5581070000000  0.4357980000000  0.4196830000000 1.0
C      1  0.4360500000000  0.5558780000000  0.5784430000000 1.0
C      1  0.5256520000000  0.5620070000000  0.4974610000000 1.0
C      1  0.4716610000000  0.5508230000000  0.4943930000000 1.0
C      1  0.3913530000000  0.6130190000000  0.5018880000000 1.0
C      1  0.5292340000000  0.5007540000000  0.4530740000000 1.0
C      1  0.4991880000000  0.5335270000000  0.5913010000000 1.0
C      1  0.5551030000000  0.4739650000000  0.5002130000000 1.0
C      1  0.5781120000000  0.5070930000000  0.4456050000000 1.0
C      1  0.4453470000000  0.5568990000000  0.4896550000000 1.0
C      1  0.4863990000000  0.4308590000000  0.5397550000000 1.0
C      1  0.5353120000000  0.5298790000000  0.3936060000000 1.0
C      1  0.4735530000000  0.5045390000000  0.4880480000000 1.0
C      1  0.5117750000000  0.4831340000000  0.4004090000000 1.0
C      1  0.4788530000000  0.5960720000000  0.4954690000000 1.0
C      1  0.4873850000000  0.5721800000000  0.5639680000000 1.0
C      1  0.5387490000000  0.5532460000000  0.4097370000000 1.0
C      1  0.3638560000000  0.5299150000000  0.4912340000000 1.0
C      1  0.4501060000000  0.4618320000000  0.4880860000000 1.0
C      1  0.6220860000000  0.4899610000000  0.4776870000000 1.0
C      1  0.5439730000000  0.5658820000000  0.5754470000000 1.0
C      1  0.5570590000000  0.4157880000000  0.4902560000000 1.0
C      1  0.6026190000000  0.4908900000000  0.5559020000000 1.0
C      1  0.4903270000000  0.5180480000000  0.4187940000000 1.0
C      1  0.6070050000000  0.4719870000000  0.4974290000000 1.0
C      1  0.5026230000000  0.5809070000000  0.4345580000000 1.0
C      1  0.4445230000000  0.4877460000000  0.3698660000000 1.0
C      1  0.5114220000000  0.3981850000000  0.5730270000000 1.0
C      1  0.4881320000000  0.5292240000000  0.4901070000000 1.0
C      1  0.5418530000000  0.5064660000000  0.5428330000000 1.0
C      1  0.4965640000000  0.4167880000000  0.5897080000000 1.0
C      1  0.4687020000000  0.5277320000000  0.5516540000000 1.0
C      1  0.4942490000000  0.4667540000000  0.4199940000000 1.0
C      1  0.4728110000000  0.4783710000000  0.4389610000000 1.0
C      1  0.4576930000000  0.4649050000000  0.4611140000000 1.0
C      1  0.5207340000000  0.3842430000000  0.4806600000000 1.0
C      1  0.5092880000000  0.3595370000000  0.4850110000000 1.0
C      1  0.5969330000000  0.5154370000000  0.5722980000000 1.0
C      1  0.5349320000000  0.5007900000000  0.3939850000000 1.0
C      1  0.6086330000000  0.4615500000000  0.5497430000000 1.0
C      1  0.4406450000000  0.4682050000000  0.5157630000000 1.0
C      1  0.5834790000000  0.4956000000000  0.5344900000000 1.0
C      1  0.5894630000000  0.5529560000000  0.4339480000000 1.0
C      1  0.4707680000000  0.5022920000000  0.5395960000000 1.0
C      1  0.4805100000000  0.5029960000000  0.6006070000000 1.0
C      1  0.4382940000000  0.5864080000000  0.5343060000000 1.0
C      1  0.5437370000000  0.4760380000000  0.4456200000000 1.0
C      1  0.4074160000000  0.5182300000000  0.5707250000000 1.0
C      1  0.5248090000000  0.5931840000000  0.4488420000000 1.0
C      1  0.5505150000000  0.5665800000000  0.4803110000000 1.0
C      1  0.4259770000000  0.5484580000000  0.5092450000000 1.0
C      1  0.5045320000000  0.5838480000000  0.4975050000000 1.0
C      1  0.4275730000000  0.5002430000000  0.4135200000000 1.0
C      1  0.4537220000000  0.4793900000000  0.5396740000000 1.0
C      1  0.4642390000000  0.4533260000000  0.5868330000000 1.0
C      1  0.4048930000000  0.5897600000000  0.4973340000000 1.0
C      1  0.5149370000000  0.5159590000000  0.4335410000000 1.0
C      1  0.5197750000000  0.4932310000000  0.5777410000000 1.0
C      1  0.5720690000000  0.4795450000000  0.4505330000000 1.0
C      1  0.5319660000000  0.5616120000000  0.5262040000000 1.0
C      1  0.4274650000000  0.4070570000000  0.5164070000000 1.0
C      1  0.5398790000000  0.4387820000000  0.6014700000000 1.0
C      1  0.5369910000000  0.4516760000000  0.4301010000000 1.0
C      1  0.5830750000000  0.4203870000000  0.5318110000000 1.0
C      1  0.3929710000000  0.4936950000000  0.5615850000000 1.0
C      1  0.5884480000000  0.4379940000000  0.5541300000000 1.0
C      1  0.4759860000000  0.5789900000000  0.4459650000000 1.0
C      1  0.4962580000000  0.5971470000000  0.5613010000000 1.0
C      1  0.4274900000000  0.5202120000000  0.5074410000000 1.0
C      1  0.5251450000000  0.6190950000000  0.4593040000000 1.0
C      1  0.3964030000000  0.4616330000000  0.4966690000000 1.0
C      1  0.5557630000000  0.5024080000000  0.4965020000000 1.0
C      1  0.5255090000000  0.6357470000000  0.4801030000000 1.0
C      1  0.4714070000000  0.5981450000000  0.4678150000000 1.0
C      1  0.4526200000000  0.5119010000000  0.5967320000000 1.0
C      1  0.5160910000000  0.5338770000000  0.4885760000000 1.0
C      1  0.4434410000000  0.5081680000000  0.4863950000000 1.0
C      1  0.4696290000000  0.4248640000000  0.5809950000000 1.0
C      1  0.4446920000000  0.4632930000000  0.3594060000000 1.0
C      1  0.5703260000000  0.3956130000000  0.5375710000000 1.0
C      1  0.5164040000000  0.6346540000000  0.5311380000000 1.0
C      1  0.4184310000000  0.4971650000000  0.4409540000000 1.0
C      1  0.4081030000000  0.5782850000000  0.4705720000000 1.0
C      1  0.4718200000000  0.5079800000000  0.4377730000000 1.0
C      1  0.4119930000000  0.4663850000000  0.5197760000000 1.0
C      1  0.5765680000000  0.5140470000000  0.5141660000000 1.0
C      1  0.4644540000000  0.4183200000000  0.5530440000000 1.0
C      1  0.5493270000000  0.5045770000000  0.5940550000000 1.0
C      1  0.5771440000000  0.4305230000000  0.5053040000000 1.0
C      1  0.4173170000000  0.5742630000000  0.5183240000000 1.0
C      1  0.3711160000000  0.5037050000000  0.4843590000000 1.0
C      1  0.5137730000000  0.5676940000000  0.4122410000000 1.0
C      1  0.4013520000000  0.4774810000000  0.4524670000000 1.0
C      1  0.4570570000000  0.4154970000000  0.3745070000000 1.0
C      1  0.3899240000000  0.5398070000000  0.5593590000000 1.0
C      1  0.5428050000000  0.4311950000000  0.4716470000000 1.0
C      1  0.5243160000000  0.3892500000000  0.5506420000000 1.0
C      1  0.5806930000000  0.5429790000000  0.5142930000000 1.0
C      1  0.6202950000000  0.4631580000000  0.5223710000000 1.0
C      1  0.4603130000000  0.5971230000000  0.5180740000000 1.0
C      1  0.5674570000000  0.5208380000000  0.5782510000000 1.0
C      1  0.5096200000000  0.4428770000000  0.4277490000000 1.0
C      1  0.5607350000000  0.4798060000000  0.5988250000000 1.0
C      1  0.5519690000000  0.4593850000000  0.6161800000000 1.0
C      1  0.5340860000000  0.5130020000000  0.4796090000000 1.0
C      1  0.5228050000000  0.6409990000000  0.5060800000000 1.0
C      1  0.5069830000000  0.6189560000000  0.5504600000000 1.0
C      1  0.5013750000000  0.4237710000000  0.5176690000000 1.0
C      1  0.4336500000000  0.5134100000000  0.4594960000000 1.0
C      1  0.5626470000000  0.4947720000000  0.3988030000000 1.0
C      1  0.5436560000000  0.3890690000000  0.5292110000000 1.0
C      1  0.4510650000000  0.4671160000000  0.5655150000000 1.0
C      1  0.4487170000000  0.4370890000000  0.3614330000000 1.0
C      1  0.4848520000000  0.4028760000000  0.4162520000000 1.0
C      1  0.5243890000000  0.5514680000000  0.5947440000000 1.0
C      1  0.5473730000000  0.5755600000000  0.4532340000000 1.0
C      1  0.6466570000000  0.4782700000000  0.4703050000000 1.0
C      1  0.6183430000000  0.5166860000000  0.4636510000000 1.0
C      1  0.4034970000000  0.4377300000000  0.4808480000000 1.0
C      1  0.5626320000000  0.4696210000000  0.5712420000000 1.0
C      1  0.5748390000000  0.5272430000000  0.4665610000000 1.0
C      1  0.5788320000000  0.5077480000000  0.4166790000000 1.0
C      1  0.5598500000000  0.5607610000000  0.4304290000000 1.0
END
