TITL C-599892-9790-1479 3.22820343391822e-05 125000 -491.960468884332 0 0 79 (C1) n - 1
REM
REM in /home/nfs/bkarasulu/CARBON/AIRSS/Generating-Clusters/TERSOFF/Only-C1/FIRE-HFTN
REM
REM
REM
REM
REM
REM ./C.cell (11c1c37f851c82e70ff6c80c92926a4b)
REM AIRSS Version 0.9.1 bugfix July 2018 build 013d7b7c2542+ Fri, 06 Jul 2018 19:26:36 +0100
REM compiler GCC version 9.2.1 20190827 (Red Hat 9.2.1-1)
REM options -cpp -mtune=generic -march=x86-64 -g -O0 -fpre-include=/usr/include/finclude/math-vector-fortran.h
REM seed 1945248058 -472984333 -863490895 -1504465590 244361380 880459613 -465227728 1558755385 -959931195 -1819462460 48739455 -920954972 -904955461 716782332 -208286076 1316456717 -473201893 -585125337 -1120766356 795356677 -1558972777 635816557 -84218359 -171502194 -1272547321 1392463663 -1362015602 -1180255596 1946249725 -1218476133 2087460983 -1145904223 1363542057
REM
CELL 1.54180   50.00000   50.00000   50.00000   90.00000   90.00000   90.00000
LATT -1
SFAC C  
C      1  0.5260160000000  0.4345230000000  0.4656060000000 1.0
C      1  0.5782750000000  0.5124420000000  0.4689510000000 1.0
C      1  0.5498410000000  0.4284820000000  0.5260770000000 1.0
C      1  0.4653490000000  0.5118520000000  0.5838900000000 1.0
C      1  0.4852620000000  0.4740830000000  0.6071710000000 1.0
C      1  0.5119300000000  0.4612150000000  0.4295540000000 1.0
C      1  0.4772390000000  0.4264040000000  0.4277500000000 1.0
C      1  0.5141370000000  0.4882600000000  0.4890680000000 1.0
C      1  0.5716050000000  0.4416800000000  0.5128250000000 1.0
C      1  0.5310800000000  0.4984520000000  0.5610470000000 1.0
C      1  0.5333200000000  0.5253270000000  0.5694430000000 1.0
C      1  0.4605870000000  0.5772910000000  0.5060090000000 1.0
C      1  0.5110620000000  0.4344840000000  0.4896170000000 1.0
C      1  0.4701630000000  0.5229050000000  0.4459520000000 1.0
C      1  0.5610800000000  0.4907380000000  0.5095030000000 1.0
C      1  0.3796690000000  0.4768630000000  0.4676430000000 1.0
C      1  0.5102080000000  0.5730590000000  0.4263920000000 1.0
C      1  0.4951640000000  0.5514460000000  0.5609630000000 1.0
C      1  0.5605840000000  0.5408930000000  0.5049600000000 1.0
C      1  0.4917480000000  0.5202250000000  0.5961570000000 1.0
C      1  0.4263640000000  0.5375280000000  0.5230010000000 1.0
C      1  0.4855720000000  0.5216210000000  0.5211630000000 1.0
C      1  0.4470360000000  0.4927100000000  0.5253420000000 1.0
C      1  0.4874230000000  0.5953520000000  0.4684130000000 1.0
C      1  0.5305220000000  0.5553360000000  0.4681800000000 1.0
C      1  0.3764480000000  0.5004420000000  0.4795260000000 1.0
C      1  0.4145390000000  0.4395210000000  0.4708090000000 1.0
C      1  0.5183750000000  0.5331670000000  0.4027160000000 1.0
C      1  0.4349550000000  0.4678810000000  0.5278180000000 1.0
C      1  0.5756990000000  0.4689370000000  0.5193200000000 1.0
C      1  0.4565810000000  0.5235610000000  0.5595520000000 1.0
C      1  0.4367900000000  0.4378600000000  0.4878240000000 1.0
C      1  0.5809150000000  0.4353260000000  0.4868790000000 1.0
C      1  0.4956040000000  0.5905410000000  0.4430650000000 1.0
C      1  0.4848980000000  0.5884560000000  0.4960560000000 1.0
C      1  0.4987710000000  0.4834920000000  0.4415310000000 1.0
C      1  0.5085250000000  0.5872390000000  0.5121390000000 1.0
C      1  0.5376820000000  0.5075940000000  0.4457870000000 1.0
C      1  0.5357630000000  0.4260750000000  0.5768490000000 1.0
C      1  0.5093110000000  0.5364530000000  0.5804790000000 1.0
C      1  0.5485990000000  0.5537800000000  0.5273850000000 1.0
C      1  0.5793150000000  0.4487270000000  0.4634700000000 1.0
C      1  0.5605990000000  0.4655830000000  0.4503980000000 1.0
C      1  0.5711900000000  0.5139900000000  0.4978940000000 1.0
C      1  0.5058430000000  0.5449520000000  0.4785360000000 1.0
C      1  0.4881580000000  0.4773590000000  0.4973440000000 1.0
C      1  0.5243820000000  0.4864200000000  0.5380010000000 1.0
C      1  0.5769600000000  0.5407830000000  0.4618580000000 1.0
C      1  0.4417980000000  0.5602230000000  0.5150590000000 1.0
C      1  0.5253780000000  0.4260490000000  0.5121530000000 1.0
C      1  0.4631940000000  0.4367260000000  0.4775350000000 1.0
C      1  0.5328620000000  0.4884080000000  0.5110290000000 1.0
C      1  0.5625500000000  0.4947850000000  0.4522120000000 1.0
C      1  0.4858050000000  0.4490930000000  0.4904290000000 1.0
C      1  0.5000670000000  0.4983680000000  0.6129860000000 1.0
C      1  0.5327030000000  0.5292320000000  0.4276540000000 1.0
C      1  0.5347120000000  0.4524150000000  0.4452370000000 1.0
C      1  0.4013140000000  0.5331010000000  0.5112680000000 1.0
C      1  0.5305780000000  0.5755430000000  0.5224290000000 1.0
C      1  0.5030370000000  0.5343870000000  0.5038930000000 1.0
C      1  0.4834970000000  0.5403250000000  0.4614300000000 1.0
C      1  0.5055550000000  0.5579460000000  0.4020510000000 1.0
C      1  0.4621070000000  0.4842860000000  0.5927500000000 1.0
C      1  0.4754540000000  0.4981920000000  0.4364490000000 1.0
C      1  0.5568060000000  0.5536400000000  0.4787780000000 1.0
C      1  0.4961810000000  0.4418870000000  0.4165700000000 1.0
C      1  0.4978560000000  0.4495250000000  0.6042680000000 1.0
C      1  0.5167150000000  0.4339510000000  0.5937110000000 1.0
C      1  0.4665930000000  0.4247840000000  0.4522280000000 1.0
C      1  0.5297620000000  0.5559880000000  0.4401480000000 1.0
C      1  0.4328010000000  0.4448850000000  0.5146030000000 1.0
C      1  0.5492410000000  0.5421840000000  0.5531350000000 1.0
C      1  0.3842310000000  0.5202030000000  0.4955190000000 1.0
C      1  0.4731600000000  0.4959650000000  0.5138100000000 1.0
C      1  0.3935660000000  0.4544600000000  0.4639640000000 1.0
C      1  0.4782940000000  0.5358120000000  0.5449060000000 1.0
C      1  0.5489760000000  0.4242380000000  0.5537760000000 1.0
C      1  0.5161750000000  0.4957760000000  0.4611010000000 1.0
C      1  0.4378980000000  0.5163120000000  0.5390070000000 1.0
END
