TITL C-599890-3321-1446 1.89694629428978 125000 -349.838242538178 0 0 58 (C1) n - 1
REM
REM in /home/nfs/bkarasulu/CARBON/AIRSS/Generating-Clusters/TERSOFF/Only-C1/FIRE-HFTN
REM
REM
REM
REM
REM
REM ./C.cell (11c1c37f851c82e70ff6c80c92926a4b)
REM AIRSS Version 0.9.1 bugfix July 2018 build 013d7b7c2542+ Fri, 06 Jul 2018 19:26:36 +0100
REM compiler GCC version 9.2.1 20190827 (Red Hat 9.2.1-1)
REM options -cpp -mtune=generic -march=x86-64 -g -O0 -fpre-include=/usr/include/finclude/math-vector-fortran.h
REM seed -885055043 -1650108590 920999922 -1448785183 33791552 -1638883102 -1726072803 -211686010 -597055830 -1108003955 -1677182296 1466663917 1052491901 -1871767726 -1793163439 -1416113857 1514270654 1375541972 422689620 599985991 1680639349 -1453850289 -792162182 -1178104601 -55919425 -1738708930 1982851560 1982286264 -1519866466 505314329 -2031316256 -818212174 -1512977954
REM
CELL 1.54180   50.00000   50.00000   50.00000   90.00000   90.00000   90.00000
LATT -1
SFAC C  
C      1  0.5117410000000  0.4985790000000  0.4586830000000 1.0
C      1  0.5361430000000  0.5126070000000  0.4637600000000 1.0
C      1  0.4618110000000  0.4349930000000  0.5645280000000 1.0
C      1  0.5849030000000  0.4865330000000  0.5337020000000 1.0
C      1  0.5282250000000  0.5182200000000  0.5111190000000 1.0
C      1  0.5471060000000  0.5204120000000  0.4893610000000 1.0
C      1  0.5053200000000  0.4345420000000  0.4812510000000 1.0
C      1  0.5855210000000  0.5027710000000  0.5126410000000 1.0
C      1  0.6060150000000  0.5588090000000  0.4703440000000 1.0
C      1  0.4874330000000  0.4344850000000  0.5716990000000 1.0
C      1  0.4587480000000  0.5072120000000  0.5310190000000 1.0
C      1  0.4512790000000  0.4611870000000  0.5049120000000 1.0
C      1  0.5227070000000  0.4286910000000  0.5003820000000 1.0
C      1  0.4358760000000  0.4392590000000  0.4637010000000 1.0
C      1  0.4532940000000  0.5018100000000  0.5576300000000 1.0
C      1  0.5910990000000  0.5404730000000  0.4822960000000 1.0
C      1  0.5452940000000  0.5382180000000  0.5738600000000 1.0
C      1  0.4567360000000  0.4884890000000  0.5087510000000 1.0
C      1  0.4862990000000  0.4582420000000  0.4417860000000 1.0
C      1  0.4486210000000  0.4991940000000  0.5831350000000 1.0
C      1  0.4926900000000  0.5662640000000  0.4981070000000 1.0
C      1  0.4299780000000  0.5360680000000  0.4856340000000 1.0
C      1  0.4543440000000  0.5699260000000  0.4328600000000 1.0
C      1  0.5042600000000  0.4798970000000  0.4389630000000 1.0
C      1  0.4720070000000  0.5639340000000  0.4520330000000 1.0
C      1  0.4924870000000  0.5489970000000  0.5212190000000 1.0
C      1  0.4839980000000  0.4468250000000  0.4683050000000 1.0
C      1  0.5582400000000  0.4541360000000  0.5582820000000 1.0
C      1  0.3924210000000  0.4166380000000  0.4650290000000 1.0
C      1  0.4141900000000  0.4320430000000  0.5059250000000 1.0
C      1  0.4132910000000  0.4288230000000  0.4776380000000 1.0
C      1  0.4108090000000  0.5439820000000  0.4687560000000 1.0
C      1  0.4420480000000  0.4386670000000  0.5470640000000 1.0
C      1  0.5178300000000  0.5381970000000  0.5288160000000 1.0
C      1  0.4951700000000  0.4978590000000  0.4818980000000 1.0
C      1  0.6209010000000  0.5771590000000  0.4583490000000 1.0
C      1  0.4580040000000  0.4486310000000  0.4800060000000 1.0
C      1  0.4089530000000  0.5566120000000  0.4451350000000 1.0
C      1  0.6504340000000  0.6135680000000  0.4345480000000 1.0
C      1  0.5748920000000  0.5214040000000  0.4945400000000 1.0
C      1  0.5610180000000  0.5195670000000  0.5846070000000 1.0
C      1  0.4404500000000  0.4426530000000  0.4359200000000 1.0
C      1  0.5718820000000  0.4958570000000  0.5789390000000 1.0
C      1  0.4278090000000  0.5675690000000  0.4293710000000 1.0
C      1  0.5102280000000  0.4968880000000  0.5061110000000 1.0
C      1  0.5338720000000  0.4298240000000  0.5244120000000 1.0
C      1  0.4341230000000  0.4451650000000  0.5211630000000 1.0
C      1  0.5302970000000  0.5446290000000  0.5528520000000 1.0
C      1  0.6357900000000  0.5955150000000  0.4463490000000 1.0
C      1  0.4589500000000  0.5323690000000  0.4903630000000 1.0
C      1  0.5359820000000  0.4389950000000  0.5507870000000 1.0
C      1  0.5136560000000  0.4360450000000  0.5674680000000 1.0
C      1  0.4638800000000  0.4520030000000  0.4255310000000 1.0
C      1  0.4676070000000  0.5334230000000  0.5210820000000 1.0
C      1  0.5735020000000  0.4775510000000  0.5577260000000 1.0
C      1  0.4756830000000  0.5547220000000  0.4781240000000 1.0
C      1  0.5064530000000  0.5895690000000  0.4959410000000 1.0
C      1  0.4676970000000  0.5033000000000  0.4855850000000 1.0
END
