TITL C-599894-471-1016 11.9753636964832 125000 -493.982900298953 0 0 81 (C1) n - 1
REM
REM in /home/nfs/bkarasulu/CARBON/AIRSS/Generating-Clusters/TERSOFF/Only-C1/FIRE-HFTN
REM
REM
REM
REM
REM
REM ./C.cell (11c1c37f851c82e70ff6c80c92926a4b)
REM AIRSS Version 0.9.1 bugfix July 2018 build 013d7b7c2542+ Fri, 06 Jul 2018 19:26:36 +0100
REM compiler GCC version 9.2.1 20190827 (Red Hat 9.2.1-1)
REM options -cpp -mtune=generic -march=x86-64 -g -O0 -fpre-include=/usr/include/finclude/math-vector-fortran.h
REM seed 709517687 -1782100614 -1788224672 1180483661 1318500086 -2047986040 -950874667 -1670769703 -859744997 -1222387627 397407825 117783148 208148623 344729986 1037598452 1829951923 -737258858 962262499 51062939 -2120085803 -873050192 62978148 -312176509 -1775828512 -1474478478 -1790864544 -813628445 991461490 344715254 825680793 958274604 -304109902 1143168142
REM
CELL 1.54180   50.00000   50.00000   50.00000   90.00000   90.00000   90.00000
LATT -1
SFAC C  
C      1  0.4858720000000  0.4756830000000  0.5276410000000 1.0
C      1  0.5370220000000  0.4472560000000  0.4304190000000 1.0
C      1  0.4326370000000  0.4443180000000  0.4884760000000 1.0
C      1  0.5512340000000  0.5189450000000  0.4704400000000 1.0
C      1  0.4503340000000  0.4151020000000  0.5248940000000 1.0
C      1  0.5209720000000  0.4344850000000  0.4504130000000 1.0
C      1  0.5965400000000  0.4833680000000  0.4338520000000 1.0
C      1  0.5143420000000  0.5273330000000  0.4098000000000 1.0
C      1  0.4608110000000  0.4520360000000  0.4255680000000 1.0
C      1  0.5207330000000  0.4106510000000  0.5192940000000 1.0
C      1  0.4997280000000  0.5194090000000  0.4690210000000 1.0
C      1  0.5734750000000  0.5327230000000  0.5339520000000 1.0
C      1  0.5398440000000  0.5725050000000  0.4625520000000 1.0
C      1  0.5443740000000  0.5644820000000  0.5141860000000 1.0
C      1  0.5259180000000  0.4678730000000  0.4147000000000 1.0
C      1  0.4708430000000  0.5463660000000  0.5568650000000 1.0
C      1  0.4844980000000  0.5375340000000  0.5329590000000 1.0
C      1  0.4503620000000  0.4329750000000  0.4694460000000 1.0
C      1  0.6039420000000  0.4806640000000  0.4987710000000 1.0
C      1  0.4834720000000  0.5551280000000  0.5112160000000 1.0
C      1  0.5787380000000  0.5128610000000  0.4723970000000 1.0
C      1  0.4692440000000  0.5141250000000  0.3982170000000 1.0
C      1  0.5921660000000  0.5049840000000  0.4489070000000 1.0
C      1  0.4802740000000  0.5837560000000  0.4684280000000 1.0
C      1  0.4961050000000  0.5820020000000  0.4469230000000 1.0
C      1  0.5254970000000  0.5077160000000  0.4717840000000 1.0
C      1  0.4352060000000  0.4631810000000  0.4214260000000 1.0
C      1  0.4702530000000  0.4562840000000  0.5409740000000 1.0
C      1  0.5449770000000  0.5726190000000  0.4887780000000 1.0
C      1  0.4758930000000  0.4277070000000  0.5365360000000 1.0
C      1  0.4960730000000  0.5069410000000  0.4035270000000 1.0
C      1  0.4339250000000  0.4371570000000  0.5159980000000 1.0
C      1  0.4111540000000  0.5610180000000  0.5967400000000 1.0
C      1  0.5916440000000  0.5060850000000  0.4970070000000 1.0
C      1  0.5078980000000  0.4921930000000  0.5358070000000 1.0
C      1  0.4287710000000  0.4871620000000  0.4109190000000 1.0
C      1  0.4968000000000  0.4073190000000  0.5332440000000 1.0
C      1  0.5017100000000  0.4790250000000  0.4064210000000 1.0
C      1  0.6259640000000  0.4671350000000  0.5057210000000 1.0
C      1  0.5953850000000  0.5237160000000  0.5192080000000 1.0
C      1  0.3961170000000  0.5676720000000  0.6175210000000 1.0
C      1  0.5208160000000  0.5693390000000  0.4420150000000 1.0
C      1  0.6490630000000  0.4725490000000  0.5183460000000 1.0
C      1  0.4729540000000  0.5203900000000  0.4724370000000 1.0
C      1  0.6215110000000  0.5292690000000  0.5280520000000 1.0
C      1  0.5320380000000  0.4165970000000  0.4691740000000 1.0
C      1  0.4312220000000  0.4946540000000  0.4764200000000 1.0
C      1  0.4831310000000  0.4730020000000  0.4995090000000 1.0
C      1  0.5332720000000  0.4808870000000  0.5294170000000 1.0
C      1  0.4415670000000  0.4581070000000  0.5350150000000 1.0
C      1  0.4426510000000  0.5475320000000  0.5546440000000 1.0
C      1  0.5648540000000  0.4442560000000  0.4288470000000 1.0
C      1  0.4262490000000  0.5543790000000  0.5760130000000 1.0
C      1  0.4229150000000  0.4698160000000  0.4814970000000 1.0
C      1  0.4895590000000  0.5534430000000  0.5771730000000 1.0
C      1  0.4322110000000  0.5412000000000  0.5291250000000 1.0
C      1  0.5068470000000  0.5205010000000  0.5383140000000 1.0
C      1  0.5324220000000  0.4107820000000  0.4952710000000 1.0
C      1  0.4965150000000  0.4470010000000  0.4590040000000 1.0
C      1  0.4363570000000  0.5329710000000  0.5040130000000 1.0
C      1  0.4434890000000  0.5075400000000  0.4014390000000 1.0
C      1  0.3510050000000  0.5876360000000  0.6798710000000 1.0
C      1  0.3810810000000  0.5743270000000  0.6383020000000 1.0
C      1  0.5005970000000  0.4669670000000  0.4786630000000 1.0
C      1  0.5408850000000  0.4747890000000  0.5041370000000 1.0
C      1  0.5166260000000  0.5498040000000  0.5740580000000 1.0
C      1  0.5487370000000  0.5456160000000  0.5347200000000 1.0
C      1  0.3660450000000  0.5809810000000  0.6590840000000 1.0
C      1  0.4822830000000  0.3822600000000  0.5301160000000 1.0
C      1  0.5870490000000  0.4590900000000  0.4281430000000 1.0
C      1  0.5274730000000  0.5364530000000  0.5511470000000 1.0
C      1  0.4696760000000  0.4413770000000  0.4505330000000 1.0
C      1  0.4468010000000  0.5170400000000  0.4831730000000 1.0
C      1  0.4778630000000  0.5736330000000  0.4929620000000 1.0
C      1  0.4557530000000  0.3870180000000  0.5240510000000 1.0
C      1  0.5225120000000  0.5495100000000  0.4222330000000 1.0
C      1  0.6577730000000  0.4951830000000  0.5300440000000 1.0
C      1  0.6456250000000  0.5189290000000  0.5333690000000 1.0
C      1  0.5253410000000  0.4807380000000  0.4811760000000 1.0
C      1  0.3362130000000  0.5941820000000  0.7003160000000 1.0
C      1  0.4802750000000  0.4607570000000  0.4072250000000 1.0
END
