TITL C-599894-471-334 2.94778394777438 125000 -260.210040761083 0 0 44 (C1) n - 1
REM
REM in /home/nfs/bkarasulu/CARBON/AIRSS/Generating-Clusters/TERSOFF/Only-C1/FIRE-HFTN
REM
REM
REM
REM
REM
REM ./C.cell (11c1c37f851c82e70ff6c80c92926a4b)
REM AIRSS Version 0.9.1 bugfix July 2018 build 013d7b7c2542+ Fri, 06 Jul 2018 19:26:36 +0100
REM compiler GCC version 9.2.1 20190827 (Red Hat 9.2.1-1)
REM options -cpp -mtune=generic -march=x86-64 -g -O0 -fpre-include=/usr/include/finclude/math-vector-fortran.h
REM seed -490056240 -886379144 72570278 -197458251 622326860 274937299 -2106743053 -723149729 1646371369 -1064431388 -1557947075 1228274923 -1496099213 -327949154 -275414769 176746658 -617792163 -334835426 -920072147 969715697 654129898 160511928 574458941 -630930597 -60436551 -641173238 -960293412 779368521 -132770805 -1934606451 -1601422974 734181515 -955697690
REM
CELL 1.54180   50.00000   50.00000   50.00000   90.00000   90.00000   90.00000
LATT -1
SFAC C  
C      1  0.4757650000000  0.4544070000000  0.4475700000000 1.0
C      1  0.5323590000000  0.5093950000000  0.5322300000000 1.0
C      1  0.4938580000000  0.4360390000000  0.4885230000000 1.0
C      1  0.5048640000000  0.4449500000000  0.5125830000000 1.0
C      1  0.5491440000000  0.4733160000000  0.4516650000000 1.0
C      1  0.5494010000000  0.3941940000000  0.4518150000000 1.0
C      1  0.4750680000000  0.3822550000000  0.4443730000000 1.0
C      1  0.4971800000000  0.6108350000000  0.5405610000000 1.0
C      1  0.5520460000000  0.4643570000000  0.5214570000000 1.0
C      1  0.5525990000000  0.4902460000000  0.5283770000000 1.0
C      1  0.5516680000000  0.4205320000000  0.4499010000000 1.0
C      1  0.5463930000000  0.3684010000000  0.4541050000000 1.0
C      1  0.5095700000000  0.6332390000000  0.5337010000000 1.0
C      1  0.4878840000000  0.4538320000000  0.5335210000000 1.0
C      1  0.4495560000000  0.4425850000000  0.5621910000000 1.0
C      1  0.4627140000000  0.4893210000000  0.5568390000000 1.0
C      1  0.4859960000000  0.4812790000000  0.5425640000000 1.0
C      1  0.4952330000000  0.5509120000000  0.4436640000000 1.0
C      1  0.5333450000000  0.5232800000000  0.4581410000000 1.0
C      1  0.4701440000000  0.4356690000000  0.5461190000000 1.0
C      1  0.4739120000000  0.5040850000000  0.4306750000000 1.0
C      1  0.4874400000000  0.5780580000000  0.4411250000000 1.0
C      1  0.4724990000000  0.4781990000000  0.4363310000000 1.0
C      1  0.4289590000000  0.5116720000000  0.5790460000000 1.0
C      1  0.4529860000000  0.5161010000000  0.5635020000000 1.0
C      1  0.4784150000000  0.4064340000000  0.4535020000000 1.0
C      1  0.5517780000000  0.4470290000000  0.4496180000000 1.0
C      1  0.5433520000000  0.4989460000000  0.4550750000000 1.0
C      1  0.5324320000000  0.5556950000000  0.5070170000000 1.0
C      1  0.5219340000000  0.6549070000000  0.5261330000000 1.0
C      1  0.4853880000000  0.5877300000000  0.5459670000000 1.0
C      1  0.4439210000000  0.4692420000000  0.5682820000000 1.0
C      1  0.5174360000000  0.5459710000000  0.4614000000000 1.0
C      1  0.5138120000000  0.5913340000000  0.4777940000000 1.0
C      1  0.4745040000000  0.5640740000000  0.5508660000000 1.0
C      1  0.4826360000000  0.4322780000000  0.4632110000000 1.0
C      1  0.5326840000000  0.4468870000000  0.5155850000000 1.0
C      1  0.5356490000000  0.5359860000000  0.5245470000000 1.0
C      1  0.4639470000000  0.5404530000000  0.5565310000000 1.0
C      1  0.4813300000000  0.5295050000000  0.4325360000000 1.0
C      1  0.5227140000000  0.5648470000000  0.4825680000000 1.0
C      1  0.4965510000000  0.5975030000000  0.4577560000000 1.0
C      1  0.5070820000000  0.4993870000000  0.5392580000000 1.0
C      1  0.4238530000000  0.4846320000000  0.5817780000000 1.0
END
