TITL C-599895-9959-1173 2.7566867882031 125000 -194.227763318201 0 0 33 (C1) n - 1
REM
REM in /home/nfs/bkarasulu/CARBON/AIRSS/Generating-Clusters/TERSOFF/Only-C1/FIRE-HFTN
REM
REM
REM
REM
REM
REM ./C.cell (11c1c37f851c82e70ff6c80c92926a4b)
REM AIRSS Version 0.9.1 bugfix July 2018 build 013d7b7c2542+ Fri, 06 Jul 2018 19:26:36 +0100
REM compiler GCC version 9.2.1 20190827 (Red Hat 9.2.1-1)
REM options -cpp -mtune=generic -march=x86-64 -g -O0 -fpre-include=/usr/include/finclude/math-vector-fortran.h
REM seed -188228282 -1469735900 -1193979143 552589557 -1824080279 -540289815 -1822281471 -347017528 -1160881931 1351462564 -1484018814 -821524016 -884581481 -781838108 814901593 -96600981 1880364367 1083585651 2068500320 650862058 -369178908 396972077 986050276 1470622110 -2082267409 -2004052757 1057408589 887043729 -1950362236 -433118441 583590734 -184615780 1585271796
REM
CELL 1.54180   50.00000   50.00000   50.00000   90.00000   90.00000   90.00000
LATT -1
SFAC C  
C      1  0.4143700000000  0.5343420000000  0.5224400000000 1.0
C      1  0.5490020000000  0.4883700000000  0.5576190000000 1.0
C      1  0.4128800000000  0.5297530000000  0.4702150000000 1.0
C      1  0.5952370000000  0.4406620000000  0.4940740000000 1.0
C      1  0.5658080000000  0.4445330000000  0.5323470000000 1.0
C      1  0.4275150000000  0.5076400000000  0.4607260000000 1.0
C      1  0.5596730000000  0.4651040000000  0.5503460000000 1.0
C      1  0.5723190000000  0.4506530000000  0.5052440000000 1.0
C      1  0.5029520000000  0.5538610000000  0.4989030000000 1.0
C      1  0.4941550000000  0.5541140000000  0.4738110000000 1.0
C      1  0.4775330000000  0.5150870000000  0.4498690000000 1.0
C      1  0.4245160000000  0.5892150000000  0.4239920000000 1.0
C      1  0.5644110000000  0.3671010000000  0.5558050000000 1.0
C      1  0.4590750000000  0.5596650000000  0.4407470000000 1.0
C      1  0.5373930000000  0.5102060000000  0.5021770000000 1.0
C      1  0.5272520000000  0.5217490000000  0.5256710000000 1.0
C      1  0.5393220000000  0.4891480000000  0.4838290000000 1.0
C      1  0.5651070000000  0.4179200000000  0.5407990000000 1.0
C      1  0.4061570000000  0.5313570000000  0.4972970000000 1.0
C      1  0.4322150000000  0.5678960000000  0.4391490000000 1.0
C      1  0.5640950000000  0.3420900000000  0.5631520000000 1.0
C      1  0.5554420000000  0.4672570000000  0.4902230000000 1.0
C      1  0.4783440000000  0.5435470000000  0.4532420000000 1.0
C      1  0.4591820000000  0.5402850000000  0.5474840000000 1.0
C      1  0.4851690000000  0.5415220000000  0.5419240000000 1.0
C      1  0.5647340000000  0.3925300000000  0.5483330000000 1.0
C      1  0.5227440000000  0.4901570000000  0.4613160000000 1.0
C      1  0.4137450000000  0.5528150000000  0.4541320000000 1.0
C      1  0.5364180000000  0.5105300000000  0.5496440000000 1.0
C      1  0.5061190000000  0.5404640000000  0.5233990000000 1.0
C      1  0.4523830000000  0.5027550000000  0.4521720000000 1.0
C      1  0.4336580000000  0.5376330000000  0.5404700000000 1.0
C      1  0.5010750000000  0.5000400000000  0.4494480000000 1.0
END
