TITL C-599891-72-828 -1732.08166082222 125000 -795.16208106717 0 0 131 (C1) n - 1
REM
REM in /home/nfs/bkarasulu/CARBON/AIRSS/Generating-Clusters/TERSOFF/Only-C1/FIRE-HFTN
REM
REM
REM
REM
REM
REM ./C.cell (11c1c37f851c82e70ff6c80c92926a4b)
REM AIRSS Version 0.9.1 bugfix July 2018 build 013d7b7c2542+ Fri, 06 Jul 2018 19:26:36 +0100
REM compiler GCC version 9.2.1 20190827 (Red Hat 9.2.1-1)
REM options -cpp -mtune=generic -march=x86-64 -g -O0 -fpre-include=/usr/include/finclude/math-vector-fortran.h
REM seed 1618291945 351322921 1800815528 -2069172391 199498588 1256298861 -158745803 -1809700620 778730796 964278234 -401619920 2043732512 12743764 949247101 94599702 -1587534511 916414635 971179266 -398646056 -892285002 -2055246857 -778794626 -269310487 2043064368 -786829419 -239560776 -2120090712 1995498618 -1363350183 -13544578 -191748623 -1759112385 1395675596
REM
CELL 1.54180   50.00000   50.00000   50.00000   90.00000   90.00000   90.00000
LATT -1
SFAC C  
C      1  0.4450370000000  0.5422070000000  0.5702770000000 1.0
C      1  0.4762930000000  0.4508600000000  0.4249490000000 1.0
C      1  0.5430660000000  0.5252290000000  0.4407550000000 1.0
C      1  0.4398350000000  0.4936530000000  0.4691940000000 1.0
C      1  0.4703320000000  0.5649510000000  0.5018150000000 1.0
C      1  0.4249550000000  0.5662440000000  0.4384250000000 1.0
C      1  0.5024800000000  0.4497890000000  0.4364490000000 1.0
C      1  0.6122920000000  0.3626500000000  0.5147860000000 1.0
C      1  0.4121310000000  0.5174630000000  0.4398610000000 1.0
C      1  0.4731290000000  0.5269620000000  0.4523000000000 1.0
C      1  0.5756870000000  0.5639220000000  0.5157350000000 1.0
C      1  0.4650230000000  0.4644270000000  0.5968760000000 1.0
C      1  0.4414800000000  0.5261940000000  0.4959220000000 1.0
C      1  0.4986080000000  0.4492770000000  0.5212640000000 1.0
C      1  0.5349650000000  0.5506020000000  0.4566670000000 1.0
C      1  0.4705200000000  0.4122910000000  0.5398520000000 1.0
C      1  0.4471660000000  0.5801730000000  0.6311470000000 1.0
C      1  0.4249070000000  0.5438000000000  0.5488990000000 1.0
C      1  0.4084520000000  0.5571940000000  0.5037640000000 1.0
C      1  0.4489660000000  0.5220600000000  0.4109370000000 1.0
C      1  0.5453000000000  0.5463660000000  0.5773120000000 1.0
C      1  0.5475100000000  0.5857220000000  0.4242790000000 1.0
C      1  0.5499120000000  0.5743580000000  0.4495750000000 1.0
C      1  0.5660800000000  0.4736120000000  0.3528190000000 1.0
C      1  0.4589010000000  0.4907900000000  0.5228920000000 1.0
C      1  0.5428310000000  0.5574260000000  0.5511200000000 1.0
C      1  0.4840000000000  0.4787950000000  0.6097660000000 1.0
C      1  0.5653250000000  0.5706810000000  0.5407410000000 1.0
C      1  0.6101090000000  0.4819570000000  0.5439080000000 1.0
C      1  0.5132550000000  0.4233140000000  0.5228970000000 1.0
C      1  0.5953830000000  0.4131590000000  0.5231800000000 1.0
C      1  0.5195580000000  0.5104900000000  0.4293000000000 1.0
C      1  0.4320410000000  0.4674670000000  0.5600530000000 1.0
C      1  0.5445120000000  0.5185600000000  0.5840290000000 1.0
C      1  0.4594910000000  0.5388050000000  0.4316500000000 1.0
C      1  0.4126710000000  0.4688080000000  0.4462060000000 1.0
C      1  0.5960480000000  0.4673850000000  0.5614180000000 1.0
C      1  0.4532690000000  0.4526230000000  0.5734590000000 1.0
C      1  0.5326410000000  0.4933950000000  0.4729140000000 1.0
C      1  0.5607550000000  0.5149460000000  0.5139000000000 1.0
C      1  0.4659030000000  0.4193110000000  0.5111700000000 1.0
C      1  0.4658090000000  0.4574410000000  0.4826400000000 1.0
C      1  0.4610330000000  0.5681120000000  0.3970940000000 1.0
C      1  0.4856850000000  0.4193800000000  0.5847750000000 1.0
C      1  0.5231830000000  0.4134380000000  0.4978320000000 1.0
C      1  0.5523550000000  0.4962560000000  0.5347950000000 1.0
C      1  0.5174220000000  0.5344460000000  0.5034970000000 1.0
C      1  0.6182380000000  0.4857150000000  0.5186510000000 1.0
C      1  0.5097640000000  0.4987150000000  0.4538550000000 1.0
C      1  0.4987840000000  0.4047140000000  0.5388830000000 1.0
C      1  0.4107870000000  0.5168710000000  0.5508670000000 1.0
C      1  0.5470180000000  0.4584140000000  0.5008960000000 1.0
C      1  0.4651500000000  0.4832700000000  0.4711610000000 1.0
C      1  0.4723780000000  0.4481650000000  0.5093990000000 1.0
C      1  0.4145100000000  0.4375090000000  0.5171680000000 1.0
C      1  0.4109160000000  0.4344400000000  0.4901300000000 1.0
C      1  0.4680450000000  0.5190660000000  0.3901120000000 1.0
C      1  0.4488060000000  0.5783420000000  0.5167530000000 1.0
C      1  0.4265220000000  0.5067810000000  0.4164880000000 1.0
C      1  0.5396360000000  0.5051360000000  0.5584770000000 1.0
C      1  0.5793280000000  0.4821280000000  0.4588280000000 1.0
C      1  0.4675850000000  0.5368420000000  0.5008620000000 1.0
C      1  0.5593640000000  0.4411940000000  0.5825490000000 1.0
C      1  0.6043010000000  0.3870650000000  0.5191690000000 1.0
C      1  0.5662400000000  0.5853310000000  0.4695310000000 1.0
C      1  0.4972700000000  0.5913410000000  0.5526660000000 1.0
C      1  0.4075330000000  0.4939990000000  0.5097770000000 1.0
C      1  0.5358760000000  0.4324010000000  0.5915520000000 1.0
C      1  0.5502930000000  0.4133860000000  0.4898350000000 1.0
C      1  0.5130620000000  0.4441940000000  0.4625120000000 1.0
C      1  0.5084630000000  0.5999550000000  0.5298460000000 1.0
C      1  0.4153410000000  0.5433110000000  0.4536730000000 1.0
C      1  0.4834790000000  0.5019800000000  0.4607040000000 1.0
C      1  0.4817460000000  0.4947220000000  0.3989010000000 1.0
C      1  0.5814320000000  0.4436690000000  0.5654980000000 1.0
C      1  0.4658340000000  0.4271140000000  0.5652560000000 1.0
C      1  0.6103210000000  0.5173670000000  0.4720290000000 1.0
C      1  0.4958100000000  0.5751050000000  0.4906130000000 1.0
C      1  0.4873910000000  0.4957720000000  0.5196570000000 1.0
C      1  0.6152050000000  0.4467440000000  0.4922590000000 1.0
C      1  0.5736150000000  0.4536950000000  0.4625500000000 1.0
C      1  0.4202170000000  0.5419400000000  0.4825390000000 1.0
C      1  0.4597080000000  0.5637330000000  0.5811910000000 1.0
C      1  0.6158140000000  0.4748120000000  0.4926120000000 1.0
C      1  0.4532460000000  0.5725430000000  0.6069810000000 1.0
C      1  0.5754230000000  0.5820180000000  0.4943320000000 1.0
C      1  0.5111090000000  0.5079960000000  0.5559030000000 1.0
C      1  0.4804570000000  0.5767740000000  0.5674130000000 1.0
C      1  0.5086220000000  0.4753560000000  0.5239480000000 1.0
C      1  0.5044540000000  0.4193520000000  0.4769110000000 1.0
C      1  0.4611590000000  0.6251870000000  0.5009260000000 1.0
C      1  0.4933360000000  0.5094370000000  0.5759060000000 1.0
C      1  0.5010360000000  0.4996260000000  0.6014860000000 1.0
C      1  0.6042520000000  0.4900920000000  0.4710820000000 1.0
C      1  0.5438030000000  0.5951960000000  0.4002860000000 1.0
C      1  0.5800490000000  0.5362210000000  0.5095370000000 1.0
C      1  0.4149120000000  0.4954990000000  0.4572400000000 1.0
C      1  0.4498510000000  0.5652070000000  0.4239560000000 1.0
C      1  0.5380780000000  0.4741670000000  0.5230080000000 1.0
C      1  0.5571680000000  0.5014740000000  0.4548070000000 1.0
C      1  0.5109260000000  0.4230900000000  0.5928440000000 1.0
C      1  0.4717070000000  0.5469010000000  0.3820420000000 1.0
C      1  0.4586510000000  0.4335980000000  0.4390080000000 1.0
C      1  0.5674080000000  0.4382050000000  0.4890850000000 1.0
C      1  0.5475180000000  0.4821640000000  0.3690040000000 1.0
C      1  0.5287950000000  0.4906980000000  0.3856880000000 1.0
C      1  0.4334550000000  0.4773210000000  0.4181880000000 1.0
C      1  0.3951980000000  0.4766780000000  0.4909400000000 1.0
C      1  0.5285570000000  0.5075900000000  0.6057440000000 1.0
C      1  0.5028040000000  0.6006170000000  0.5020320000000 1.0
C      1  0.4871760000000  0.6227880000000  0.4936520000000 1.0
C      1  0.4355200000000  0.5023350000000  0.5103620000000 1.0
C      1  0.4454900000000  0.5147640000000  0.5798380000000 1.0
C      1  0.5935900000000  0.4314220000000  0.5016270000000 1.0
C      1  0.5295180000000  0.4636850000000  0.4775890000000 1.0
C      1  0.4754360000000  0.4124050000000  0.4828220000000 1.0
C      1  0.5250920000000  0.5482810000000  0.5303380000000 1.0
C      1  0.5376340000000  0.5139170000000  0.4957290000000 1.0
C      1  0.4907880000000  0.5215680000000  0.5079650000000 1.0
C      1  0.4036570000000  0.4552160000000  0.4715690000000 1.0
C      1  0.5100700000000  0.4988410000000  0.4048290000000 1.0
C      1  0.4186910000000  0.4522340000000  0.5395850000000 1.0
C      1  0.5879640000000  0.4222470000000  0.5485650000000 1.0
C      1  0.3937790000000  0.5062670000000  0.5310770000000 1.0
C      1  0.5157890000000  0.5550790000000  0.4802950000000 1.0
C      1  0.4258870000000  0.5623360000000  0.5262940000000 1.0
C      1  0.4276320000000  0.4966370000000  0.5656100000000 1.0
C      1  0.4607080000000  0.4326950000000  0.4668350000000 1.0
C      1  0.4636510000000  0.4732150000000  0.4114670000000 1.0
C      1  0.4462860000000  0.6063010000000  0.5132180000000 1.0
C      1  0.6015800000000  0.5328290000000  0.4918930000000 1.0
END
