TITL C-599893-4344-1084 0.000105264199240359 125000 -483.327096769491 0 0 79 (C1) n - 1
REM
REM in /home/nfs/bkarasulu/CARBON/AIRSS/Generating-Clusters/TERSOFF/Only-C1/FIRE-HFTN
REM
REM
REM
REM
REM
REM ./C.cell (11c1c37f851c82e70ff6c80c92926a4b)
REM AIRSS Version 0.9.1 bugfix July 2018 build 013d7b7c2542+ Fri, 06 Jul 2018 19:26:36 +0100
REM compiler GCC version 9.2.1 20190827 (Red Hat 9.2.1-1)
REM options -cpp -mtune=generic -march=x86-64 -g -O0 -fpre-include=/usr/include/finclude/math-vector-fortran.h
REM seed 952663674 519602473 -1722765691 25572866 -41695423 -1147635686 2039457343 -2038205243 836479829 -745040206 -1931811421 1867062946 1462056679 -1391331313 1005915463 -1002946475 103131455 706335859 -1363830226 434868792 -2018662562 233895821 -226139266 266583019 -273733036 343464178 -796297476 302489025 -616212774 -1999429517 869191558 803739698 1728715113
REM
CELL 1.54180   50.00000   50.00000   50.00000   90.00000   90.00000   90.00000
LATT -1
SFAC C  
C      1  0.5525880000000  0.5137710000000  0.5879760000000 1.0
C      1  0.4911350000000  0.4620950000000  0.5200840000000 1.0
C      1  0.5489650000000  0.5326400000000  0.5668370000000 1.0
C      1  0.5199900000000  0.5042510000000  0.5406540000000 1.0
C      1  0.4046480000000  0.4367380000000  0.5358090000000 1.0
C      1  0.4294630000000  0.4541790000000  0.4811040000000 1.0
C      1  0.5669930000000  0.5028170000000  0.5215180000000 1.0
C      1  0.6328870000000  0.4647160000000  0.4580890000000 1.0
C      1  0.5376210000000  0.4889700000000  0.5858180000000 1.0
C      1  0.4448990000000  0.4304300000000  0.4856680000000 1.0
C      1  0.4301100000000  0.5263730000000  0.5017840000000 1.0
C      1  0.5789520000000  0.4893810000000  0.4996300000000 1.0
C      1  0.5701040000000  0.5314680000000  0.5218180000000 1.0
C      1  0.4825520000000  0.4583430000000  0.4925980000000 1.0
C      1  0.5162550000000  0.5723580000000  0.5413490000000 1.0
C      1  0.5266250000000  0.4941100000000  0.4875090000000 1.0
C      1  0.4733820000000  0.5581770000000  0.5349190000000 1.0
C      1  0.4547020000000  0.5757340000000  0.4580980000000 1.0
C      1  0.5026270000000  0.5538460000000  0.4112650000000 1.0
C      1  0.5101740000000  0.5657680000000  0.4340300000000 1.0
C      1  0.4933670000000  0.5743770000000  0.4940740000000 1.0
C      1  0.5075250000000  0.5522700000000  0.5612760000000 1.0
C      1  0.5402770000000  0.4466820000000  0.5591530000000 1.0
C      1  0.4974430000000  0.4391750000000  0.5364500000000 1.0
C      1  0.5841750000000  0.4831310000000  0.4724050000000 1.0
C      1  0.4704590000000  0.5377410000000  0.5157010000000 1.0
C      1  0.5465680000000  0.4738150000000  0.5625950000000 1.0
C      1  0.4160040000000  0.4156010000000  0.5237540000000 1.0
C      1  0.4650560000000  0.5683350000000  0.4830650000000 1.0
C      1  0.5596880000000  0.5471060000000  0.5443720000000 1.0
C      1  0.5545580000000  0.5125250000000  0.4467550000000 1.0
C      1  0.4791710000000  0.5526630000000  0.5620250000000 1.0
C      1  0.5507430000000  0.4638980000000  0.4407230000000 1.0
C      1  0.4908220000000  0.5045760000000  0.4057970000000 1.0
C      1  0.5865650000000  0.5513910000000  0.4792290000000 1.0
C      1  0.4784520000000  0.4789800000000  0.4731020000000 1.0
C      1  0.5211540000000  0.5277880000000  0.5576620000000 1.0
C      1  0.5325830000000  0.4440240000000  0.4399710000000 1.0
C      1  0.4934500000000  0.5765440000000  0.5232710000000 1.0
C      1  0.4489430000000  0.5483080000000  0.4987960000000 1.0
C      1  0.4731870000000  0.4331670000000  0.4823360000000 1.0
C      1  0.5089160000000  0.4891380000000  0.5905230000000 1.0
C      1  0.4831600000000  0.4939690000000  0.5827590000000 1.0
C      1  0.6094530000000  0.4736680000000  0.4651490000000 1.0
C      1  0.5389560000000  0.4271510000000  0.5154680000000 1.0
C      1  0.4837000000000  0.5188830000000  0.4990330000000 1.0
C      1  0.5203610000000  0.5674450000000  0.4832820000000 1.0
C      1  0.5670690000000  0.5478370000000  0.4979090000000 1.0
C      1  0.4986510000000  0.5296150000000  0.4007710000000 1.0
C      1  0.4665420000000  0.5022390000000  0.4830640000000 1.0
C      1  0.5122580000000  0.4283770000000  0.4481760000000 1.0
C      1  0.4629320000000  0.4118620000000  0.5671030000000 1.0
C      1  0.4400530000000  0.5668900000000  0.4376330000000 1.0
C      1  0.5244200000000  0.5572900000000  0.4566920000000 1.0
C      1  0.4296860000000  0.5462170000000  0.4243900000000 1.0
C      1  0.4908250000000  0.4219050000000  0.4632810000000 1.0
C      1  0.5253440000000  0.4332560000000  0.5393470000000 1.0
C      1  0.5348620000000  0.4687520000000  0.4877930000000 1.0
C      1  0.4143460000000  0.4845010000000  0.5187360000000 1.0
C      1  0.5419380000000  0.5674750000000  0.5307780000000 1.0
C      1  0.4802120000000  0.4772820000000  0.4451050000000 1.0
C      1  0.5641080000000  0.4864340000000  0.4518780000000 1.0
C      1  0.4990150000000  0.4871230000000  0.5315500000000 1.0
C      1  0.4780300000000  0.4249110000000  0.5503400000000 1.0
C      1  0.5469410000000  0.4912320000000  0.5389780000000 1.0
C      1  0.4304690000000  0.5202390000000  0.4184350000000 1.0
C      1  0.4415880000000  0.5093770000000  0.5513480000000 1.0
C      1  0.5421790000000  0.5356710000000  0.4517640000000 1.0
C      1  0.5108250000000  0.5147420000000  0.4937050000000 1.0
C      1  0.5424230000000  0.4442200000000  0.4951160000000 1.0
C      1  0.4608150000000  0.5010850000000  0.5688170000000 1.0
C      1  0.4328820000000  0.4118590000000  0.5031000000000 1.0
C      1  0.4454260000000  0.4980980000000  0.4182020000000 1.0
C      1  0.4249000000000  0.5106590000000  0.5278570000000 1.0
C      1  0.4240040000000  0.4796720000000  0.4915810000000 1.0
C      1  0.4723440000000  0.4904700000000  0.4215760000000 1.0
C      1  0.4038700000000  0.4634630000000  0.5338450000000 1.0
C      1  0.4382120000000  0.5038720000000  0.4844140000000 1.0
C      1  0.5434210000000  0.5648580000000  0.5014340000000 1.0
END
