TITL C-599892-9790-843 -43807.6945119727 125000 -1062.2069197825 0 0 175 (C1) n - 1
REM
REM in /home/nfs/bkarasulu/CARBON/AIRSS/Generating-Clusters/TERSOFF/Only-C1/FIRE-HFTN
REM
REM
REM
REM
REM
REM ./C.cell (11c1c37f851c82e70ff6c80c92926a4b)
REM AIRSS Version 0.9.1 bugfix July 2018 build 013d7b7c2542+ Fri, 06 Jul 2018 19:26:36 +0100
REM compiler GCC version 9.2.1 20190827 (Red Hat 9.2.1-1)
REM options -cpp -mtune=generic -march=x86-64 -g -O0 -fpre-include=/usr/include/finclude/math-vector-fortran.h
REM seed -1161355365 -789043178 -1066497015 -1142958421 -1755638567 124590280 -72222356 -950259237 -534471059 -1666517704 617218245 1492042465 628526255 -65136124 84950177 971107586 -1146882844 1793224777 -483805677 577337718 2082990649 1248535428 -1887290802 -579323651 -1877841722 1654230652 235853805 -1192561273 1004570491 1731664546 -1834904858 -1502814463 -1368450009
REM
CELL 1.54180   50.00000   50.00000   50.00000   90.00000   90.00000   90.00000
LATT -1
SFAC C  
C      1  0.5005610000000  0.4393120000000  0.4387910000000 1.0
C      1  0.5191450000000  0.4595170000000  0.4473920000000 1.0
C      1  0.4413860000000  0.5825930000000  0.5416690000000 1.0
C      1  0.5879480000000  0.4836430000000  0.4661570000000 1.0
C      1  0.4292530000000  0.4949260000000  0.4834250000000 1.0
C      1  0.5170100000000  0.4806570000000  0.4688380000000 1.0
C      1  0.5945370000000  0.4279980000000  0.5358940000000 1.0
C      1  0.4325810000000  0.5436320000000  0.5742330000000 1.0
C      1  0.4655240000000  0.4694460000000  0.5590290000000 1.0
C      1  0.4521680000000  0.6226190000000  0.4696920000000 1.0
C      1  0.5441260000000  0.4674500000000  0.5421530000000 1.0
C      1  0.4340820000000  0.4878280000000  0.3955950000000 1.0
C      1  0.5648910000000  0.3770790000000  0.4913940000000 1.0
C      1  0.5441510000000  0.5283920000000  0.5070190000000 1.0
C      1  0.5645440000000  0.4459400000000  0.4408150000000 1.0
C      1  0.5829490000000  0.4445240000000  0.5574640000000 1.0
C      1  0.3982870000000  0.5128390000000  0.4446370000000 1.0
C      1  0.5829170000000  0.5423150000000  0.5391120000000 1.0
C      1  0.4354590000000  0.4723870000000  0.5545820000000 1.0
C      1  0.4687360000000  0.4892960000000  0.5014330000000 1.0
C      1  0.4232980000000  0.4974260000000  0.4230600000000 1.0
C      1  0.4268010000000  0.4472840000000  0.4550890000000 1.0
C      1  0.4548400000000  0.5584260000000  0.4960820000000 1.0
C      1  0.5469480000000  0.4943140000000  0.5376950000000 1.0
C      1  0.4940110000000  0.5415710000000  0.5505260000000 1.0
C      1  0.5121040000000  0.4149450000000  0.4280180000000 1.0
C      1  0.5307790000000  0.5085470000000  0.5571430000000 1.0
C      1  0.4541960000000  0.5496480000000  0.5916110000000 1.0
C      1  0.4697700000000  0.5636560000000  0.4047120000000 1.0
C      1  0.5103920000000  0.5642070000000  0.5147170000000 1.0
C      1  0.4049650000000  0.5401580000000  0.4534740000000 1.0
C      1  0.4687650000000  0.5793900000000  0.4283380000000 1.0
C      1  0.4491050000000  0.4317220000000  0.5956500000000 1.0
C      1  0.5401350000000  0.4580560000000  0.5894800000000 1.0
C      1  0.4798720000000  0.4075470000000  0.4806810000000 1.0
C      1  0.5585040000000  0.4621770000000  0.5025720000000 1.0
C      1  0.4459930000000  0.5101700000000  0.4664730000000 1.0
C      1  0.4917370000000  0.4063250000000  0.5390410000000 1.0
C      1  0.6084390000000  0.4939100000000  0.4836760000000 1.0
C      1  0.5643700000000  0.3908490000000  0.5362170000000 1.0
C      1  0.4641640000000  0.4141290000000  0.5323050000000 1.0
C      1  0.4787000000000  0.4694380000000  0.6256580000000 1.0
C      1  0.4415670000000  0.4856650000000  0.5066270000000 1.0
C      1  0.5427130000000  0.4839660000000  0.4872540000000 1.0
C      1  0.4918150000000  0.5929140000000  0.4383110000000 1.0
C      1  0.4886530000000  0.5152410000000  0.4491750000000 1.0
C      1  0.4764530000000  0.5205300000000  0.5428340000000 1.0
C      1  0.5394480000000  0.4024570000000  0.5419490000000 1.0
C      1  0.4256570000000  0.5530640000000  0.4371360000000 1.0
C      1  0.5039930000000  0.4333560000000  0.5450720000000 1.0
C      1  0.5124390000000  0.4872520000000  0.5631800000000 1.0
C      1  0.5588130000000  0.6076720000000  0.5608720000000 1.0
C      1  0.4032720000000  0.5530290000000  0.5338130000000 1.0
C      1  0.5560350000000  0.5523160000000  0.3767060000000 1.0
C      1  0.6027230000000  0.5133010000000  0.4003370000000 1.0
C      1  0.4102100000000  0.4345460000000  0.5022720000000 1.0
C      1  0.5768650000000  0.5536510000000  0.3952570000000 1.0
C      1  0.4546720000000  0.4418030000000  0.4596440000000 1.0
C      1  0.3679140000000  0.4994000000000  0.4860860000000 1.0
C      1  0.4677620000000  0.3822370000000  0.4804270000000 1.0
C      1  0.5341790000000  0.4036470000000  0.4429680000000 1.0
C      1  0.5246530000000  0.6364140000000  0.4841890000000 1.0
C      1  0.3914720000000  0.4864630000000  0.5581870000000 1.0
C      1  0.4677690000000  0.4389350000000  0.5145700000000 1.0
C      1  0.5426440000000  0.5063690000000  0.6037740000000 1.0
C      1  0.3949670000000  0.4839660000000  0.5295830000000 1.0
C      1  0.5760690000000  0.5644520000000  0.5167830000000 1.0
C      1  0.4328590000000  0.5352020000000  0.4148140000000 1.0
C      1  0.5258330000000  0.3927280000000  0.4680170000000 1.0
C      1  0.5910000000000  0.4186320000000  0.5080630000000 1.0
C      1  0.4352480000000  0.5970470000000  0.5174420000000 1.0
C      1  0.4573450000000  0.6344780000000  0.4957080000000 1.0
C      1  0.4816930000000  0.5099850000000  0.5165450000000 1.0
C      1  0.5587710000000  0.4177080000000  0.4398670000000 1.0
C      1  0.6007880000000  0.5389250000000  0.3908350000000 1.0
C      1  0.4753430000000  0.5148990000000  0.4016030000000 1.0
C      1  0.5671800000000  0.5747260000000  0.4436040000000 1.0
C      1  0.5772940000000  0.3931910000000  0.5107430000000 1.0
C      1  0.4244550000000  0.4775840000000  0.5276080000000 1.0
C      1  0.4173670000000  0.3974430000000  0.5844770000000 1.0
C      1  0.5422050000000  0.4400000000000  0.5086200000000 1.0
C      1  0.5883960000000  0.4710320000000  0.5475250000000 1.0
C      1  0.4653450000000  0.4319450000000  0.4854590000000 1.0
C      1  0.4171850000000  0.4899190000000  0.5712880000000 1.0
C      1  0.4762050000000  0.5421550000000  0.6049660000000 1.0
C      1  0.4972860000000  0.4900300000000  0.6250330000000 1.0
C      1  0.5077550000000  0.4107250000000  0.4805880000000 1.0
C      1  0.4713540000000  0.5255610000000  0.4690940000000 1.0
C      1  0.4828070000000  0.6417510000000  0.5055750000000 1.0
C      1  0.4594880000000  0.4731230000000  0.3927540000000 1.0
C      1  0.5202170000000  0.5598840000000  0.6109110000000 1.0
C      1  0.5917140000000  0.4347340000000  0.4831730000000 1.0
C      1  0.4108320000000  0.4511420000000  0.4789030000000 1.0
C      1  0.4833810000000  0.4591130000000  0.5827900000000 1.0
C      1  0.5835920000000  0.4546610000000  0.4617330000000 1.0
C      1  0.5305910000000  0.5310640000000  0.4546700000000 1.0
C      1  0.5331890000000  0.4730520000000  0.4047600000000 1.0
C      1  0.5831320000000  0.6195530000000  0.5649490000000 1.0
C      1  0.4387180000000  0.6250640000000  0.5153400000000 1.0
C      1  0.4907180000000  0.5668270000000  0.5367210000000 1.0
C      1  0.5122200000000  0.4656420000000  0.5818710000000 1.0
C      1  0.4091190000000  0.5444400000000  0.5071400000000 1.0
C      1  0.4230010000000  0.5169410000000  0.5774610000000 1.0
C      1  0.5312430000000  0.5463240000000  0.5247190000000 1.0
C      1  0.5355100000000  0.4330350000000  0.5439540000000 1.0
C      1  0.5650050000000  0.5006350000000  0.4734410000000 1.0
C      1  0.5353220000000  0.5014070000000  0.5106890000000 1.0
C      1  0.4632490000000  0.4513790000000  0.4107710000000 1.0
C      1  0.5738580000000  0.5684880000000  0.4187320000000 1.0
C      1  0.4357140000000  0.4159120000000  0.5748610000000 1.0
C      1  0.4472330000000  0.5012420000000  0.4393490000000 1.0
C      1  0.5449580000000  0.5961190000000  0.5822700000000 1.0
C      1  0.5045910000000  0.5594340000000  0.4868900000000 1.0
C      1  0.5034030000000  0.5373890000000  0.6110660000000 1.0
C      1  0.5221230000000  0.5344050000000  0.5501590000000 1.0
C      1  0.5131780000000  0.5440760000000  0.3474240000000 1.0
C      1  0.5106830000000  0.4812450000000  0.3912120000000 1.0
C      1  0.4724620000000  0.4437760000000  0.4366300000000 1.0
C      1  0.3864820000000  0.4958680000000  0.4645340000000 1.0
C      1  0.5557910000000  0.5703100000000  0.4703760000000 1.0
C      1  0.5589420000000  0.5261290000000  0.5880620000000 1.0
C      1  0.5525930000000  0.4788730000000  0.6056890000000 1.0
C      1  0.5576830000000  0.4399300000000  0.5726380000000 1.0
C      1  0.5148180000000  0.5109760000000  0.6142830000000 1.0
C      1  0.4693800000000  0.5820990000000  0.5458940000000 1.0
C      1  0.4839660000000  0.4566900000000  0.5359600000000 1.0
C      1  0.4833350000000  0.4902390000000  0.3882720000000 1.0
C      1  0.5421800000000  0.4619420000000  0.4299650000000 1.0
C      1  0.4744450000000  0.3585690000000  0.4913590000000 1.0
C      1  0.4776830000000  0.5492700000000  0.4825720000000 1.0
C      1  0.5282870000000  0.5555350000000  0.4690010000000 1.0
C      1  0.5145220000000  0.5085280000000  0.4550350000000 1.0
C      1  0.5593500000000  0.5907440000000  0.5142450000000 1.0
C      1  0.4886980000000  0.4775090000000  0.4833210000000 1.0
C      1  0.4065320000000  0.4796990000000  0.4769580000000 1.0
C      1  0.4941780000000  0.3929630000000  0.3822070000000 1.0
C      1  0.3983260000000  0.5469730000000  0.4807450000000 1.0
C      1  0.4175980000000  0.4645100000000  0.4341010000000 1.0
C      1  0.4432720000000  0.5952010000000  0.4670880000000 1.0
C      1  0.5131520000000  0.6027350000000  0.4516430000000 1.0
C      1  0.5184280000000  0.3701430000000  0.5106320000000 1.0
C      1  0.5987580000000  0.4975690000000  0.5101410000000 1.0
C      1  0.6215140000000  0.5505550000000  0.3772340000000 1.0
C      1  0.4241910000000  0.5612850000000  0.5523110000000 1.0
C      1  0.4729650000000  0.5060280000000  0.4286640000000 1.0
C      1  0.5498010000000  0.5950610000000  0.4861590000000 1.0
C      1  0.5368430000000  0.3753870000000  0.4879350000000 1.0
C      1  0.5705260000000  0.5399070000000  0.5666170000000 1.0
C      1  0.5149620000000  0.3893760000000  0.5324650000000 1.0
C      1  0.4438200000000  0.5770140000000  0.4439440000000 1.0
C      1  0.5212320000000  0.4312390000000  0.4935390000000 1.0
C      1  0.4370870000000  0.5392650000000  0.5062150000000 1.0
C      1  0.5030050000000  0.4031780000000  0.4044950000000 1.0
C      1  0.5823720000000  0.4733780000000  0.5179210000000 1.0
C      1  0.5977580000000  0.5165950000000  0.5329820000000 1.0
C      1  0.5653840000000  0.5269570000000  0.4870690000000 1.0
C      1  0.5345620000000  0.5485140000000  0.3616580000000 1.0
C      1  0.4967920000000  0.3526520000000  0.5052750000000 1.0
C      1  0.5039990000000  0.4785180000000  0.5365280000000 1.0
C      1  0.5747310000000  0.5538920000000  0.4882210000000 1.0
C      1  0.4385580000000  0.4162120000000  0.5454560000000 1.0
C      1  0.5310560000000  0.6119810000000  0.4720630000000 1.0
C      1  0.4685560000000  0.4509290000000  0.6054390000000 1.0
C      1  0.5330770000000  0.5804240000000  0.6000540000000 1.0
C      1  0.5474480000000  0.6071310000000  0.5348170000000 1.0
C      1  0.5730780000000  0.4728090000000  0.6228830000000 1.0
C      1  0.5983550000000  0.4969520000000  0.5554270000000 1.0
C      1  0.4426170000000  0.5833210000000  0.4930390000000 1.0
C      1  0.4177460000000  0.4235940000000  0.5262690000000 1.0
C      1  0.4580330000000  0.5381390000000  0.4007370000000 1.0
C      1  0.3748550000000  0.4923620000000  0.5115870000000 1.0
C      1  0.4707580000000  0.5003980000000  0.5615940000000 1.0
C      1  0.5103910000000  0.6368220000000  0.5085530000000 1.0
C      1  0.5246690000000  0.6236310000000  0.5292830000000 1.0
C      1  0.5078060000000  0.4987840000000  0.5174800000000 1.0
END
