TITL C-599897-7526-565 242.938347978663 125000 -782.32761205594 0 0 130 (C1) n - 1
REM
REM in /home/nfs/bkarasulu/CARBON/AIRSS/Generating-Clusters/TERSOFF/Only-C1/FIRE-HFTN
REM
REM
REM
REM
REM
REM ./C.cell (11c1c37f851c82e70ff6c80c92926a4b)
REM AIRSS Version 0.9.1 bugfix July 2018 build 013d7b7c2542+ Fri, 06 Jul 2018 19:26:36 +0100
REM compiler GCC version 9.2.1 20190827 (Red Hat 9.2.1-1)
REM options -cpp -mtune=generic -march=x86-64 -g -O0 -fpre-include=/usr/include/finclude/math-vector-fortran.h
REM seed 592142560 896065503 -221173968 697869750 1577713266 -2099510961 -881496006 1836302288 -450976527 -2119648713 -376315240 1721792045 717388862 1066229446 1599402233 121456698 267343062 1167442098 -1918901323 617853131 2057821176 1975215674 1812727385 -1892907628 1509542092 -1985122928 -1711551232 -1440097351 1931530757 -10620376 -1104295155 878082795 -1853493209
REM
CELL 1.54180   50.00000   50.00000   50.00000   90.00000   90.00000   90.00000
LATT -1
SFAC C  
C      1  0.3957390000000  0.4988510000000  0.4632520000000 1.0
C      1  0.5117880000000  0.5525000000000  0.5228830000000 1.0
C      1  0.4720170000000  0.4155350000000  0.6262420000000 1.0
C      1  0.5112900000000  0.4872760000000  0.4352240000000 1.0
C      1  0.4470700000000  0.6013560000000  0.4858420000000 1.0
C      1  0.5347430000000  0.4633630000000  0.5941750000000 1.0
C      1  0.4707540000000  0.4248670000000  0.4625020000000 1.0
C      1  0.5541890000000  0.5362930000000  0.4876080000000 1.0
C      1  0.4201880000000  0.5048210000000  0.5688130000000 1.0
C      1  0.5509500000000  0.5179300000000  0.5672840000000 1.0
C      1  0.5367860000000  0.5745420000000  0.5546170000000 1.0
C      1  0.4505890000000  0.3866400000000  0.4938100000000 1.0
C      1  0.4027340000000  0.4744990000000  0.4762630000000 1.0
C      1  0.5479680000000  0.5162570000000  0.5931660000000 1.0
C      1  0.5087260000000  0.4793890000000  0.5583840000000 1.0
C      1  0.5560160000000  0.4114350000000  0.4319310000000 1.0
C      1  0.4445350000000  0.5514430000000  0.4608020000000 1.0
C      1  0.5689350000000  0.4576110000000  0.4362580000000 1.0
C      1  0.5613640000000  0.5597970000000  0.5510850000000 1.0
C      1  0.4908600000000  0.5833390000000  0.4418040000000 1.0
C      1  0.5360120000000  0.5941860000000  0.5039180000000 1.0
C      1  0.3955540000000  0.5191390000000  0.4812480000000 1.0
C      1  0.5242640000000  0.5800570000000  0.5274740000000 1.0
C      1  0.4020820000000  0.5438730000000  0.5160370000000 1.0
C      1  0.4039130000000  0.5047550000000  0.4366520000000 1.0
C      1  0.4646090000000  0.5643800000000  0.4430350000000 1.0
C      1  0.4858140000000  0.4163970000000  0.4404850000000 1.0
C      1  0.5140670000000  0.5958300000000  0.4585090000000 1.0
C      1  0.5498400000000  0.4385330000000  0.4249070000000 1.0
C      1  0.5875390000000  0.5109810000000  0.5390910000000 1.0
C      1  0.4092960000000  0.5055360000000  0.5158090000000 1.0
C      1  0.3925790000000  0.5713010000000  0.5552810000000 1.0
C      1  0.4800490000000  0.5638630000000  0.4892340000000 1.0
C      1  0.4443550000000  0.5291120000000  0.4129760000000 1.0
C      1  0.4066560000000  0.5032900000000  0.5456130000000 1.0
C      1  0.5463860000000  0.4070240000000  0.5041640000000 1.0
C      1  0.5785550000000  0.4707170000000  0.4884230000000 1.0
C      1  0.5042200000000  0.5036990000000  0.5134240000000 1.0
C      1  0.5297550000000  0.5467990000000  0.4729100000000 1.0
C      1  0.5397880000000  0.5566080000000  0.4466200000000 1.0
C      1  0.5611080000000  0.4217090000000  0.5475820000000 1.0
C      1  0.4691570000000  0.4522140000000  0.4702280000000 1.0
C      1  0.5937120000000  0.5576200000000  0.4598610000000 1.0
C      1  0.5746120000000  0.5376100000000  0.4655150000000 1.0
C      1  0.5117300000000  0.5272820000000  0.4083240000000 1.0
C      1  0.5531590000000  0.5096450000000  0.4322950000000 1.0
C      1  0.5155340000000  0.6054300000000  0.4863710000000 1.0
C      1  0.4409660000000  0.5097560000000  0.5850600000000 1.0
C      1  0.5670210000000  0.4748660000000  0.5133780000000 1.0
C      1  0.4241380000000  0.4619630000000  0.4631770000000 1.0
C      1  0.4498990000000  0.5230600000000  0.4654310000000 1.0
C      1  0.4234330000000  0.4568950000000  0.5183070000000 1.0
C      1  0.4155170000000  0.4127310000000  0.4003920000000 1.0
C      1  0.4221530000000  0.5154590000000  0.4199040000000 1.0
C      1  0.4659320000000  0.5460390000000  0.5042470000000 1.0
C      1  0.6147890000000  0.5295320000000  0.4936070000000 1.0
C      1  0.4918800000000  0.4574750000000  0.5211220000000 1.0
C      1  0.4391600000000  0.5091130000000  0.5099930000000 1.0
C      1  0.5192240000000  0.4484210000000  0.5140520000000 1.0
C      1  0.4434130000000  0.4469480000000  0.5358820000000 1.0
C      1  0.4346530000000  0.4428130000000  0.5623930000000 1.0
C      1  0.5659200000000  0.5956640000000  0.4606020000000 1.0
C      1  0.4976920000000  0.4364770000000  0.5837910000000 1.0
C      1  0.4006270000000  0.5682310000000  0.5295010000000 1.0
C      1  0.5203770000000  0.5260340000000  0.5198080000000 1.0
C      1  0.4662530000000  0.5461010000000  0.4187100000000 1.0
C      1  0.5722970000000  0.4448390000000  0.5615080000000 1.0
C      1  0.5862100000000  0.4829560000000  0.5337630000000 1.0
C      1  0.5410580000000  0.4669930000000  0.5228470000000 1.0
C      1  0.4521310000000  0.5313100000000  0.5229820000000 1.0
C      1  0.4950630000000  0.4839850000000  0.5329080000000 1.0
C      1  0.5592480000000  0.5358540000000  0.4408580000000 1.0
C      1  0.5120550000000  0.4817070000000  0.4633240000000 1.0
C      1  0.5642190000000  0.5303220000000  0.5424320000000 1.0
C      1  0.4835720000000  0.4260780000000  0.6053980000000 1.0
C      1  0.5882960000000  0.4448570000000  0.4813510000000 1.0
C      1  0.4063350000000  0.4761280000000  0.5053470000000 1.0
C      1  0.5691410000000  0.4870140000000  0.4432210000000 1.0
C      1  0.4721550000000  0.5912200000000  0.4918920000000 1.0
C      1  0.5934790000000  0.4609000000000  0.5505590000000 1.0
C      1  0.5900890000000  0.4259710000000  0.5024890000000 1.0
C      1  0.4212480000000  0.5623810000000  0.4749960000000 1.0
C      1  0.5031820000000  0.5528120000000  0.4780350000000 1.0
C      1  0.6036010000000  0.5800060000000  0.4965210000000 1.0
C      1  0.4227990000000  0.4386070000000  0.5852200000000 1.0
C      1  0.4565990000000  0.3797010000000  0.5188680000000 1.0
C      1  0.4555380000000  0.4053400000000  0.4755880000000 1.0
C      1  0.5255930000000  0.4207440000000  0.5180110000000 1.0
C      1  0.4173300000000  0.4284570000000  0.4211040000000 1.0
C      1  0.5302590000000  0.4177230000000  0.5474700000000 1.0
C      1  0.5049590000000  0.4196200000000  0.4221820000000 1.0
C      1  0.5011970000000  0.5750150000000  0.4149250000000 1.0
C      1  0.4711750000000  0.4401350000000  0.5308530000000 1.0
C      1  0.4495440000000  0.4724990000000  0.4721120000000 1.0
C      1  0.5368770000000  0.4744760000000  0.5503650000000 1.0
C      1  0.4885030000000  0.5840530000000  0.5563100000000 1.0
C      1  0.6141400000000  0.5552500000000  0.5028720000000 1.0
C      1  0.5490540000000  0.5277110000000  0.5149980000000 1.0
C      1  0.4205940000000  0.4439390000000  0.4423540000000 1.0
C      1  0.5033520000000  0.4969820000000  0.4854780000000 1.0
C      1  0.5047590000000  0.5528160000000  0.5900850000000 1.0
C      1  0.5703620000000  0.4145640000000  0.5195290000000 1.0
C      1  0.4814160000000  0.4162230000000  0.5440230000000 1.0
C      1  0.5882390000000  0.4428720000000  0.4530230000000 1.0
C      1  0.5074570000000  0.4632670000000  0.5837150000000 1.0
C      1  0.4865280000000  0.5341510000000  0.5965980000000 1.0
C      1  0.5843090000000  0.4912580000000  0.4691290000000 1.0
C      1  0.5524550000000  0.4621790000000  0.5719840000000 1.0
C      1  0.4698000000000  0.3913690000000  0.5389480000000 1.0
C      1  0.5241500000000  0.4577320000000  0.4694440000000 1.0
C      1  0.5258180000000  0.5083520000000  0.4238300000000 1.0
C      1  0.4486220000000  0.5003240000000  0.4830710000000 1.0
C      1  0.5044890000000  0.4203590000000  0.5610490000000 1.0
C      1  0.5223540000000  0.4412940000000  0.4173290000000 1.0
C      1  0.4922390000000  0.6062200000000  0.5044830000000 1.0
C      1  0.4082340000000  0.5899640000000  0.5127190000000 1.0
C      1  0.4641390000000  0.5195350000000  0.5943920000000 1.0
C      1  0.5119120000000  0.5727470000000  0.5713220000000 1.0
C      1  0.4021110000000  0.5449830000000  0.4873950000000 1.0
C      1  0.5526720000000  0.3956050000000  0.4533020000000 1.0
C      1  0.4646230000000  0.5683890000000  0.5562160000000 1.0
C      1  0.5407940000000  0.5854330000000  0.4499600000000 1.0
C      1  0.6049950000000  0.5092400000000  0.4782000000000 1.0
C      1  0.5893850000000  0.5833730000000  0.4716220000000 1.0
C      1  0.4228510000000  0.5879000000000  0.4883660000000 1.0
C      1  0.4930510000000  0.5482230000000  0.4077130000000 1.0
C      1  0.5091160000000  0.4657910000000  0.4174610000000 1.0
C      1  0.4523530000000  0.5457330000000  0.5474630000000 1.0
C      1  0.5470480000000  0.3946440000000  0.4793630000000 1.0
C      1  0.4981970000000  0.5969670000000  0.5318400000000 1.0
END
