TITL C-599893-4344-758 1.46721573211276e-05 125000 -676.49975783334 0 0 111 (C1) n - 1
REM
REM in /home/nfs/bkarasulu/CARBON/AIRSS/Generating-Clusters/TERSOFF/Only-C1/FIRE-HFTN
REM
REM
REM
REM
REM
REM ./C.cell (11c1c37f851c82e70ff6c80c92926a4b)
REM AIRSS Version 0.9.1 bugfix July 2018 build 013d7b7c2542+ Fri, 06 Jul 2018 19:26:36 +0100
REM compiler GCC version 9.2.1 20190827 (Red Hat 9.2.1-1)
REM options -cpp -mtune=generic -march=x86-64 -g -O0 -fpre-include=/usr/include/finclude/math-vector-fortran.h
REM seed 569486454 1706870828 -1243875151 -1335383116 -500497917 -902700408 -1820816258 462502268 189019865 604031312 -830437206 1439483335 -405986505 265140395 2054001767 -932446214 897767246 -2122569000 337479771 -622518456 1795595324 -20653869 354658020 799081989 -1596988015 -993066614 -1678377318 1214979775 -386619517 -290904098 -1400403969 1431522689 -657843297
REM
CELL 1.54180   50.00000   50.00000   50.00000   90.00000   90.00000   90.00000
LATT -1
SFAC C  
C      1  0.4590320000000  0.5335530000000  0.5285630000000 1.0
C      1  0.4128600000000  0.5055910000000  0.5183250000000 1.0
C      1  0.5606050000000  0.5404930000000  0.5820270000000 1.0
C      1  0.5787060000000  0.5544380000000  0.5291800000000 1.0
C      1  0.5718960000000  0.4558050000000  0.5260360000000 1.0
C      1  0.5568460000000  0.4423560000000  0.5056450000000 1.0
C      1  0.6020850000000  0.4656140000000  0.4787210000000 1.0
C      1  0.4313680000000  0.4669080000000  0.4389800000000 1.0
C      1  0.5332360000000  0.4118970000000  0.5326980000000 1.0
C      1  0.5608840000000  0.4909540000000  0.5623680000000 1.0
C      1  0.4297990000000  0.4501820000000  0.4628790000000 1.0
C      1  0.4392070000000  0.4954280000000  0.5696980000000 1.0
C      1  0.5693850000000  0.5152170000000  0.4469510000000 1.0
C      1  0.5440830000000  0.4228880000000  0.5565220000000 1.0
C      1  0.4507730000000  0.4605130000000  0.4182990000000 1.0
C      1  0.4699660000000  0.5083440000000  0.5348830000000 1.0
C      1  0.4726430000000  0.4123140000000  0.4655440000000 1.0
C      1  0.4583330000000  0.5685850000000  0.4107540000000 1.0
C      1  0.5213750000000  0.5590020000000  0.4816100000000 1.0
C      1  0.5355730000000  0.4819780000000  0.4879860000000 1.0
C      1  0.4621210000000  0.4795860000000  0.5791970000000 1.0
C      1  0.5048260000000  0.5194670000000  0.4887000000000 1.0
C      1  0.5119380000000  0.5425080000000  0.5036730000000 1.0
C      1  0.5911750000000  0.5014940000000  0.5163300000000 1.0
C      1  0.4476340000000  0.4269090000000  0.4648310000000 1.0
C      1  0.4601360000000  0.5724170000000  0.4566930000000 1.0
C      1  0.4828580000000  0.5888960000000  0.5264720000000 1.0
C      1  0.5592830000000  0.5794230000000  0.4895900000000 1.0
C      1  0.5403760000000  0.4734680000000  0.5752230000000 1.0
C      1  0.5448540000000  0.4998350000000  0.3958730000000 1.0
C      1  0.5219280000000  0.4096070000000  0.4840960000000 1.0
C      1  0.5387370000000  0.4374870000000  0.4435570000000 1.0
C      1  0.4630140000000  0.5841600000000  0.4822340000000 1.0
C      1  0.5134330000000  0.5335070000000  0.5319550000000 1.0
C      1  0.5145770000000  0.4849390000000  0.5852650000000 1.0
C      1  0.4821970000000  0.4023000000000  0.5373380000000 1.0
C      1  0.5058500000000  0.4161730000000  0.5292430000000 1.0
C      1  0.4869880000000  0.4949080000000  0.5863930000000 1.0
C      1  0.4871640000000  0.4001190000000  0.4882710000000 1.0
C      1  0.4125070000000  0.4457690000000  0.5086750000000 1.0
C      1  0.5499400000000  0.4584930000000  0.4833240000000 1.0
C      1  0.5274410000000  0.5076520000000  0.4736770000000 1.0
C      1  0.4793860000000  0.4628890000000  0.4216120000000 1.0
C      1  0.4340360000000  0.5425540000000  0.5393760000000 1.0
C      1  0.5425040000000  0.4171550000000  0.5057380000000 1.0
C      1  0.5596070000000  0.5711420000000  0.5443240000000 1.0
C      1  0.4938850000000  0.4161720000000  0.4461410000000 1.0
C      1  0.4470480000000  0.5224030000000  0.5801780000000 1.0
C      1  0.4786120000000  0.4494780000000  0.4997830000000 1.0
C      1  0.4150170000000  0.4625530000000  0.4858650000000 1.0
C      1  0.4666730000000  0.4919030000000  0.4908120000000 1.0
C      1  0.4435350000000  0.5472050000000  0.4206160000000 1.0
C      1  0.4571740000000  0.4583220000000  0.5191030000000 1.0
C      1  0.5277050000000  0.4580300000000  0.4275310000000 1.0
C      1  0.4711120000000  0.5227520000000  0.4545170000000 1.0
C      1  0.5007230000000  0.5822560000000  0.4362240000000 1.0
C      1  0.5604500000000  0.4473090000000  0.4594780000000 1.0
C      1  0.4158760000000  0.5354300000000  0.5179830000000 1.0
C      1  0.4976580000000  0.5092930000000  0.5384840000000 1.0
C      1  0.4993420000000  0.4417020000000  0.5177410000000 1.0
C      1  0.5061240000000  0.4642410000000  0.4082130000000 1.0
C      1  0.5003350000000  0.4595330000000  0.5408600000000 1.0
C      1  0.4168840000000  0.5085690000000  0.4675880000000 1.0
C      1  0.5206700000000  0.4847990000000  0.3908210000000 1.0
C      1  0.5400090000000  0.5275440000000  0.5411750000000 1.0
C      1  0.4872530000000  0.5948610000000  0.4975760000000 1.0
C      1  0.4413420000000  0.5760280000000  0.5011530000000 1.0
C      1  0.5354310000000  0.5841100000000  0.5330610000000 1.0
C      1  0.4487390000000  0.5433760000000  0.4503620000000 1.0
C      1  0.5903530000000  0.5304790000000  0.5222010000000 1.0
C      1  0.4256630000000  0.5364150000000  0.4693250000000 1.0
C      1  0.5506890000000  0.5276210000000  0.4664080000000 1.0
C      1  0.4332680000000  0.5434020000000  0.5672610000000 1.0
C      1  0.5209410000000  0.4187550000000  0.4561470000000 1.0
C      1  0.4339860000000  0.4438520000000  0.5249730000000 1.0
C      1  0.4653730000000  0.5390540000000  0.5017780000000 1.0
C      1  0.4761490000000  0.5230260000000  0.5865450000000 1.0
C      1  0.5143320000000  0.6038740000000  0.4935500000000 1.0
C      1  0.4909200000000  0.5468290000000  0.5818200000000 1.0
C      1  0.4747100000000  0.3906920000000  0.5123000000000 1.0
C      1  0.4855610000000  0.4445080000000  0.5614500000000 1.0
C      1  0.5538000000000  0.5192790000000  0.5648720000000 1.0
C      1  0.4808640000000  0.4741970000000  0.4489460000000 1.0
C      1  0.4211180000000  0.4942370000000  0.5457250000000 1.0
C      1  0.5327700000000  0.4877920000000  0.5155500000000 1.0
C      1  0.5778130000000  0.4823410000000  0.5371810000000 1.0
C      1  0.5356160000000  0.4844500000000  0.4358570000000 1.0
C      1  0.5114300000000  0.5711110000000  0.4582320000000 1.0
C      1  0.5112520000000  0.4845150000000  0.5339030000000 1.0
C      1  0.4882200000000  0.5023100000000  0.4436820000000 1.0
C      1  0.5005910000000  0.5673250000000  0.5671410000000 1.0
C      1  0.4230380000000  0.5519530000000  0.4944320000000 1.0
C      1  0.4127130000000  0.4919330000000  0.4914220000000 1.0
C      1  0.5611020000000  0.5659990000000  0.5724140000000 1.0
C      1  0.5486660000000  0.5103850000000  0.5205960000000 1.0
C      1  0.5065250000000  0.5819660000000  0.5430920000000 1.0
C      1  0.4604720000000  0.4870260000000  0.5184880000000 1.0
C      1  0.4538090000000  0.5840330000000  0.5271720000000 1.0
C      1  0.5560720000000  0.5006420000000  0.4234370000000 1.0
C      1  0.4758790000000  0.5185370000000  0.4835670000000 1.0
C      1  0.5389370000000  0.5940010000000  0.5056260000000 1.0
C      1  0.5438230000000  0.4452530000000  0.5718080000000 1.0
C      1  0.5500150000000  0.5546610000000  0.4779290000000 1.0
C      1  0.4208200000000  0.4931640000000  0.4435600000000 1.0
C      1  0.5919880000000  0.5086880000000  0.4638590000000 1.0
C      1  0.5162060000000  0.5012470000000  0.4471970000000 1.0
C      1  0.4731110000000  0.5814510000000  0.4317530000000 1.0
C      1  0.5887600000000  0.4498540000000  0.4605190000000 1.0
C      1  0.4737120000000  0.4192950000000  0.5591290000000 1.0
C      1  0.4769230000000  0.4684110000000  0.4768950000000 1.0
C      1  0.5972470000000  0.4926510000000  0.4876640000000 1.0
END
