TITL C-599896-8500-360 -49.5184684310281 125000 -671.886360148476 0 0 112 (C1) n - 1
REM
REM in /home/nfs/bkarasulu/CARBON/AIRSS/Generating-Clusters/TERSOFF/Only-C1/FIRE-HFTN
REM
REM
REM
REM
REM
REM ./C.cell (11c1c37f851c82e70ff6c80c92926a4b)
REM AIRSS Version 0.9.1 bugfix July 2018 build 013d7b7c2542+ Fri, 06 Jul 2018 19:26:36 +0100
REM compiler GCC version 9.2.1 20190827 (Red Hat 9.2.1-1)
REM options -cpp -mtune=generic -march=x86-64 -g -O0 -fpre-include=/usr/include/finclude/math-vector-fortran.h
REM seed 1751767731 1024262832 -981340046 1577665280 -1458355051 1745554881 937528754 -1892550660 -1459393260 620116371 1193333107 379873878 608446531 938539845 1244084581 1133802654 963990279 -1719686393 1466342039 -1318017195 -88360924 -976931841 899979314 -1365698284 362055316 -13295348 -1337811110 1655792960 1805735797 135485417 -772427913 -885281463 -66929672
REM
CELL 1.54180   50.00000   50.00000   50.00000   90.00000   90.00000   90.00000
LATT -1
SFAC C  
C      1  0.4764210000000  0.5011110000000  0.5368290000000 1.0
C      1  0.4501080000000  0.4246030000000  0.5050530000000 1.0
C      1  0.5224360000000  0.5155020000000  0.4392010000000 1.0
C      1  0.5225810000000  0.3984860000000  0.6033790000000 1.0
C      1  0.5450290000000  0.5256240000000  0.5315100000000 1.0
C      1  0.4568470000000  0.4967370000000  0.5166860000000 1.0
C      1  0.5496570000000  0.4378460000000  0.4892220000000 1.0
C      1  0.4960960000000  0.4849160000000  0.5492770000000 1.0
C      1  0.5366730000000  0.4561930000000  0.4450910000000 1.0
C      1  0.5002540000000  0.4613610000000  0.5339810000000 1.0
C      1  0.4576910000000  0.5520320000000  0.5447820000000 1.0
C      1  0.4926150000000  0.4249570000000  0.5628280000000 1.0
C      1  0.4836680000000  0.4028520000000  0.4105280000000 1.0
C      1  0.4742090000000  0.5599340000000  0.5250260000000 1.0
C      1  0.5956450000000  0.4638050000000  0.4945890000000 1.0
C      1  0.5098300000000  0.4362050000000  0.5433940000000 1.0
C      1  0.5839100000000  0.4650630000000  0.4679490000000 1.0
C      1  0.5017230000000  0.5436100000000  0.5826070000000 1.0
C      1  0.5762200000000  0.5770570000000  0.5350920000000 1.0
C      1  0.5480680000000  0.4202390000000  0.5115420000000 1.0
C      1  0.6061260000000  0.5082770000000  0.4728290000000 1.0
C      1  0.4893750000000  0.4640780000000  0.5077650000000 1.0
C      1  0.5695130000000  0.5490560000000  0.4180440000000 1.0
C      1  0.4317220000000  0.4870050000000  0.5249090000000 1.0
C      1  0.5110790000000  0.4920510000000  0.5722400000000 1.0
C      1  0.5125470000000  0.4704470000000  0.4569460000000 1.0
C      1  0.5547750000000  0.5599980000000  0.4401250000000 1.0
C      1  0.5078930000000  0.6006400000000  0.5293130000000 1.0
C      1  0.5596820000000  0.5507390000000  0.4880550000000 1.0
C      1  0.5041480000000  0.4939710000000  0.4420850000000 1.0
C      1  0.5136800000000  0.5185960000000  0.5792480000000 1.0
C      1  0.5344960000000  0.4215230000000  0.5370120000000 1.0
C      1  0.4266330000000  0.5481610000000  0.4808950000000 1.0
C      1  0.5246130000000  0.4729790000000  0.5875370000000 1.0
C      1  0.4663870000000  0.5200900000000  0.4241930000000 1.0
C      1  0.4937680000000  0.5585890000000  0.5044750000000 1.0
C      1  0.4816830000000  0.4720820000000  0.4065990000000 1.0
C      1  0.4666510000000  0.4716840000000  0.3837180000000 1.0
C      1  0.5975540000000  0.4855460000000  0.5134420000000 1.0
C      1  0.4503930000000  0.5412160000000  0.4642370000000 1.0
C      1  0.5151980000000  0.5760330000000  0.4925660000000 1.0
C      1  0.4308650000000  0.5256390000000  0.5801240000000 1.0
C      1  0.4097240000000  0.5571900000000  0.5239170000000 1.0
C      1  0.4820370000000  0.5840640000000  0.4624380000000 1.0
C      1  0.4739200000000  0.5489590000000  0.4229600000000 1.0
C      1  0.4977730000000  0.4489260000000  0.4142020000000 1.0
C      1  0.5407090000000  0.3977740000000  0.5835730000000 1.0
C      1  0.4216440000000  0.5683850000000  0.5012150000000 1.0
C      1  0.4177390000000  0.5326890000000  0.6031610000000 1.0
C      1  0.5773430000000  0.5225390000000  0.4180560000000 1.0
C      1  0.4453460000000  0.4205890000000  0.4548400000000 1.0
C      1  0.4746340000000  0.5462220000000  0.5883240000000 1.0
C      1  0.5205920000000  0.5240720000000  0.4916660000000 1.0
C      1  0.4824500000000  0.4244290000000  0.5891110000000 1.0
C      1  0.5114350000000  0.5788230000000  0.4635370000000 1.0
C      1  0.4606690000000  0.4409090000000  0.5954850000000 1.0
C      1  0.4786170000000  0.5623490000000  0.3993590000000 1.0
C      1  0.4326220000000  0.4626910000000  0.5406070000000 1.0
C      1  0.6039130000000  0.5350300000000  0.5169040000000 1.0
C      1  0.5319520000000  0.4589130000000  0.4966010000000 1.0
C      1  0.4850130000000  0.6078580000000  0.5114990000000 1.0
C      1  0.5350090000000  0.5401030000000  0.5531460000000 1.0
C      1  0.5937420000000  0.5560680000000  0.5310360000000 1.0
C      1  0.6055480000000  0.5108600000000  0.5014500000000 1.0
C      1  0.5580800000000  0.5887700000000  0.5155590000000 1.0
C      1  0.5596270000000  0.4488370000000  0.4634820000000 1.0
C      1  0.5682120000000  0.5771680000000  0.4914990000000 1.0
C      1  0.4293410000000  0.4136870000000  0.4337630000000 1.0
C      1  0.4845790000000  0.4259910000000  0.4252310000000 1.0
C      1  0.4064380000000  0.5283140000000  0.5210170000000 1.0
C      1  0.4108230000000  0.5255260000000  0.4918620000000 1.0
C      1  0.5778440000000  0.4876770000000  0.5336560000000 1.0
C      1  0.4946000000000  0.5335320000000  0.4910660000000 1.0
C      1  0.4702910000000  0.5243160000000  0.4802370000000 1.0
C      1  0.5364390000000  0.5029390000000  0.4812590000000 1.0
C      1  0.4527710000000  0.5419200000000  0.5708810000000 1.0
C      1  0.5479320000000  0.5130630000000  0.4551720000000 1.0
C      1  0.5089280000000  0.5856840000000  0.5537980000000 1.0
C      1  0.4475390000000  0.4815330000000  0.4718460000000 1.0
C      1  0.4151620000000  0.5072840000000  0.5374930000000 1.0
C      1  0.5409150000000  0.4604470000000  0.6035540000000 1.0
C      1  0.4164060000000  0.5165800000000  0.4322460000000 1.0
C      1  0.4892030000000  0.3949850000000  0.5101500000000 1.0
C      1  0.4280610000000  0.4705540000000  0.4584270000000 1.0
C      1  0.4735930000000  0.4266370000000  0.4515740000000 1.0
C      1  0.5297770000000  0.5922480000000  0.5122990000000 1.0
C      1  0.5414080000000  0.4848170000000  0.5025120000000 1.0
C      1  0.4981810000000  0.4093720000000  0.6070190000000 1.0
C      1  0.5520970000000  0.4973570000000  0.5269640000000 1.0
C      1  0.5260440000000  0.5660590000000  0.4420850000000 1.0
C      1  0.4303900000000  0.4738980000000  0.5680230000000 1.0
C      1  0.4221450000000  0.5026570000000  0.5656880000000 1.0
C      1  0.4422050000000  0.5222180000000  0.4404970000000 1.0
C      1  0.3921530000000  0.5136790000000  0.4231550000000 1.0
C      1  0.4752140000000  0.6012430000000  0.4859150000000 1.0
C      1  0.5715690000000  0.5036780000000  0.4390940000000 1.0
C      1  0.5172180000000  0.5601640000000  0.5633710000000 1.0
C      1  0.4404160000000  0.4388630000000  0.5276290000000 1.0
C      1  0.5412900000000  0.5384750000000  0.5062790000000 1.0
C      1  0.4671040000000  0.5629290000000  0.4488310000000 1.0
C      1  0.4774750000000  0.4171800000000  0.4993730000000 1.0
C      1  0.5450810000000  0.4065460000000  0.5586340000000 1.0
C      1  0.5044740000000  0.4568730000000  0.4832850000000 1.0
C      1  0.4348540000000  0.4218690000000  0.4812790000000 1.0
C      1  0.5904230000000  0.4905770000000  0.4557330000000 1.0
C      1  0.4821390000000  0.4952800000000  0.4237700000000 1.0
C      1  0.4425870000000  0.4594570000000  0.5886990000000 1.0
C      1  0.5263870000000  0.4493230000000  0.4189940000000 1.0
C      1  0.5583590000000  0.5414300000000  0.4621620000000 1.0
C      1  0.4886080000000  0.4311230000000  0.4760560000000 1.0
C      1  0.4600920000000  0.4995900000000  0.4890200000000 1.0
C      1  0.5146340000000  0.5416740000000  0.4318520000000 1.0
END
