TITL C-599897-7526-743 0.000257453310106644 125000 -1047.74786606656 0 0 170 (C1) n - 1
REM
REM in /home/nfs/bkarasulu/CARBON/AIRSS/Generating-Clusters/TERSOFF/Only-C1/FIRE-HFTN
REM
REM
REM
REM
REM
REM ./C.cell (11c1c37f851c82e70ff6c80c92926a4b)
REM AIRSS Version 0.9.1 bugfix July 2018 build 013d7b7c2542+ Fri, 06 Jul 2018 19:26:36 +0100
REM compiler GCC version 9.2.1 20190827 (Red Hat 9.2.1-1)
REM options -cpp -mtune=generic -march=x86-64 -g -O0 -fpre-include=/usr/include/finclude/math-vector-fortran.h
REM seed 1715132704 1555834496 1620450498 1658628442 1856539062 1502737461 794491678 1557017840 -2033342913 1037356715 1011799136 2001305114 1693881734 -1164972179 -844110888 1738187995 -972670228 913186876 1065976216 1786444734 60553922 -260070556 740198897 280004989 -115196000 2063116689 499545256 -1983880576 810770383 -917125413 -353233342 -203470450 178690021
REM
CELL 1.54180   50.00000   50.00000   50.00000   90.00000   90.00000   90.00000
LATT -1
SFAC C  
C      1  0.4261250000000  0.4551900000000  0.4364180000000 1.0
C      1  0.5209010000000  0.5255090000000  0.6052510000000 1.0
C      1  0.5049120000000  0.5766430000000  0.4437980000000 1.0
C      1  0.4868750000000  0.4061480000000  0.4568610000000 1.0
C      1  0.4782600000000  0.6340150000000  0.4600150000000 1.0
C      1  0.4999650000000  0.4453900000000  0.5659480000000 1.0
C      1  0.4505720000000  0.3969580000000  0.4869050000000 1.0
C      1  0.3864990000000  0.4525600000000  0.4666030000000 1.0
C      1  0.4120950000000  0.4115400000000  0.4569090000000 1.0
C      1  0.3877610000000  0.4841170000000  0.5111660000000 1.0
C      1  0.5609640000000  0.3891880000000  0.5631910000000 1.0
C      1  0.5207070000000  0.4595670000000  0.4768940000000 1.0
C      1  0.4619640000000  0.5583340000000  0.4352160000000 1.0
C      1  0.3901580000000  0.5130720000000  0.5083330000000 1.0
C      1  0.4498610000000  0.4294990000000  0.5249130000000 1.0
C      1  0.4520820000000  0.5892060000000  0.5735970000000 1.0
C      1  0.5348340000000  0.5739130000000  0.6027210000000 1.0
C      1  0.5558320000000  0.4573450000000  0.5657370000000 1.0
C      1  0.4847870000000  0.4311440000000  0.4708070000000 1.0
C      1  0.5911320000000  0.5325200000000  0.5088270000000 1.0
C      1  0.4478350000000  0.5451140000000  0.5211380000000 1.0
C      1  0.5471190000000  0.5133550000000  0.5244630000000 1.0
C      1  0.4930210000000  0.4029780000000  0.5927240000000 1.0
C      1  0.6024560000000  0.5053890000000  0.5034630000000 1.0
C      1  0.4724490000000  0.4817370000000  0.4306990000000 1.0
C      1  0.5390270000000  0.5474980000000  0.5940610000000 1.0
C      1  0.4427260000000  0.5123120000000  0.4832030000000 1.0
C      1  0.5946070000000  0.5395050000000  0.5378360000000 1.0
C      1  0.5181260000000  0.4776810000000  0.6134980000000 1.0
C      1  0.6041480000000  0.4674160000000  0.5390740000000 1.0
C      1  0.4667160000000  0.6633230000000  0.4258310000000 1.0
C      1  0.4925360000000  0.5722490000000  0.5481400000000 1.0
C      1  0.5326550000000  0.6074910000000  0.4208530000000 1.0
C      1  0.5364460000000  0.3771600000000  0.5210160000000 1.0
C      1  0.4030950000000  0.5188030000000  0.4522650000000 1.0
C      1  0.5689760000000  0.5208260000000  0.4177770000000 1.0
C      1  0.4474800000000  0.4921450000000  0.5986530000000 1.0
C      1  0.4672410000000  0.3881380000000  0.4657210000000 1.0
C      1  0.5479790000000  0.4538080000000  0.4838720000000 1.0
C      1  0.4532290000000  0.4630850000000  0.4414560000000 1.0
C      1  0.6158600000000  0.4478480000000  0.5223780000000 1.0
C      1  0.4627440000000  0.5259180000000  0.3988710000000 1.0
C      1  0.5001230000000  0.5573800000000  0.4002990000000 1.0
C      1  0.3949370000000  0.4696530000000  0.4875660000000 1.0
C      1  0.5072850000000  0.6024050000000  0.4321930000000 1.0
C      1  0.4752160000000  0.4977710000000  0.6062990000000 1.0
C      1  0.5431560000000  0.4680600000000  0.4303890000000 1.0
C      1  0.5481310000000  0.4333230000000  0.5786870000000 1.0
C      1  0.5304490000000  0.5348740000000  0.5341090000000 1.0
C      1  0.4234570000000  0.5724980000000  0.4690290000000 1.0
C      1  0.6100760000000  0.5171290000000  0.5479460000000 1.0
C      1  0.4439910000000  0.4677360000000  0.4989280000000 1.0
C      1  0.6043580000000  0.4918870000000  0.4783920000000 1.0
C      1  0.4506590000000  0.5407180000000  0.5791510000000 1.0
C      1  0.4403130000000  0.5872440000000  0.4868220000000 1.0
C      1  0.4648600000000  0.4083680000000  0.5101210000000 1.0
C      1  0.5459710000000  0.4163910000000  0.4589690000000 1.0
C      1  0.5724790000000  0.5935920000000  0.4739910000000 1.0
C      1  0.5290080000000  0.5590830000000  0.5196530000000 1.0
C      1  0.4286140000000  0.5176420000000  0.4384450000000 1.0
C      1  0.4348870000000  0.4726710000000  0.5792900000000 1.0
C      1  0.5554970000000  0.5959670000000  0.4291430000000 1.0
C      1  0.5662180000000  0.5135820000000  0.5731890000000 1.0
C      1  0.4645660000000  0.4471940000000  0.4611870000000 1.0
C      1  0.5082400000000  0.5076690000000  0.3792740000000 1.0
C      1  0.4868790000000  0.3886750000000  0.5480070000000 1.0
C      1  0.4888690000000  0.6232050000000  0.4345080000000 1.0
C      1  0.5515440000000  0.5621030000000  0.5035390000000 1.0
C      1  0.4025610000000  0.5555320000000  0.5306040000000 1.0
C      1  0.5185000000000  0.3927820000000  0.5838030000000 1.0
C      1  0.4941660000000  0.4798670000000  0.5188130000000 1.0
C      1  0.5066320000000  0.4401180000000  0.5406330000000 1.0
C      1  0.5437520000000  0.4052730000000  0.5792050000000 1.0
C      1  0.5394720000000  0.4802440000000  0.5579820000000 1.0
C      1  0.4914440000000  0.4742010000000  0.6044710000000 1.0
C      1  0.4396190000000  0.5666310000000  0.5822480000000 1.0
C      1  0.4801550000000  0.6420340000000  0.4140700000000 1.0
C      1  0.4363990000000  0.5692740000000  0.4433550000000 1.0
C      1  0.5616730000000  0.5419870000000  0.5750450000000 1.0
C      1  0.5140670000000  0.4456430000000  0.3981650000000 1.0
C      1  0.4227050000000  0.4723730000000  0.4845990000000 1.0
C      1  0.5359640000000  0.5067520000000  0.3858260000000 1.0
C      1  0.5017710000000  0.4435150000000  0.4894070000000 1.0
C      1  0.4005040000000  0.5582690000000  0.4813290000000 1.0
C      1  0.4930040000000  0.4964060000000  0.4463050000000 1.0
C      1  0.4746410000000  0.5913670000000  0.5587730000000 1.0
C      1  0.5453820000000  0.5547930000000  0.4545070000000 1.0
C      1  0.4763650000000  0.6186680000000  0.4829740000000 1.0
C      1  0.5592660000000  0.5805670000000  0.4524890000000 1.0
C      1  0.4513350000000  0.4215890000000  0.5738530000000 1.0
C      1  0.4907820000000  0.5226910000000  0.6033430000000 1.0
C      1  0.4734870000000  0.5510230000000  0.4089340000000 1.0
C      1  0.5050650000000  0.5023730000000  0.5043480000000 1.0
C      1  0.5561580000000  0.4478610000000  0.5097700000000 1.0
C      1  0.4955480000000  0.5474290000000  0.5631370000000 1.0
C      1  0.4064270000000  0.4391320000000  0.4504790000000 1.0
C      1  0.5791450000000  0.5991060000000  0.5254660000000 1.0
C      1  0.5174200000000  0.3925830000000  0.5058110000000 1.0
C      1  0.4985890000000  0.5261760000000  0.4468340000000 1.0
C      1  0.5768640000000  0.5833140000000  0.5471550000000 1.0
C      1  0.3949080000000  0.5294220000000  0.4780440000000 1.0
C      1  0.5319000000000  0.4435450000000  0.4198740000000 1.0
C      1  0.3913870000000  0.5673430000000  0.5070770000000 1.0
C      1  0.4777330000000  0.4802930000000  0.4027290000000 1.0
C      1  0.4829220000000  0.5471700000000  0.4852800000000 1.0
C      1  0.4675380000000  0.5935930000000  0.4915980000000 1.0
C      1  0.5863540000000  0.4545810000000  0.4538850000000 1.0
C      1  0.5037440000000  0.5727010000000  0.5214010000000 1.0
C      1  0.4727130000000  0.5391460000000  0.4569210000000 1.0
C      1  0.5349690000000  0.5002770000000  0.6098890000000 1.0
C      1  0.4500790000000  0.5193020000000  0.4575840000000 1.0
C      1  0.4223090000000  0.4216810000000  0.5276700000000 1.0
C      1  0.4228890000000  0.4042330000000  0.4825360000000 1.0
C      1  0.5881630000000  0.4779790000000  0.4340540000000 1.0
C      1  0.5093680000000  0.3761280000000  0.5614630000000 1.0
C      1  0.4816720000000  0.5054960000000  0.3900020000000 1.0
C      1  0.4300340000000  0.5624100000000  0.5341290000000 1.0
C      1  0.5154080000000  0.4974720000000  0.5611550000000 1.0
C      1  0.5755290000000  0.4914360000000  0.4106350000000 1.0
C      1  0.5580420000000  0.5006950000000  0.5478310000000 1.0
C      1  0.4878430000000  0.5253730000000  0.5040590000000 1.0
C      1  0.4820100000000  0.4558540000000  0.5848810000000 1.0
C      1  0.4860980000000  0.5729950000000  0.4981240000000 1.0
C      1  0.4539140000000  0.4582930000000  0.5233800000000 1.0
C      1  0.3987160000000  0.5266480000000  0.5336450000000 1.0
C      1  0.5779600000000  0.5562380000000  0.5550640000000 1.0
C      1  0.5454780000000  0.5297950000000  0.4019110000000 1.0
C      1  0.5125780000000  0.5262660000000  0.5541680000000 1.0
C      1  0.5126450000000  0.4806370000000  0.4595030000000 1.0
C      1  0.4692580000000  0.4811260000000  0.5341660000000 1.0
C      1  0.4132000000000  0.4827330000000  0.5590950000000 1.0
C      1  0.5712730000000  0.5444920000000  0.4924490000000 1.0
C      1  0.5294410000000  0.5986710000000  0.6087980000000 1.0
C      1  0.5387810000000  0.4889920000000  0.4503380000000 1.0
C      1  0.5058640000000  0.4046870000000  0.4362630000000 1.0
C      1  0.4896920000000  0.3963120000000  0.5197900000000 1.0
C      1  0.5836970000000  0.4600850000000  0.5576550000000 1.0
C      1  0.5462560000000  0.5072630000000  0.4725160000000 1.0
C      1  0.5807240000000  0.5239930000000  0.4445940000000 1.0
C      1  0.4091880000000  0.4103470000000  0.5066960000000 1.0
C      1  0.4151480000000  0.5120380000000  0.5542570000000 1.0
C      1  0.5557160000000  0.3770140000000  0.5396980000000 1.0
C      1  0.5619420000000  0.5326980000000  0.4661910000000 1.0
C      1  0.5632220000000  0.4397020000000  0.4635590000000 1.0
C      1  0.4655910000000  0.6592340000000  0.4532780000000 1.0
C      1  0.4067100000000  0.3920570000000  0.4383710000000 1.0
C      1  0.5567880000000  0.4866760000000  0.3886040000000 1.0
C      1  0.4350270000000  0.5298220000000  0.5013270000000 1.0
C      1  0.4703710000000  0.5284000000000  0.5266470000000 1.0
C      1  0.4418480000000  0.5198260000000  0.5613580000000 1.0
C      1  0.4907590000000  0.4575930000000  0.3926500000000 1.0
C      1  0.5314470000000  0.4030910000000  0.4816210000000 1.0
C      1  0.4374140000000  0.5186520000000  0.4112010000000 1.0
C      1  0.5607530000000  0.4997090000000  0.5977820000000 1.0
C      1  0.5785360000000  0.6020630000000  0.4987520000000 1.0
C      1  0.6088920000000  0.4942460000000  0.5304640000000 1.0
C      1  0.3958320000000  0.4732640000000  0.5374810000000 1.0
C      1  0.6045920000000  0.4626880000000  0.4757830000000 1.0
C      1  0.4726080000000  0.4028200000000  0.5709880000000 1.0
C      1  0.5266920000000  0.5511840000000  0.4005720000000 1.0
C      1  0.4623080000000  0.5070430000000  0.5440610000000 1.0
C      1  0.4787310000000  0.5402590000000  0.5846160000000 1.0
C      1  0.4536930000000  0.4494870000000  0.5795480000000 1.0
C      1  0.5302810000000  0.4190730000000  0.4350880000000 1.0
C      1  0.6159310000000  0.4464670000000  0.4955090000000 1.0
C      1  0.5342500000000  0.5049320000000  0.4995590000000 1.0
C      1  0.5654140000000  0.4279510000000  0.5239080000000 1.0
C      1  0.5965290000000  0.5011810000000  0.4520380000000 1.0
C      1  0.5176300000000  0.5506840000000  0.4480860000000 1.0
C      1  0.5016600000000  0.4524100000000  0.5161890000000 1.0
END
