TITL C-599895-9959-366 -12.8681893216136 125000 -390.141431865192 0 0 65 (C1) n - 1
REM
REM in /home/nfs/bkarasulu/CARBON/AIRSS/Generating-Clusters/TERSOFF/Only-C1/FIRE-HFTN
REM
REM
REM
REM
REM
REM ./C.cell (11c1c37f851c82e70ff6c80c92926a4b)
REM AIRSS Version 0.9.1 bugfix July 2018 build 013d7b7c2542+ Fri, 06 Jul 2018 19:26:36 +0100
REM compiler GCC version 9.2.1 20190827 (Red Hat 9.2.1-1)
REM options -cpp -mtune=generic -march=x86-64 -g -O0 -fpre-include=/usr/include/finclude/math-vector-fortran.h
REM seed 1287485336 1955953422 124454528 1441039029 2026111765 -797124289 -862569236 -2062563828 -679408778 -424119406 -900194507 362405415 -1592800375 -1025795230 -535464519 1713169292 -1927046122 -173339736 1415594543 -1065014038 -715609543 -109251002 1766134565 -1770685305 1747573059 -989678551 963953989 -1125774464 -946925742 -2101500213 124197842 567236342 -1519588753
REM
CELL 1.54180   50.00000   50.00000   50.00000   90.00000   90.00000   90.00000
LATT -1
SFAC C  
C      1  0.4837340000000  0.4172480000000  0.5384830000000 1.0
C      1  0.4788470000000  0.4401310000000  0.5543800000000 1.0
C      1  0.4752040000000  0.5566630000000  0.5084060000000 1.0
C      1  0.4723130000000  0.5551170000000  0.4411560000000 1.0
C      1  0.5779460000000  0.5071540000000  0.4989440000000 1.0
C      1  0.5738680000000  0.5513170000000  0.5396860000000 1.0
C      1  0.4783450000000  0.4613570000000  0.4288120000000 1.0
C      1  0.4284740000000  0.5100300000000  0.4376390000000 1.0
C      1  0.5032930000000  0.4559450000000  0.5613020000000 1.0
C      1  0.5469500000000  0.4686560000000  0.5457130000000 1.0
C      1  0.4352190000000  0.4522800000000  0.4886270000000 1.0
C      1  0.4936030000000  0.4850320000000  0.5670190000000 1.0
C      1  0.4942930000000  0.5058040000000  0.5228060000000 1.0
C      1  0.5515080000000  0.5293380000000  0.5799170000000 1.0
C      1  0.4708420000000  0.5801690000000  0.5509920000000 1.0
C      1  0.4301090000000  0.5110240000000  0.4645910000000 1.0
C      1  0.5484960000000  0.4707160000000  0.4575260000000 1.0
C      1  0.5689630000000  0.5417580000000  0.5640780000000 1.0
C      1  0.5027060000000  0.5128080000000  0.5700090000000 1.0
C      1  0.4638970000000  0.6025350000000  0.5624210000000 1.0
C      1  0.5273170000000  0.5184550000000  0.5823330000000 1.0
C      1  0.4528130000000  0.5124220000000  0.4834500000000 1.0
C      1  0.4921290000000  0.5137650000000  0.4378960000000 1.0
C      1  0.4513660000000  0.5084250000000  0.4210230000000 1.0
C      1  0.5299360000000  0.4233030000000  0.4723220000000 1.0
C      1  0.5635190000000  0.5540900000000  0.5138490000000 1.0
C      1  0.4788680000000  0.5563850000000  0.5380190000000 1.0
C      1  0.4139630000000  0.4437990000000  0.4739950000000 1.0
C      1  0.5029520000000  0.4740530000000  0.4906520000000 1.0
C      1  0.5732770000000  0.4805090000000  0.4968790000000 1.0
C      1  0.4628500000000  0.4814620000000  0.4184010000000 1.0
C      1  0.4711960000000  0.5296700000000  0.4265910000000 1.0
C      1  0.4334820000000  0.4701290000000  0.5104320000000 1.0
C      1  0.4491590000000  0.4943450000000  0.5080890000000 1.0
C      1  0.4617000000000  0.4447580000000  0.4840360000000 1.0
C      1  0.5110960000000  0.4826110000000  0.5169540000000 1.0
C      1  0.5143740000000  0.4288660000000  0.4505020000000 1.0
C      1  0.5657710000000  0.5325140000000  0.4948910000000 1.0
C      1  0.5364900000000  0.4858170000000  0.4386500000000 1.0
C      1  0.4930170000000  0.5699580000000  0.4894420000000 1.0
C      1  0.5167060000000  0.5021850000000  0.4300820000000 1.0
C      1  0.4564250000000  0.5395890000000  0.4959900000000 1.0
C      1  0.4893630000000  0.5354990000000  0.5561340000000 1.0
C      1  0.5211270000000  0.5202370000000  0.4867210000000 1.0
C      1  0.5284710000000  0.4473560000000  0.5476060000000 1.0
C      1  0.4669470000000  0.4846390000000  0.5541780000000 1.0
C      1  0.5050830000000  0.4989270000000  0.4769920000000 1.0
C      1  0.5372870000000  0.4862970000000  0.5277030000000 1.0
C      1  0.5188010000000  0.5654760000000  0.4487620000000 1.0
C      1  0.5179750000000  0.5791150000000  0.5004060000000 1.0
C      1  0.5404640000000  0.5506740000000  0.4551490000000 1.0
C      1  0.5098990000000  0.5269810000000  0.5120150000000 1.0
C      1  0.5429420000000  0.5733380000000  0.5088840000000 1.0
C      1  0.4821580000000  0.5070780000000  0.4642010000000 1.0
C      1  0.5276710000000  0.4317830000000  0.5219720000000 1.0
C      1  0.5553590000000  0.4622120000000  0.4844200000000 1.0
C      1  0.5441170000000  0.5324830000000  0.4762960000000 1.0
C      1  0.4334090000000  0.4572670000000  0.5359750000000 1.0
C      1  0.4935070000000  0.4481930000000  0.4494420000000 1.0
C      1  0.4676900000000  0.4991770000000  0.5295540000000 1.0
C      1  0.5055850000000  0.4134580000000  0.5227130000000 1.0
C      1  0.4561470000000  0.4579570000000  0.5524790000000 1.0
C      1  0.4922660000000  0.5659840000000  0.4597810000000 1.0
C      1  0.4864670000000  0.4551620000000  0.4766790000000 1.0
C      1  0.5402510000000  0.4385130000000  0.4949530000000 1.0
END
