TITL C-599896-8500-1435 16.0138949494472 125000 -191.809526651726 0 0 33 (C1) n - 1
REM
REM in /home/nfs/bkarasulu/CARBON/AIRSS/Generating-Clusters/TERSOFF/Only-C1/FIRE-HFTN
REM
REM
REM
REM
REM
REM ./C.cell (11c1c37f851c82e70ff6c80c92926a4b)
REM AIRSS Version 0.9.1 bugfix July 2018 build 013d7b7c2542+ Fri, 06 Jul 2018 19:26:36 +0100
REM compiler GCC version 9.2.1 20190827 (Red Hat 9.2.1-1)
REM options -cpp -mtune=generic -march=x86-64 -g -O0 -fpre-include=/usr/include/finclude/math-vector-fortran.h
REM seed -1405285693 20572051 -1434975260 1412695678 -1035256369 1247886854 1747961334 541861040 -360544455 1508887828 1518050368 -2111249060 -1298656889 -870006568 1732106135 166745698 -1142610368 -1381692902 92532176 284085634 -810039778 -84768364 -882174002 -724489104 -600269778 18963785 -264780023 -48913308 -313460980 1862044446 2023057785 1757276533 833153158
REM
CELL 1.54180   50.00000   50.00000   50.00000   90.00000   90.00000   90.00000
LATT -1
SFAC C  
C      1  0.4850410000000  0.5373360000000  0.4518310000000 1.0
C      1  0.5828560000000  0.4931940000000  0.5346690000000 1.0
C      1  0.4876270000000  0.4425210000000  0.5614300000000 1.0
C      1  0.4979700000000  0.4383550000000  0.5137120000000 1.0
C      1  0.5083180000000  0.5469560000000  0.5416070000000 1.0
C      1  0.5710390000000  0.4912840000000  0.5081620000000 1.0
C      1  0.5340620000000  0.4404330000000  0.5452110000000 1.0
C      1  0.4790260000000  0.5013070000000  0.4843820000000 1.0
C      1  0.4583050000000  0.5030620000000  0.5032900000000 1.0
C      1  0.5579460000000  0.4651540000000  0.5092990000000 1.0
C      1  0.4777440000000  0.5495750000000  0.4295190000000 1.0
C      1  0.4887890000000  0.4754240000000  0.4794600000000 1.0
C      1  0.4787230000000  0.5875680000000  0.4002110000000 1.0
C      1  0.5100120000000  0.5470620000000  0.5150740000000 1.0
C      1  0.4699240000000  0.5622980000000  0.4058810000000 1.0
C      1  0.5743050000000  0.4723300000000  0.5509480000000 1.0
C      1  0.4499820000000  0.4924100000000  0.5262960000000 1.0
C      1  0.4369770000000  0.5360150000000  0.3713970000000 1.0
C      1  0.4769550000000  0.4687250000000  0.5644660000000 1.0
C      1  0.4212050000000  0.5233220000000  0.3549720000000 1.0
C      1  0.4927940000000  0.5243940000000  0.4752680000000 1.0
C      1  0.4799980000000  0.4220990000000  0.5779040000000 1.0
C      1  0.5409380000000  0.5262860000000  0.4846810000000 1.0
C      1  0.4903460000000  0.4881130000000  0.5796820000000 1.0
C      1  0.5146840000000  0.5340750000000  0.4906780000000 1.0
C      1  0.4530070000000  0.5488960000000  0.3881040000000 1.0
C      1  0.5060410000000  0.5345640000000  0.5650320000000 1.0
C      1  0.5620420000000  0.5115620000000  0.4915720000000 1.0
C      1  0.4939060000000  0.4520420000000  0.4912230000000 1.0
C      1  0.5064540000000  0.4383720000000  0.5404890000000 1.0
C      1  0.5562370000000  0.4546800000000  0.5366400000000 1.0
C      1  0.5003880000000  0.5127850000000  0.5792490000000 1.0
C      1  0.4563600000000  0.4778040000000  0.5476600000000 1.0
END
