TITL C-599891-72-1254 -1.64605132823019e-05 125000 -346.04205755289 0 0 57 (C1) n - 1
REM
REM in /home/nfs/bkarasulu/CARBON/AIRSS/Generating-Clusters/TERSOFF/Only-C1/FIRE-HFTN
REM
REM
REM
REM
REM
REM ./C.cell (11c1c37f851c82e70ff6c80c92926a4b)
REM AIRSS Version 0.9.1 bugfix July 2018 build 013d7b7c2542+ Fri, 06 Jul 2018 19:26:36 +0100
REM compiler GCC version 9.2.1 20190827 (Red Hat 9.2.1-1)
REM options -cpp -mtune=generic -march=x86-64 -g -O0 -fpre-include=/usr/include/finclude/math-vector-fortran.h
REM seed -184816159 -1765307418 -1450931584 -145578758 1539674291 -648947786 -1348934308 1543649376 -629869374 -795568664 -1693671272 1614425321 -109858814 -67804024 -626205783 -916007259 1059252502 1496973522 -1463340534 576029563 -973062858 868522644 -786534325 -1413606573 -1917332319 739791695 -859214219 171280867 -1951681548 1038009339 -178279128 -2048763113 -1085414581
REM
CELL 1.54180   50.00000   50.00000   50.00000   90.00000   90.00000   90.00000
LATT -1
SFAC C  
C      1  0.4855170000000  0.4695770000000  0.4310490000000 1.0
C      1  0.4260780000000  0.4909160000000  0.4922190000000 1.0
C      1  0.4723870000000  0.5503200000000  0.4298780000000 1.0
C      1  0.5191520000000  0.5741500000000  0.5258720000000 1.0
C      1  0.4208360000000  0.5121870000000  0.5099210000000 1.0
C      1  0.4344450000000  0.5323660000000  0.5210080000000 1.0
C      1  0.4150920000000  0.4437020000000  0.4930700000000 1.0
C      1  0.4963860000000  0.4037610000000  0.4672370000000 1.0
C      1  0.4937430000000  0.4455540000000  0.5412040000000 1.0
C      1  0.5167760000000  0.4718670000000  0.4861790000000 1.0
C      1  0.4790800000000  0.5280530000000  0.5008830000000 1.0
C      1  0.5050250000000  0.5868270000000  0.4630890000000 1.0
C      1  0.4458760000000  0.4610040000000  0.5257900000000 1.0
C      1  0.4667860000000  0.5387370000000  0.4548490000000 1.0
C      1  0.5173810000000  0.4918020000000  0.5065400000000 1.0
C      1  0.5415090000000  0.5156920000000  0.5668210000000 1.0
C      1  0.5059860000000  0.4458740000000  0.4897750000000 1.0
C      1  0.5819410000000  0.4576080000000  0.4662120000000 1.0
C      1  0.4977430000000  0.5114380000000  0.5147920000000 1.0
C      1  0.5968440000000  0.4637510000000  0.4876440000000 1.0
C      1  0.5569730000000  0.4627110000000  0.4582060000000 1.0
C      1  0.4815380000000  0.5222570000000  0.5610410000000 1.0
C      1  0.4370340000000  0.4786310000000  0.4448730000000 1.0
C      1  0.5456650000000  0.5367270000000  0.4773870000000 1.0
C      1  0.5122960000000  0.4512910000000  0.5617970000000 1.0
C      1  0.5031350000000  0.4366810000000  0.5160970000000 1.0
C      1  0.5250240000000  0.4987410000000  0.4474580000000 1.0
C      1  0.5407550000000  0.4448810000000  0.5613050000000 1.0
C      1  0.4334590000000  0.4974450000000  0.4653880000000 1.0
C      1  0.4897170000000  0.4865980000000  0.5911270000000 1.0
C      1  0.4941050000000  0.4454080000000  0.4428390000000 1.0
C      1  0.5334080000000  0.4767040000000  0.4634830000000 1.0
C      1  0.4441170000000  0.5228480000000  0.4593610000000 1.0
C      1  0.5691720000000  0.4883670000000  0.5206370000000 1.0
C      1  0.5558770000000  0.4665160000000  0.5700480000000 1.0
C      1  0.5120410000000  0.4757380000000  0.5783460000000 1.0
C      1  0.5429150000000  0.4926510000000  0.5189870000000 1.0
C      1  0.5352640000000  0.5235180000000  0.4563190000000 1.0
C      1  0.4870730000000  0.5711490000000  0.4212620000000 1.0
C      1  0.4577280000000  0.4726490000000  0.4289500000000 1.0
C      1  0.5281110000000  0.5312690000000  0.5471520000000 1.0
C      1  0.5017020000000  0.5213470000000  0.5416130000000 1.0
C      1  0.4986860000000  0.4309720000000  0.4665960000000 1.0
C      1  0.4955120000000  0.5699520000000  0.4833220000000 1.0
C      1  0.4837040000000  0.5439290000000  0.4772930000000 1.0
C      1  0.4948790000000  0.5766330000000  0.5114650000000 1.0
C      1  0.5386870000000  0.4891390000000  0.5764210000000 1.0
C      1  0.4668270000000  0.4539490000000  0.5408270000000 1.0
C      1  0.5361810000000  0.5512820000000  0.5278490000000 1.0
C      1  0.5034650000000  0.4917120000000  0.4305270000000 1.0
C      1  0.5484400000000  0.5440220000000  0.5031690000000 1.0
C      1  0.5019040000000  0.5878510000000  0.4363800000000 1.0
C      1  0.4755510000000  0.5078980000000  0.5828760000000 1.0
C      1  0.4600820000000  0.5427710000000  0.5178690000000 1.0
C      1  0.4703810000000  0.5685990000000  0.5240640000000 1.0
C      1  0.5910040000000  0.4771270000000  0.5101390000000 1.0
C      1  0.4290030000000  0.4648540000000  0.5034970000000 1.0
END
