TITL C-599891-72-1109 31104.2223254387 125000 -1184.52805826862 0 0 194 (C1) n - 1
REM
REM in /home/nfs/bkarasulu/CARBON/AIRSS/Generating-Clusters/TERSOFF/Only-C1/FIRE-HFTN
REM
REM
REM
REM
REM
REM ./C.cell (11c1c37f851c82e70ff6c80c92926a4b)
REM AIRSS Version 0.9.1 bugfix July 2018 build 013d7b7c2542+ Fri, 06 Jul 2018 19:26:36 +0100
REM compiler GCC version 9.2.1 20190827 (Red Hat 9.2.1-1)
REM options -cpp -mtune=generic -march=x86-64 -g -O0 -fpre-include=/usr/include/finclude/math-vector-fortran.h
REM seed -1573177366 784404663 40844263 -788411900 -744992654 2010721470 2115050859 1693783716 35760653 668812612 -236730072 562868882 1251251503 -612976418 2125834835 1480858231 -397924676 -851479368 1901563891 -359994418 1004138839 -995690688 100010643 1116115462 74795237 -1073158002 1374990728 -1488085869 -2057914614 -1375904983 998550437 -566343516 -1266734793
REM
CELL 1.54180   50.00000   50.00000   50.00000   90.00000   90.00000   90.00000
LATT -1
SFAC C  
C      1  0.5456000000000  0.4159110000000  0.4935750000000 1.0
C      1  0.5801520000000  0.5451070000000  0.4916410000000 1.0
C      1  0.4566520000000  0.5062140000000  0.5689000000000 1.0
C      1  0.3636960000000  0.4657760000000  0.5925720000000 1.0
C      1  0.5726050000000  0.5210320000000  0.5077670000000 1.0
C      1  0.3917810000000  0.5457730000000  0.4651510000000 1.0
C      1  0.4174660000000  0.5630860000000  0.5717700000000 1.0
C      1  0.4876850000000  0.4051580000000  0.4829410000000 1.0
C      1  0.4873520000000  0.3856470000000  0.5041860000000 1.0
C      1  0.5948760000000  0.4299810000000  0.4828460000000 1.0
C      1  0.4434040000000  0.5273030000000  0.4351060000000 1.0
C      1  0.5345160000000  0.4750580000000  0.3749120000000 1.0
C      1  0.5397570000000  0.4785720000000  0.4036940000000 1.0
C      1  0.5087550000000  0.4493250000000  0.4614620000000 1.0
C      1  0.5150890000000  0.5550130000000  0.5695890000000 1.0
C      1  0.4929680000000  0.4727540000000  0.6316310000000 1.0
C      1  0.4514690000000  0.5848220000000  0.5416530000000 1.0
C      1  0.5279750000000  0.5203170000000  0.4971620000000 1.0
C      1  0.5020780000000  0.4003480000000  0.5756750000000 1.0
C      1  0.4977560000000  0.4019470000000  0.6032710000000 1.0
C      1  0.5676750000000  0.4000110000000  0.5901590000000 1.0
C      1  0.5436550000000  0.6078030000000  0.5105570000000 1.0
C      1  0.5617690000000  0.5693920000000  0.5574280000000 1.0
C      1  0.6263260000000  0.5802000000000  0.5046550000000 1.0
C      1  0.5031880000000  0.4724920000000  0.5648690000000 1.0
C      1  0.3781270000000  0.4728790000000  0.5470510000000 1.0
C      1  0.4172550000000  0.5495800000000  0.4056620000000 1.0
C      1  0.4225200000000  0.3942320000000  0.4721930000000 1.0
C      1  0.4486650000000  0.5949610000000  0.4791010000000 1.0
C      1  0.4192370000000  0.5550140000000  0.4674790000000 1.0
C      1  0.3866820000000  0.5271780000000  0.4429130000000 1.0
C      1  0.4447710000000  0.5467030000000  0.4138130000000 1.0
C      1  0.4778550000000  0.4682730000000  0.3657480000000 1.0
C      1  0.4273330000000  0.4789620000000  0.3922760000000 1.0
C      1  0.4712930000000  0.5560080000000  0.4057100000000 1.0
C      1  0.5301600000000  0.5176820000000  0.4351860000000 1.0
C      1  0.4149440000000  0.5358550000000  0.5182950000000 1.0
C      1  0.5445710000000  0.4696990000000  0.5913710000000 1.0
C      1  0.4865070000000  0.4975870000000  0.6385650000000 1.0
C      1  0.4608530000000  0.5608110000000  0.5249250000000 1.0
C      1  0.4603590000000  0.5297980000000  0.4787280000000 1.0
C      1  0.5570990000000  0.4929100000000  0.6033300000000 1.0
C      1  0.4928990000000  0.4747970000000  0.4585480000000 1.0
C      1  0.5130840000000  0.4703120000000  0.4132880000000 1.0
C      1  0.4194620000000  0.5241950000000  0.5447210000000 1.0
C      1  0.4753130000000  0.4663690000000  0.5588860000000 1.0
C      1  0.4126690000000  0.5350990000000  0.5700430000000 1.0
C      1  0.3953070000000  0.5379640000000  0.4174640000000 1.0
C      1  0.5506020000000  0.4348490000000  0.5143270000000 1.0
C      1  0.5965180000000  0.4832880000000  0.5570870000000 1.0
C      1  0.4408890000000  0.5058220000000  0.5435010000000 1.0
C      1  0.4391130000000  0.4639440000000  0.4907740000000 1.0
C      1  0.4930520000000  0.3797970000000  0.6184630000000 1.0
C      1  0.4348670000000  0.4793760000000  0.4480160000000 1.0
C      1  0.5697640000000  0.4988100000000  0.4569240000000 1.0
C      1  0.5369760000000  0.5102230000000  0.5438540000000 1.0
C      1  0.4962660000000  0.5988100000000  0.5925690000000 1.0
C      1  0.4126830000000  0.4147250000000  0.5110660000000 1.0
C      1  0.4570310000000  0.4373580000000  0.4458520000000 1.0
C      1  0.6301320000000  0.5289200000000  0.5056810000000 1.0
C      1  0.4898610000000  0.4283140000000  0.3863050000000 1.0
C      1  0.4071330000000  0.4863240000000  0.5856480000000 1.0
C      1  0.3899700000000  0.5541850000000  0.5144350000000 1.0
C      1  0.5658220000000  0.5526260000000  0.3720490000000 1.0
C      1  0.3825490000000  0.5106220000000  0.4929440000000 1.0
C      1  0.4764170000000  0.5947610000000  0.4396410000000 1.0
C      1  0.5397950000000  0.5670510000000  0.4815560000000 1.0
C      1  0.6048150000000  0.4981950000000  0.5337040000000 1.0
C      1  0.5853680000000  0.4024170000000  0.4782820000000 1.0
C      1  0.5752650000000  0.5473610000000  0.4617680000000 1.0
C      1  0.4869240000000  0.5766250000000  0.4197740000000 1.0
C      1  0.4735030000000  0.6041450000000  0.5425410000000 1.0
C      1  0.3781870000000  0.5403290000000  0.4906080000000 1.0
C      1  0.5064430000000  0.5308150000000  0.4429060000000 1.0
C      1  0.4929870000000  0.5415090000000  0.5814470000000 1.0
C      1  0.5163000000000  0.4656600000000  0.5895610000000 1.0
C      1  0.5900990000000  0.4583640000000  0.4825220000000 1.0
C      1  0.5069130000000  0.5656040000000  0.5170460000000 1.0
C      1  0.6183710000000  0.5234680000000  0.5321520000000 1.0
C      1  0.5419570000000  0.5419320000000  0.6120460000000 1.0
C      1  0.5866460000000  0.5583170000000  0.5549740000000 1.0
C      1  0.5928080000000  0.4955280000000  0.4134590000000 1.0
C      1  0.5020860000000  0.5447690000000  0.4664510000000 1.0
C      1  0.5383830000000  0.4456150000000  0.3738590000000 1.0
C      1  0.5000250000000  0.4080290000000  0.4273400000000 1.0
C      1  0.5923360000000  0.4798290000000  0.4640330000000 1.0
C      1  0.6058000000000  0.5119800000000  0.4346050000000 1.0
C      1  0.5328760000000  0.4087160000000  0.4685130000000 1.0
C      1  0.5334630000000  0.5746620000000  0.5591370000000 1.0
C      1  0.6003740000000  0.5901360000000  0.5080480000000 1.0
C      1  0.4768230000000  0.6060170000000  0.4881630000000 1.0
C      1  0.4927180000000  0.5106800000000  0.3867720000000 1.0
C      1  0.5824290000000  0.5241330000000  0.4475050000000 1.0
C      1  0.5461450000000  0.5214200000000  0.5678330000000 1.0
C      1  0.4848610000000  0.5226960000000  0.6299320000000 1.0
C      1  0.5675840000000  0.4543740000000  0.5262470000000 1.0
C      1  0.4315010000000  0.4706970000000  0.5893780000000 1.0
C      1  0.3990560000000  0.5781880000000  0.5296970000000 1.0
C      1  0.5677920000000  0.4842860000000  0.4090780000000 1.0
C      1  0.5418550000000  0.5000550000000  0.4550750000000 1.0
C      1  0.4309790000000  0.4482370000000  0.6050960000000 1.0
C      1  0.5757790000000  0.4621460000000  0.5533050000000 1.0
C      1  0.5141030000000  0.4969190000000  0.3706940000000 1.0
C      1  0.4099450000000  0.5106800000000  0.5022100000000 1.0
C      1  0.5617100000000  0.4522040000000  0.5761600000000 1.0
C      1  0.4883430000000  0.6104480000000  0.5155080000000 1.0
C      1  0.5651640000000  0.4256920000000  0.5841650000000 1.0
C      1  0.5194320000000  0.5986390000000  0.5507670000000 1.0
C      1  0.5865940000000  0.4965420000000  0.5124410000000 1.0
C      1  0.3869520000000  0.4809750000000  0.4247050000000 1.0
C      1  0.5790430000000  0.5715450000000  0.5040350000000 1.0
C      1  0.5801010000000  0.4700000000000  0.5063730000000 1.0
C      1  0.4359900000000  0.5557830000000  0.5096630000000 1.0
C      1  0.5475100000000  0.5190390000000  0.5960070000000 1.0
C      1  0.5181680000000  0.6091450000000  0.5234380000000 1.0
C      1  0.4405740000000  0.5000780000000  0.4307980000000 1.0
C      1  0.4857820000000  0.5384120000000  0.3878630000000 1.0
C      1  0.5091230000000  0.4154000000000  0.4015600000000 1.0
C      1  0.5303510000000  0.5661600000000  0.6162950000000 1.0
C      1  0.6014380000000  0.4972660000000  0.5820790000000 1.0
C      1  0.5160930000000  0.5759780000000  0.4192830000000 1.0
C      1  0.5141510000000  0.3735210000000  0.5087400000000 1.0
C      1  0.5916460000000  0.6166550000000  0.5133920000000 1.0
C      1  0.4744000000000  0.5288770000000  0.5650270000000 1.0
C      1  0.5524780000000  0.5823890000000  0.5010470000000 1.0
C      1  0.4221470000000  0.5807130000000  0.5491050000000 1.0
C      1  0.4034600000000  0.4141380000000  0.4664360000000 1.0
C      1  0.5129130000000  0.5861110000000  0.6100680000000 1.0
C      1  0.5024760000000  0.4551520000000  0.6121380000000 1.0
C      1  0.5212710000000  0.6043530000000  0.4561210000000 1.0
C      1  0.5484870000000  0.4312910000000  0.4238260000000 1.0
C      1  0.5685570000000  0.3745270000000  0.5955770000000 1.0
C      1  0.5179440000000  0.4894730000000  0.5473350000000 1.0
C      1  0.5347760000000  0.5838990000000  0.4398470000000 1.0
C      1  0.4260870000000  0.4898530000000  0.4932560000000 1.0
C      1  0.3790720000000  0.4869930000000  0.4762670000000 1.0
C      1  0.4986360000000  0.4276170000000  0.6143670000000 1.0
C      1  0.6282740000000  0.5111580000000  0.4820270000000 1.0
C      1  0.6164580000000  0.4972980000000  0.4589230000000 1.0
C      1  0.5657590000000  0.6253380000000  0.5143450000000 1.0
C      1  0.4024750000000  0.4756070000000  0.4031250000000 1.0
C      1  0.4312310000000  0.5731500000000  0.4870000000000 1.0
C      1  0.5533790000000  0.5671040000000  0.4556290000000 1.0
C      1  0.5699290000000  0.4141830000000  0.4312410000000 1.0
C      1  0.3861600000000  0.4581090000000  0.4955310000000 1.0
C      1  0.5431790000000  0.5278300000000  0.4125320000000 1.0
C      1  0.4672630000000  0.5079910000000  0.4955980000000 1.0
C      1  0.5324940000000  0.4449000000000  0.4447030000000 1.0
C      1  0.6086030000000  0.5394960000000  0.5549720000000 1.0
C      1  0.5630880000000  0.3924740000000  0.4961860000000 1.0
C      1  0.4674190000000  0.4629900000000  0.5308830000000 1.0
C      1  0.5854480000000  0.4913540000000  0.6045570000000 1.0
C      1  0.5194600000000  0.3996010000000  0.4467590000000 1.0
C      1  0.6113510000000  0.5239040000000  0.5790000000000 1.0
C      1  0.4883020000000  0.5386360000000  0.6089250000000 1.0
C      1  0.3821420000000  0.4974150000000  0.4477360000000 1.0
C      1  0.3968360000000  0.4305520000000  0.4897730000000 1.0
C      1  0.4874020000000  0.4666720000000  0.5104610000000 1.0
C      1  0.3919730000000  0.4627300000000  0.5247590000000 1.0
C      1  0.4722290000000  0.3971690000000  0.4609390000000 1.0
C      1  0.4908480000000  0.4558580000000  0.3859760000000 1.0
C      1  0.4938490000000  0.6030600000000  0.5645560000000 1.0
C      1  0.4828690000000  0.4846830000000  0.4870560000000 1.0
C      1  0.4184010000000  0.4542940000000  0.5322110000000 1.0
C      1  0.4427690000000  0.4558140000000  0.5186130000000 1.0
C      1  0.4499260000000  0.5975600000000  0.4497840000000 1.0
C      1  0.4734800000000  0.4146810000000  0.4386330000000 1.0
C      1  0.5075530000000  0.4277130000000  0.5312110000000 1.0
C      1  0.5019310000000  0.4428870000000  0.5083520000000 1.0
C      1  0.5817510000000  0.3986380000000  0.4500450000000 1.0
C      1  0.4927950000000  0.4826360000000  0.4290240000000 1.0
C      1  0.6375810000000  0.5559770000000  0.5017930000000 1.0
C      1  0.5458510000000  0.5194470000000  0.5185050000000 1.0
C      1  0.5423190000000  0.3727760000000  0.5052500000000 1.0
C      1  0.4715050000000  0.5362120000000  0.5376310000000 1.0
C      1  0.4824740000000  0.5641820000000  0.5051110000000 1.0
C      1  0.4072130000000  0.5148040000000  0.5889190000000 1.0
C      1  0.5237870000000  0.5447330000000  0.4840840000000 1.0
C      1  0.4774980000000  0.4954150000000  0.4069020000000 1.0
C      1  0.4394730000000  0.5356800000000  0.4609950000000 1.0
C      1  0.5544050000000  0.5406300000000  0.3921750000000 1.0
C      1  0.4578730000000  0.3843210000000  0.5100270000000 1.0
C      1  0.4993570000000  0.4315230000000  0.4828840000000 1.0
C      1  0.4934080000000  0.6046190000000  0.4622810000000 1.0
C      1  0.4492970000000  0.4911520000000  0.4053620000000 1.0
C      1  0.5066490000000  0.4111840000000  0.5519270000000 1.0
C      1  0.3827740000000  0.4748990000000  0.5751020000000 1.0
C      1  0.4611660000000  0.5128220000000  0.5235400000000 1.0
C      1  0.4559910000000  0.4789050000000  0.5768480000000 1.0
C      1  0.4322730000000  0.3949240000000  0.5001100000000 1.0
C      1  0.4791200000000  0.5505130000000  0.4803870000000 1.0
C      1  0.5353390000000  0.4275930000000  0.3979380000000 1.0
C      1  0.5287050000000  0.4982050000000  0.4798270000000 1.0
C      1  0.4439000000000  0.4568850000000  0.4627270000000 1.0
END
