TITL C-599894-471-1148 2.89160294950739 125000 -572.122945344066 0 0 94 (C1) n - 1
REM
REM in /home/nfs/bkarasulu/CARBON/AIRSS/Generating-Clusters/TERSOFF/Only-C1/FIRE-HFTN
REM
REM
REM
REM
REM
REM ./C.cell (11c1c37f851c82e70ff6c80c92926a4b)
REM AIRSS Version 0.9.1 bugfix July 2018 build 013d7b7c2542+ Fri, 06 Jul 2018 19:26:36 +0100
REM compiler GCC version 9.2.1 20190827 (Red Hat 9.2.1-1)
REM options -cpp -mtune=generic -march=x86-64 -g -O0 -fpre-include=/usr/include/finclude/math-vector-fortran.h
REM seed -1827963608 -2070621169 -1016044879 864002268 -806832482 364043342 185106734 1861271114 1644869681 726544675 441161296 -1663327540 1502831904 -569553347 1668685676 2014776032 -1574649996 433694617 -942813912 1634423686 410742227 -921968816 985613123 2084328267 -146362634 -575153886 1985594735 -1274907859 -642240926 1465409161 1305601352 -1265094240 1023199688
REM
CELL 1.54180   50.00000   50.00000   50.00000   90.00000   90.00000   90.00000
LATT -1
SFAC C  
C      1  0.5017520000000  0.5598480000000  0.4148530000000 1.0
C      1  0.5173200000000  0.4432580000000  0.4614640000000 1.0
C      1  0.5202880000000  0.4899450000000  0.4345340000000 1.0
C      1  0.4985470000000  0.5491130000000  0.5290670000000 1.0
C      1  0.4480620000000  0.4295820000000  0.4950710000000 1.0
C      1  0.5312400000000  0.4750350000000  0.5566570000000 1.0
C      1  0.5864240000000  0.4713010000000  0.4782020000000 1.0
C      1  0.4111810000000  0.5402610000000  0.4508800000000 1.0
C      1  0.4976670000000  0.4527100000000  0.6282350000000 1.0
C      1  0.5942330000000  0.5063510000000  0.4312230000000 1.0
C      1  0.5507720000000  0.4858480000000  0.3798820000000 1.0
C      1  0.4597540000000  0.4937990000000  0.6012090000000 1.0
C      1  0.4784180000000  0.3367880000000  0.6568230000000 1.0
C      1  0.5712160000000  0.4896740000000  0.4252750000000 1.0
C      1  0.4193380000000  0.4599060000000  0.5218550000000 1.0
C      1  0.5435630000000  0.4417720000000  0.4717410000000 1.0
C      1  0.4451430000000  0.4444210000000  0.5218570000000 1.0
C      1  0.5550760000000  0.5469520000000  0.4258230000000 1.0
C      1  0.5042580000000  0.5312750000000  0.4117310000000 1.0
C      1  0.4584280000000  0.4069930000000  0.5921030000000 1.0
C      1  0.4450850000000  0.4643430000000  0.4622060000000 1.0
C      1  0.3780950000000  0.4753740000000  0.4446320000000 1.0
C      1  0.5349140000000  0.5349950000000  0.4688390000000 1.0
C      1  0.5282150000000  0.5200090000000  0.5981510000000 1.0
C      1  0.5973380000000  0.5266900000000  0.4114350000000 1.0
C      1  0.4511570000000  0.5756940000000  0.4921930000000 1.0
C      1  0.4798720000000  0.4973290000000  0.4729810000000 1.0
C      1  0.4824030000000  0.5725130000000  0.3998530000000 1.0
C      1  0.5774130000000  0.4711490000000  0.5705500000000 1.0
C      1  0.4982250000000  0.4855830000000  0.4906850000000 1.0
C      1  0.5213610000000  0.5618840000000  0.5395000000000 1.0
C      1  0.5861890000000  0.5674070000000  0.4635040000000 1.0
C      1  0.4388040000000  0.5509250000000  0.4947410000000 1.0
C      1  0.5133240000000  0.4636760000000  0.4420920000000 1.0
C      1  0.4884920000000  0.5345320000000  0.5746090000000 1.0
C      1  0.4528400000000  0.4902260000000  0.4692330000000 1.0
C      1  0.4139490000000  0.4858760000000  0.5183080000000 1.0
C      1  0.5766030000000  0.5438830000000  0.4078200000000 1.0
C      1  0.4058650000000  0.4378360000000  0.4665160000000 1.0
C      1  0.6052640000000  0.5210690000000  0.5265080000000 1.0
C      1  0.3863410000000  0.4522600000000  0.4551610000000 1.0
C      1  0.4267740000000  0.5077270000000  0.5070840000000 1.0
C      1  0.4963810000000  0.4281110000000  0.4730670000000 1.0
C      1  0.3804320000000  0.5011890000000  0.4382830000000 1.0
C      1  0.5138510000000  0.5205150000000  0.3873560000000 1.0
C      1  0.4980670000000  0.4791890000000  0.6248030000000 1.0
C      1  0.4858220000000  0.4997080000000  0.6100270000000 1.0
C      1  0.5721380000000  0.5548260000000  0.5476210000000 1.0
C      1  0.4488400000000  0.4397030000000  0.5530440000000 1.0
C      1  0.5305420000000  0.5030070000000  0.3758440000000 1.0
C      1  0.4688790000000  0.4634680000000  0.5187600000000 1.0
C      1  0.5179420000000  0.5763740000000  0.4324210000000 1.0
C      1  0.4757070000000  0.3816970000000  0.6296410000000 1.0
C      1  0.4887500000000  0.6071270000000  0.4687770000000 1.0
C      1  0.3921580000000  0.5251710000000  0.4394580000000 1.0
C      1  0.5991090000000  0.4962930000000  0.4801450000000 1.0
C      1  0.4934100000000  0.6334860000000  0.4744860000000 1.0
C      1  0.5076290000000  0.5357470000000  0.4761150000000 1.0
C      1  0.5046930000000  0.5938990000000  0.4498780000000 1.0
C      1  0.4483920000000  0.4175470000000  0.5697880000000 1.0
C      1  0.4680860000000  0.5934160000000  0.4818970000000 1.0
C      1  0.4335520000000  0.5081970000000  0.4789480000000 1.0
C      1  0.4515840000000  0.4871930000000  0.5752670000000 1.0
C      1  0.5462050000000  0.5726160000000  0.4345160000000 1.0
C      1  0.5927150000000  0.5393130000000  0.5411840000000 1.0
C      1  0.4628720000000  0.4642540000000  0.5627440000000 1.0
C      1  0.5015680000000  0.5124850000000  0.4332810000000 1.0
C      1  0.4794220000000  0.5390110000000  0.5478900000000 1.0
C      1  0.4770730000000  0.3590610000000  0.6433420000000 1.0
C      1  0.4887050000000  0.4280260000000  0.6239070000000 1.0
C      1  0.4986450000000  0.5442980000000  0.5013140000000 1.0
C      1  0.5002190000000  0.5201220000000  0.5959690000000 1.0
C      1  0.4385430000000  0.5325510000000  0.5176900000000 1.0
C      1  0.5531110000000  0.4834230000000  0.5721230000000 1.0
C      1  0.5480990000000  0.5267800000000  0.4451160000000 1.0
C      1  0.4298930000000  0.5360150000000  0.4711220000000 1.0
C      1  0.5979040000000  0.5430100000000  0.4641830000000 1.0
C      1  0.5673380000000  0.4527540000000  0.4768200000000 1.0
C      1  0.4327090000000  0.4415170000000  0.4736060000000 1.0
C      1  0.6077280000000  0.5053080000000  0.5052590000000 1.0
C      1  0.5677110000000  0.4785030000000  0.3995400000000 1.0
C      1  0.5146580000000  0.4837560000000  0.5117390000000 1.0
C      1  0.4833280000000  0.4696480000000  0.5429570000000 1.0
C      1  0.5992840000000  0.5148630000000  0.4584380000000 1.0
C      1  0.5485620000000  0.5052200000000  0.5891990000000 1.0
C      1  0.4742490000000  0.4213180000000  0.4868900000000 1.0
C      1  0.4742770000000  0.4055660000000  0.6152160000000 1.0
C      1  0.5657290000000  0.5822520000000  0.4531090000000 1.0
C      1  0.4913070000000  0.5191550000000  0.4590890000000 1.0
C      1  0.4531540000000  0.5292820000000  0.5416910000000 1.0
C      1  0.5469740000000  0.5632220000000  0.5463690000000 1.0
C      1  0.5101590000000  0.4765820000000  0.5386610000000 1.0
C      1  0.5471330000000  0.4994310000000  0.4371120000000 1.0
C      1  0.4435560000000  0.5089820000000  0.5592080000000 1.0
END
