TITL C-599891-72-721 -8.24275975091884e-05 125000 -1111.27427885885 0 0 179 (C1) n - 1
REM
REM in /home/nfs/bkarasulu/CARBON/AIRSS/Generating-Clusters/TERSOFF/Only-C1/FIRE-HFTN
REM
REM
REM
REM
REM
REM ./C.cell (11c1c37f851c82e70ff6c80c92926a4b)
REM AIRSS Version 0.9.1 bugfix July 2018 build 013d7b7c2542+ Fri, 06 Jul 2018 19:26:36 +0100
REM compiler GCC version 9.2.1 20190827 (Red Hat 9.2.1-1)
REM options -cpp -mtune=generic -march=x86-64 -g -O0 -fpre-include=/usr/include/finclude/math-vector-fortran.h
REM seed -331156907 -444367836 -735258046 -583687493 721388097 1184781051 -1226776227 943019069 1874287454 -1091300445 85872807 -480165199 -569328099 1461848186 -246976881 734277333 1381134551 258402107 606551490 -93868714 497777441 -74035442 876390073 -711744631 2032673470 73045582 941210764 -46230433 -666494373 -349657864 1131348227 192724926 5957027
REM
CELL 1.54180   50.00000   50.00000   50.00000   90.00000   90.00000   90.00000
LATT -1
SFAC C  
C      1  0.5606650000000  0.5206950000000  0.4080080000000 1.0
C      1  0.5862880000000  0.5666420000000  0.4599020000000 1.0
C      1  0.5189840000000  0.5187480000000  0.5034380000000 1.0
C      1  0.5732210000000  0.4217810000000  0.5849200000000 1.0
C      1  0.6078550000000  0.4512690000000  0.5040410000000 1.0
C      1  0.4661280000000  0.4132510000000  0.4907050000000 1.0
C      1  0.5288440000000  0.4481640000000  0.5516120000000 1.0
C      1  0.6140430000000  0.5691930000000  0.5068650000000 1.0
C      1  0.5758740000000  0.4123120000000  0.5580780000000 1.0
C      1  0.6030960000000  0.5746380000000  0.4831100000000 1.0
C      1  0.5456670000000  0.5939710000000  0.5323410000000 1.0
C      1  0.4370930000000  0.4418680000000  0.5440940000000 1.0
C      1  0.4281520000000  0.5332660000000  0.5665700000000 1.0
C      1  0.5500330000000  0.4809950000000  0.3642610000000 1.0
C      1  0.5185720000000  0.6131520000000  0.4856690000000 1.0
C      1  0.3896240000000  0.5263470000000  0.4611880000000 1.0
C      1  0.5427990000000  0.5691420000000  0.5800210000000 1.0
C      1  0.4583090000000  0.5388700000000  0.4286570000000 1.0
C      1  0.3967250000000  0.5816360000000  0.5242840000000 1.0
C      1  0.5413340000000  0.5236590000000  0.5219620000000 1.0
C      1  0.4500770000000  0.6057870000000  0.4645460000000 1.0
C      1  0.5686340000000  0.5782050000000  0.5721030000000 1.0
C      1  0.5500700000000  0.4049800000000  0.5429100000000 1.0
C      1  0.5987840000000  0.5136270000000  0.4786580000000 1.0
C      1  0.5322800000000  0.5063430000000  0.6080090000000 1.0
C      1  0.4853380000000  0.5483830000000  0.5542620000000 1.0
C      1  0.5119660000000  0.6051460000000  0.5628440000000 1.0
C      1  0.4323800000000  0.5441240000000  0.4381520000000 1.0
C      1  0.4802650000000  0.4201170000000  0.5842380000000 1.0
C      1  0.5211930000000  0.5264750000000  0.5918060000000 1.0
C      1  0.4676630000000  0.4816790000000  0.4367960000000 1.0
C      1  0.3830480000000  0.4689260000000  0.5451440000000 1.0
C      1  0.5922340000000  0.4939480000000  0.4352950000000 1.0
C      1  0.5221500000000  0.3779290000000  0.4798570000000 1.0
C      1  0.3948990000000  0.4530470000000  0.3953190000000 1.0
C      1  0.4716980000000  0.3628290000000  0.5336920000000 1.0
C      1  0.3697900000000  0.5272620000000  0.4796570000000 1.0
C      1  0.5164140000000  0.5818250000000  0.5786040000000 1.0
C      1  0.5082850000000  0.4171380000000  0.5202810000000 1.0
C      1  0.4748580000000  0.5933060000000  0.4266000000000 1.0
C      1  0.4043010000000  0.4989400000000  0.5123250000000 1.0
C      1  0.4169650000000  0.5237900000000  0.4528800000000 1.0
C      1  0.4831460000000  0.4881370000000  0.3700310000000 1.0
C      1  0.4319000000000  0.5024100000000  0.4665050000000 1.0
C      1  0.5496580000000  0.4585350000000  0.5693680000000 1.0
C      1  0.4500580000000  0.4370470000000  0.4924500000000 1.0
C      1  0.4673900000000  0.5698230000000  0.5450060000000 1.0
C      1  0.5571690000000  0.4104130000000  0.4167330000000 1.0
C      1  0.4401190000000  0.5996280000000  0.5759450000000 1.0
C      1  0.5696050000000  0.4947310000000  0.4162330000000 1.0
C      1  0.5592870000000  0.4452570000000  0.5922320000000 1.0
C      1  0.4879580000000  0.4715260000000  0.5757400000000 1.0
C      1  0.3634070000000  0.5104900000000  0.5286530000000 1.0
C      1  0.5211060000000  0.6083470000000  0.5361010000000 1.0
C      1  0.5364130000000  0.5417030000000  0.5701120000000 1.0
C      1  0.5368590000000  0.5453340000000  0.5398400000000 1.0
C      1  0.4181110000000  0.4715240000000  0.5814750000000 1.0
C      1  0.4460470000000  0.3165990000000  0.5232350000000 1.0
C      1  0.6006110000000  0.4243650000000  0.5123740000000 1.0
C      1  0.5398200000000  0.5676390000000  0.4865300000000 1.0
C      1  0.4881500000000  0.5142960000000  0.3714140000000 1.0
C      1  0.5416260000000  0.5681960000000  0.5216900000000 1.0
C      1  0.4948510000000  0.5396950000000  0.5975950000000 1.0
C      1  0.5559980000000  0.4159550000000  0.5154330000000 1.0
C      1  0.4861920000000  0.4460660000000  0.5834550000000 1.0
C      1  0.4584570000000  0.5052300000000  0.5939440000000 1.0
C      1  0.4701090000000  0.3756210000000  0.5586800000000 1.0
C      1  0.4808460000000  0.5180280000000  0.5522630000000 1.0
C      1  0.4850100000000  0.4039950000000  0.5103790000000 1.0
C      1  0.4987950000000  0.6107090000000  0.4646730000000 1.0
C      1  0.5202660000000  0.5011490000000  0.4772510000000 1.0
C      1  0.5720380000000  0.4798150000000  0.5078510000000 1.0
C      1  0.4788590000000  0.6013470000000  0.5071900000000 1.0
C      1  0.4138370000000  0.4668750000000  0.4373410000000 1.0
C      1  0.4651800000000  0.5337120000000  0.5985750000000 1.0
C      1  0.5107100000000  0.4711120000000  0.4812180000000 1.0
C      1  0.4425630000000  0.4496960000000  0.4010680000000 1.0
C      1  0.5899710000000  0.5595100000000  0.5711370000000 1.0
C      1  0.5411640000000  0.5970220000000  0.4819820000000 1.0
C      1  0.4701700000000  0.4469750000000  0.3973070000000 1.0
C      1  0.5522840000000  0.4808430000000  0.5307120000000 1.0
C      1  0.5434160000000  0.4844300000000  0.6186320000000 1.0
C      1  0.4492610000000  0.5403250000000  0.4921470000000 1.0
C      1  0.5266410000000  0.5863620000000  0.4277780000000 1.0
C      1  0.5513420000000  0.5309670000000  0.4531350000000 1.0
C      1  0.5787610000000  0.4122680000000  0.4981760000000 1.0
C      1  0.5986490000000  0.4177990000000  0.5407610000000 1.0
C      1  0.4879190000000  0.4624960000000  0.3798900000000 1.0
C      1  0.4315510000000  0.4507760000000  0.5685680000000 1.0
C      1  0.5012540000000  0.5983900000000  0.4382120000000 1.0
C      1  0.3990010000000  0.5973340000000  0.5455330000000 1.0
C      1  0.5233170000000  0.4205230000000  0.5462850000000 1.0
C      1  0.5151290000000  0.4531810000000  0.3838920000000 1.0
C      1  0.6005830000000  0.5452030000000  0.4434970000000 1.0
C      1  0.4874670000000  0.4991930000000  0.4381400000000 1.0
C      1  0.4886430000000  0.4325450000000  0.4155430000000 1.0
C      1  0.4117590000000  0.5169160000000  0.5830310000000 1.0
C      1  0.5301300000000  0.4538480000000  0.4981610000000 1.0
C      1  0.5802780000000  0.3870030000000  0.4558220000000 1.0
C      1  0.4272620000000  0.5724750000000  0.4387330000000 1.0
C      1  0.5450310000000  0.3757580000000  0.5414080000000 1.0
C      1  0.4226580000000  0.5460940000000  0.5026130000000 1.0
C      1  0.6014370000000  0.5431570000000  0.5509640000000 1.0
C      1  0.4493270000000  0.5911920000000  0.4400710000000 1.0
C      1  0.4898450000000  0.4423810000000  0.4426870000000 1.0
C      1  0.5669040000000  0.5970640000000  0.5508220000000 1.0
C      1  0.4466420000000  0.4544530000000  0.4700070000000 1.0
C      1  0.5658640000000  0.4784660000000  0.5564060000000 1.0
C      1  0.3587380000000  0.5246710000000  0.5043920000000 1.0
C      1  0.4873590000000  0.3754600000000  0.5137870000000 1.0
C      1  0.5490350000000  0.4738720000000  0.4133970000000 1.0
C      1  0.4614770000000  0.3965240000000  0.4685780000000 1.0
C      1  0.3965140000000  0.5787170000000  0.4766440000000 1.0
C      1  0.5024400000000  0.5492570000000  0.4079200000000 1.0
C      1  0.4151710000000  0.6058620000000  0.5648570000000 1.0
C      1  0.4167600000000  0.5233820000000  0.5194010000000 1.0
C      1  0.4844500000000  0.4773860000000  0.4977130000000 1.0
C      1  0.4267400000000  0.4742430000000  0.4615900000000 1.0
C      1  0.4308830000000  0.4956020000000  0.5922270000000 1.0
C      1  0.4169740000000  0.4565050000000  0.4111570000000 1.0
C      1  0.5002460000000  0.5423110000000  0.4545740000000 1.0
C      1  0.5306140000000  0.4231980000000  0.4990770000000 1.0
C      1  0.4852000000000  0.5466010000000  0.4303440000000 1.0
C      1  0.4513200000000  0.5119330000000  0.4855320000000 1.0
C      1  0.3917710000000  0.4780240000000  0.5706280000000 1.0
C      1  0.5141430000000  0.4559150000000  0.4522120000000 1.0
C      1  0.5980550000000  0.4719770000000  0.5226880000000 1.0
C      1  0.5144480000000  0.4301750000000  0.4023020000000 1.0
C      1  0.5470860000000  0.5035280000000  0.4628670000000 1.0
C      1  0.5706060000000  0.5221020000000  0.5202910000000 1.0
C      1  0.5801480000000  0.5070840000000  0.4984060000000 1.0
C      1  0.4966980000000  0.5361950000000  0.3840020000000 1.0
C      1  0.5890400000000  0.4727020000000  0.4550970000000 1.0
C      1  0.4668950000000  0.4566990000000  0.4501240000000 1.0
C      1  0.4704410000000  0.5764300000000  0.5180670000000 1.0
C      1  0.5381330000000  0.4701090000000  0.3863760000000 1.0
C      1  0.4733500000000  0.6082710000000  0.4795800000000 1.0
C      1  0.5316980000000  0.3598670000000  0.5240720000000 1.0
C      1  0.5619400000000  0.4782010000000  0.4643310000000 1.0
C      1  0.5363740000000  0.4026220000000  0.4766560000000 1.0
C      1  0.5371580000000  0.4544580000000  0.4329860000000 1.0
C      1  0.4510950000000  0.5749320000000  0.5680700000000 1.0
C      1  0.6155900000000  0.5568560000000  0.5305480000000 1.0
C      1  0.4729570000000  0.5526080000000  0.5021820000000 1.0
C      1  0.4054550000000  0.5685750000000  0.5012020000000 1.0
C      1  0.5058330000000  0.6119120000000  0.5124780000000 1.0
C      1  0.4738810000000  0.3957100000000  0.5757350000000 1.0
C      1  0.5468410000000  0.5384270000000  0.4252090000000 1.0
C      1  0.5277390000000  0.5590160000000  0.4169140000000 1.0
C      1  0.5524650000000  0.5973440000000  0.4323720000000 1.0
C      1  0.3811080000000  0.4876140000000  0.5239460000000 1.0
C      1  0.4032740000000  0.5806680000000  0.4508600000000 1.0
C      1  0.6059250000000  0.4589760000000  0.4750350000000 1.0
C      1  0.4966540000000  0.5612840000000  0.5783620000000 1.0
C      1  0.4350560000000  0.5215980000000  0.5407950000000 1.0
C      1  0.5760520000000  0.5893700000000  0.4429200000000 1.0
C      1  0.4996300000000  0.5417730000000  0.4994960000000 1.0
C      1  0.5125480000000  0.3656930000000  0.5039570000000 1.0
C      1  0.4563670000000  0.3806880000000  0.4485220000000 1.0
C      1  0.5545210000000  0.4600100000000  0.6156540000000 1.0
C      1  0.4528700000000  0.6163300000000  0.5933180000000 1.0
C      1  0.3862040000000  0.5068680000000  0.5743440000000 1.0
C      1  0.6011740000000  0.5176170000000  0.4502620000000 1.0
C      1  0.4583050000000  0.3389560000000  0.5286260000000 1.0
C      1  0.4609700000000  0.5102600000000  0.5328420000000 1.0
C      1  0.5297850000000  0.4638290000000  0.5271220000000 1.0
C      1  0.4391130000000  0.4422770000000  0.5176350000000 1.0
C      1  0.5372670000000  0.4285280000000  0.4191570000000 1.0
C      1  0.5125590000000  0.5557600000000  0.4772140000000 1.0
C      1  0.5019970000000  0.5137440000000  0.4567020000000 1.0
C      1  0.4460920000000  0.5502200000000  0.5818290000000 1.0
C      1  0.5663170000000  0.4013000000000  0.4743200000000 1.0
C      1  0.5892730000000  0.5185230000000  0.5429910000000 1.0
C      1  0.5602850000000  0.5527620000000  0.4699320000000 1.0
C      1  0.3669220000000  0.5183160000000  0.5562500000000 1.0
C      1  0.4784420000000  0.4976890000000  0.5739820000000 1.0
C      1  0.5567840000000  0.4643050000000  0.4881530000000 1.0
C      1  0.5928400000000  0.4889310000000  0.5484500000000 1.0
C      1  0.4654950000000  0.4974900000000  0.5063970000000 1.0
END
