TITL C-599894-471-967 45579.7435024238 125000 -479.201609908461 0 0 80 (C1) n - 1
REM
REM in /home/nfs/bkarasulu/CARBON/AIRSS/Generating-Clusters/TERSOFF/Only-C1/FIRE-HFTN
REM
REM
REM
REM
REM
REM ./C.cell (11c1c37f851c82e70ff6c80c92926a4b)
REM AIRSS Version 0.9.1 bugfix July 2018 build 013d7b7c2542+ Fri, 06 Jul 2018 19:26:36 +0100
REM compiler GCC version 9.2.1 20190827 (Red Hat 9.2.1-1)
REM options -cpp -mtune=generic -march=x86-64 -g -O0 -fpre-include=/usr/include/finclude/math-vector-fortran.h
REM seed 1433733337 -31999050 -1328854531 -1224526053 773123321 -20664765 -1136908589 -1012359307 -2097699065 855029490 -1204344374 -1030751471 -305598329 856061766 -492179329 1351002639 -1059829217 -563276279 785634294 -1794911754 -53773599 971176151 622363786 1749426187 -513423007 -1135003190 459481256 -559650321 205002934 -995288980 1535905879 1463379036 -86592716
REM
CELL 1.54180   50.00000   50.00000   50.00000   90.00000   90.00000   90.00000
LATT -1
SFAC C  
C      1  0.4844130000000  0.5917250000000  0.4523650000000 1.0
C      1  0.4760180000000  0.4474620000000  0.5745960000000 1.0
C      1  0.4701170000000  0.5675790000000  0.4436190000000 1.0
C      1  0.4488450000000  0.4885010000000  0.4535930000000 1.0
C      1  0.4655350000000  0.5376710000000  0.4886490000000 1.0
C      1  0.5602090000000  0.4427080000000  0.4810550000000 1.0
C      1  0.4888100000000  0.5919690000000  0.4810170000000 1.0
C      1  0.5149340000000  0.5815590000000  0.4886810000000 1.0
C      1  0.4860500000000  0.5216790000000  0.5557580000000 1.0
C      1  0.4760100000000  0.4256410000000  0.5543930000000 1.0
C      1  0.5443540000000  0.5555730000000  0.5355480000000 1.0
C      1  0.4764590000000  0.4968060000000  0.5705580000000 1.0
C      1  0.5570930000000  0.5164540000000  0.4600820000000 1.0
C      1  0.5346570000000  0.5879420000000  0.4689130000000 1.0
C      1  0.5092050000000  0.4858620000000  0.4714080000000 1.0
C      1  0.4638450000000  0.5024860000000  0.5138830000000 1.0
C      1  0.5757860000000  0.4486680000000  0.5883050000000 1.0
C      1  0.5482580000000  0.4272440000000  0.5019710000000 1.0
C      1  0.4710900000000  0.5565240000000  0.5093630000000 1.0
C      1  0.5181430000000  0.4615460000000  0.5122060000000 1.0
C      1  0.5724510000000  0.4702650000000  0.4859790000000 1.0
C      1  0.5112870000000  0.5343280000000  0.5171190000000 1.0
C      1  0.5013160000000  0.4263540000000  0.4859230000000 1.0
C      1  0.4606490000000  0.5604800000000  0.5569320000000 1.0
C      1  0.5473750000000  0.4685180000000  0.4431560000000 1.0
C      1  0.4729510000000  0.4297950000000  0.4968900000000 1.0
C      1  0.4882520000000  0.5157910000000  0.4262920000000 1.0
C      1  0.5179560000000  0.5056130000000  0.4247580000000 1.0
C      1  0.4470130000000  0.5675390000000  0.4634830000000 1.0
C      1  0.4298640000000  0.4674780000000  0.4951490000000 1.0
C      1  0.5120740000000  0.5368950000000  0.4727820000000 1.0
C      1  0.4414870000000  0.4660850000000  0.5450750000000 1.0
C      1  0.4718030000000  0.4321750000000  0.5263780000000 1.0
C      1  0.4719340000000  0.4711620000000  0.4140080000000 1.0
C      1  0.5638990000000  0.4868910000000  0.4607050000000 1.0
C      1  0.4391060000000  0.5198200000000  0.5197910000000 1.0
C      1  0.4633870000000  0.4645110000000  0.4631420000000 1.0
C      1  0.4988330000000  0.4312120000000  0.4342240000000 1.0
C      1  0.5617410000000  0.5346480000000  0.4856280000000 1.0
C      1  0.4216600000000  0.4680190000000  0.5237410000000 1.0
C      1  0.4908930000000  0.4678330000000  0.4616330000000 1.0
C      1  0.5278960000000  0.4776250000000  0.4898890000000 1.0
C      1  0.5299320000000  0.4798610000000  0.4236600000000 1.0
C      1  0.4761650000000  0.5127070000000  0.4901270000000 1.0
C      1  0.4856550000000  0.5384110000000  0.5293780000000 1.0
C      1  0.5154910000000  0.5531450000000  0.4955650000000 1.0
C      1  0.4256630000000  0.5199660000000  0.4902130000000 1.0
C      1  0.5420610000000  0.4432450000000  0.4571670000000 1.0
C      1  0.5024850000000  0.4856500000000  0.5812090000000 1.0
C      1  0.4430760000000  0.5419590000000  0.5421720000000 1.0
C      1  0.4402620000000  0.5422230000000  0.4759770000000 1.0
C      1  0.4786340000000  0.4823040000000  0.5249960000000 1.0
C      1  0.5330630000000  0.5731730000000  0.4458870000000 1.0
C      1  0.5267470000000  0.5003780000000  0.5723170000000 1.0
C      1  0.5208590000000  0.4340350000000  0.5066730000000 1.0
C      1  0.4663780000000  0.5809150000000  0.4939920000000 1.0
C      1  0.4567920000000  0.4721720000000  0.5699460000000 1.0
C      1  0.5518330000000  0.4586420000000  0.5797810000000 1.0
C      1  0.4886570000000  0.5454160000000  0.4336670000000 1.0
C      1  0.4997420000000  0.5114920000000  0.4757080000000 1.0
C      1  0.5671840000000  0.4848460000000  0.5118750000000 1.0
C      1  0.4842280000000  0.4471200000000  0.4177090000000 1.0
C      1  0.5271680000000  0.4457920000000  0.5856360000000 1.0
C      1  0.5425550000000  0.4980610000000  0.5047540000000 1.0
C      1  0.5183910000000  0.5474500000000  0.4455180000000 1.0
C      1  0.5154780000000  0.5263660000000  0.5649200000000 1.0
C      1  0.4643050000000  0.4594260000000  0.5290290000000 1.0
C      1  0.4523420000000  0.4488520000000  0.4847170000000 1.0
C      1  0.5145460000000  0.4300240000000  0.4584200000000 1.0
C      1  0.4291660000000  0.4929400000000  0.4770310000000 1.0
C      1  0.4661650000000  0.4957180000000  0.4290980000000 1.0
C      1  0.5368910000000  0.5245650000000  0.4376970000000 1.0
C      1  0.5211950000000  0.5538390000000  0.5560270000000 1.0
C      1  0.4888450000000  0.5681750000000  0.5607080000000 1.0
C      1  0.5062070000000  0.4829190000000  0.5273270000000 1.0
C      1  0.5500140000000  0.4833860000000  0.5645780000000 1.0
C      1  0.5216700000000  0.5081260000000  0.5214710000000 1.0
C      1  0.5016280000000  0.4572130000000  0.5841400000000 1.0
C      1  0.5577930000000  0.5468200000000  0.5114640000000 1.0
C      1  0.5670740000000  0.4840310000000  0.5408060000000 1.0
END
