TITL C-599897-7526-858 0.0820031323710008 125000 -550.511089527053 0 0 91 (C1) n - 1
REM
REM in /home/nfs/bkarasulu/CARBON/AIRSS/Generating-Clusters/TERSOFF/Only-C1/FIRE-HFTN
REM
REM
REM
REM
REM
REM ./C.cell (11c1c37f851c82e70ff6c80c92926a4b)
REM AIRSS Version 0.9.1 bugfix July 2018 build 013d7b7c2542+ Fri, 06 Jul 2018 19:26:36 +0100
REM compiler GCC version 9.2.1 20190827 (Red Hat 9.2.1-1)
REM options -cpp -mtune=generic -march=x86-64 -g -O0 -fpre-include=/usr/include/finclude/math-vector-fortran.h
REM seed 1196221715 483554549 2039718154 1825451156 -1534518567 1065534560 -740324911 920512053 630769742 1796226510 422701940 124872321 -1278441892 -2054790448 1009468692 -1436223501 -836380638 -571635670 1344434937 1410002167 1511163562 1932726002 1539271549 -1224238254 639582423 1168347848 1138515659 952602827 859739868 1718334515 1175982324 639133253 -2141149909
REM
CELL 1.54180   50.00000   50.00000   50.00000   90.00000   90.00000   90.00000
LATT -1
SFAC C  
C      1  0.5195400000000  0.5838360000000  0.4839710000000 1.0
C      1  0.5249830000000  0.5702410000000  0.4585490000000 1.0
C      1  0.4823710000000  0.5514310000000  0.5115020000000 1.0
C      1  0.5696360000000  0.4461590000000  0.4598470000000 1.0
C      1  0.4601830000000  0.5938200000000  0.5228710000000 1.0
C      1  0.5529310000000  0.5029380000000  0.4168940000000 1.0
C      1  0.5135560000000  0.4122500000000  0.4311990000000 1.0
C      1  0.4734850000000  0.3945080000000  0.4829620000000 1.0
C      1  0.5758990000000  0.4730310000000  0.4723170000000 1.0
C      1  0.5631880000000  0.5440100000000  0.5233220000000 1.0
C      1  0.4790500000000  0.5805130000000  0.4585930000000 1.0
C      1  0.5039470000000  0.4828530000000  0.4603550000000 1.0
C      1  0.4830080000000  0.4226770000000  0.6306220000000 1.0
C      1  0.4666300000000  0.4592280000000  0.5404640000000 1.0
C      1  0.5178560000000  0.4940760000000  0.5772400000000 1.0
C      1  0.5014130000000  0.4358120000000  0.4817110000000 1.0
C      1  0.5129960000000  0.4501080000000  0.5973180000000 1.0
C      1  0.4909530000000  0.4620580000000  0.4766450000000 1.0
C      1  0.4918320000000  0.5497730000000  0.4237690000000 1.0
C      1  0.5006270000000  0.5495010000000  0.5954330000000 1.0
C      1  0.4305000000000  0.5844320000000  0.4569940000000 1.0
C      1  0.4684150000000  0.4362170000000  0.4310100000000 1.0
C      1  0.5064940000000  0.5118000000000  0.4701770000000 1.0
C      1  0.5395670000000  0.4914710000000  0.5286120000000 1.0
C      1  0.5232390000000  0.5241840000000  0.4494400000000 1.0
C      1  0.5023090000000  0.5322800000000  0.5154560000000 1.0
C      1  0.4298970000000  0.4994580000000  0.4436480000000 1.0
C      1  0.4515760000000  0.5411540000000  0.4484290000000 1.0
C      1  0.4517170000000  0.4842000000000  0.4337780000000 1.0
C      1  0.5005090000000  0.5701050000000  0.4418100000000 1.0
C      1  0.5147840000000  0.5160940000000  0.4963630000000 1.0
C      1  0.5700450000000  0.5261390000000  0.4235670000000 1.0
C      1  0.4603960000000  0.3769460000000  0.4970790000000 1.0
C      1  0.4529010000000  0.4568970000000  0.4429740000000 1.0
C      1  0.5266960000000  0.5090350000000  0.5997980000000 1.0
C      1  0.4239140000000  0.5212120000000  0.4866750000000 1.0
C      1  0.4411450000000  0.5210890000000  0.5089900000000 1.0
C      1  0.5195780000000  0.5333000000000  0.6090880000000 1.0
C      1  0.5368640000000  0.4136290000000  0.4451070000000 1.0
C      1  0.5312820000000  0.4283870000000  0.5187950000000 1.0
C      1  0.4749320000000  0.5073230000000  0.5474780000000 1.0
C      1  0.4946650000000  0.4561790000000  0.5350000000000 1.0
C      1  0.4530680000000  0.5691330000000  0.4549470000000 1.0
C      1  0.5839030000000  0.4928070000000  0.4517160000000 1.0
C      1  0.4874390000000  0.4176200000000  0.4408580000000 1.0
C      1  0.5607300000000  0.5295780000000  0.4982320000000 1.0
C      1  0.4418840000000  0.4515710000000  0.4689790000000 1.0
C      1  0.5255780000000  0.5062330000000  0.4258990000000 1.0
C      1  0.5800680000000  0.5222170000000  0.4513340000000 1.0
C      1  0.5590560000000  0.5016110000000  0.5468920000000 1.0
C      1  0.5242170000000  0.5559910000000  0.5502160000000 1.0
C      1  0.5430590000000  0.5044560000000  0.5016260000000 1.0
C      1  0.4866640000000  0.4147660000000  0.4694520000000 1.0
C      1  0.5124790000000  0.5652880000000  0.5744430000000 1.0
C      1  0.4767640000000  0.5784150000000  0.5068900000000 1.0
C      1  0.5393860000000  0.5460120000000  0.4580430000000 1.0
C      1  0.5513850000000  0.4829220000000  0.4831340000000 1.0
C      1  0.5705960000000  0.4527660000000  0.4311620000000 1.0
C      1  0.5345550000000  0.5811800000000  0.5079010000000 1.0
C      1  0.4983720000000  0.4360430000000  0.6143490000000 1.0
C      1  0.5149400000000  0.4763360000000  0.5307780000000 1.0
C      1  0.4056810000000  0.4620350000000  0.4989010000000 1.0
C      1  0.5498420000000  0.4376260000000  0.5385110000000 1.0
C      1  0.4325730000000  0.4540210000000  0.4957120000000 1.0
C      1  0.4716000000000  0.5302900000000  0.4298340000000 1.0
C      1  0.5008060000000  0.4896870000000  0.4301480000000 1.0
C      1  0.4488840000000  0.4535390000000  0.5189280000000 1.0
C      1  0.3983210000000  0.5099640000000  0.4910800000000 1.0
C      1  0.3913710000000  0.4846000000000  0.4966550000000 1.0
C      1  0.5481810000000  0.4278940000000  0.4674970000000 1.0
C      1  0.5705950000000  0.5262840000000  0.5446040000000 1.0
C      1  0.4548770000000  0.5132210000000  0.5305600000000 1.0
C      1  0.5123030000000  0.5313710000000  0.5421670000000 1.0
C      1  0.5448230000000  0.4522660000000  0.5611140000000 1.0
C      1  0.5257360000000  0.4659120000000  0.5778160000000 1.0
C      1  0.5018350000000  0.5095680000000  0.5577240000000 1.0
C      1  0.4331900000000  0.5226360000000  0.4597520000000 1.0
C      1  0.5294580000000  0.4304480000000  0.4900900000000 1.0
C      1  0.4744740000000  0.5376160000000  0.5952050000000 1.0
C      1  0.4607600000000  0.5141290000000  0.5938850000000 1.0
C      1  0.4743650000000  0.5009230000000  0.4260790000000 1.0
C      1  0.5705240000000  0.4810380000000  0.4263230000000 1.0
C      1  0.4556470000000  0.4890830000000  0.5845530000000 1.0
C      1  0.4903420000000  0.5880420000000  0.4841190000000 1.0
C      1  0.4577090000000  0.4694110000000  0.5658340000000 1.0
C      1  0.5318520000000  0.4746810000000  0.4647470000000 1.0
C      1  0.4283810000000  0.6198950000000  0.5556010000000 1.0
C      1  0.4441480000000  0.6070910000000  0.5392580000000 1.0
C      1  0.5640230000000  0.5369210000000  0.4704620000000 1.0
C      1  0.5048710000000  0.4299880000000  0.5306140000000 1.0
C      1  0.5431800000000  0.5645240000000  0.5295230000000 1.0
END
