TITL C-599896-8500-1280 0.00887330984414753 125000 -765.648989948116 0 0 127 (C1) n - 1
REM
REM in /home/nfs/bkarasulu/CARBON/AIRSS/Generating-Clusters/TERSOFF/Only-C1/FIRE-HFTN
REM
REM
REM
REM
REM
REM ./C.cell (11c1c37f851c82e70ff6c80c92926a4b)
REM AIRSS Version 0.9.1 bugfix July 2018 build 013d7b7c2542+ Fri, 06 Jul 2018 19:26:36 +0100
REM compiler GCC version 9.2.1 20190827 (Red Hat 9.2.1-1)
REM options -cpp -mtune=generic -march=x86-64 -g -O0 -fpre-include=/usr/include/finclude/math-vector-fortran.h
REM seed 731816466 -332334412 -1301656181 -1405764311 -1654414145 -1835490706 -1076964863 1106650456 1937449233 1454759241 971071802 -2026751100 783655391 -1277539155 1612372250 1311306133 -1881270472 78793140 -1697766081 -552939000 1569927937 941838176 -1691564412 -397230730 -925102748 -921502064 432669795 -1893544865 1961892169 759193892 -707959501 1968763640 1510524832
REM
CELL 1.54180   50.00000   50.00000   50.00000   90.00000   90.00000   90.00000
LATT -1
SFAC C  
C      1  0.6010560000000  0.4277740000000  0.5140910000000 1.0
C      1  0.5052590000000  0.4952330000000  0.4738760000000 1.0
C      1  0.5687890000000  0.4944960000000  0.4449860000000 1.0
C      1  0.4546740000000  0.4217270000000  0.4576120000000 1.0
C      1  0.4263020000000  0.5977940000000  0.4802520000000 1.0
C      1  0.5703830000000  0.5146920000000  0.4674720000000 1.0
C      1  0.4191810000000  0.5336960000000  0.4568860000000 1.0
C      1  0.5956340000000  0.4889880000000  0.4370990000000 1.0
C      1  0.5177030000000  0.4471400000000  0.4261540000000 1.0
C      1  0.4165620000000  0.5350450000000  0.5142110000000 1.0
C      1  0.5538160000000  0.5325180000000  0.5303840000000 1.0
C      1  0.4705140000000  0.5710790000000  0.5890260000000 1.0
C      1  0.4272840000000  0.4293450000000  0.4564910000000 1.0
C      1  0.4688040000000  0.5296770000000  0.4690550000000 1.0
C      1  0.4919470000000  0.4483050000000  0.5900870000000 1.0
C      1  0.4621220000000  0.4717020000000  0.4928560000000 1.0
C      1  0.4079340000000  0.5077740000000  0.5152890000000 1.0
C      1  0.5090140000000  0.5269710000000  0.4337470000000 1.0
C      1  0.4565700000000  0.4036260000000  0.5103920000000 1.0
C      1  0.5440970000000  0.5785920000000  0.5745500000000 1.0
C      1  0.5579940000000  0.5854850000000  0.4079780000000 1.0
C      1  0.5903560000000  0.4265600000000  0.4892220000000 1.0
C      1  0.4099250000000  0.4964430000000  0.5412890000000 1.0
C      1  0.4353890000000  0.6209970000000  0.4705430000000 1.0
C      1  0.4324790000000  0.5520670000000  0.4982880000000 1.0
C      1  0.4654770000000  0.4190500000000  0.4860950000000 1.0
C      1  0.5336780000000  0.4806420000000  0.5547250000000 1.0
C      1  0.5161510000000  0.4467520000000  0.5236940000000 1.0
C      1  0.4604670000000  0.5245810000000  0.4220980000000 1.0
C      1  0.4419420000000  0.5395880000000  0.4742910000000 1.0
C      1  0.5311590000000  0.3992350000000  0.4962230000000 1.0
C      1  0.5339580000000  0.6227970000000  0.5006300000000 1.0
C      1  0.4889850000000  0.4004860000000  0.4794920000000 1.0
C      1  0.5959850000000  0.4431990000000  0.5376370000000 1.0
C      1  0.4970470000000  0.5747330000000  0.5883040000000 1.0
C      1  0.4595450000000  0.4617290000000  0.5549520000000 1.0
C      1  0.5495670000000  0.6052730000000  0.5157820000000 1.0
C      1  0.4099920000000  0.4467850000000  0.4685760000000 1.0
C      1  0.4324220000000  0.5801440000000  0.5012930000000 1.0
C      1  0.6125720000000  0.4914280000000  0.5235780000000 1.0
C      1  0.4165870000000  0.4724420000000  0.4790310000000 1.0
C      1  0.4952300000000  0.4931630000000  0.5966180000000 1.0
C      1  0.4769750000000  0.4155460000000  0.4126350000000 1.0
C      1  0.5110420000000  0.4689450000000  0.5934240000000 1.0
C      1  0.4674380000000  0.4449640000000  0.5762690000000 1.0
C      1  0.4878690000000  0.4066740000000  0.5463280000000 1.0
C      1  0.5030820000000  0.3914070000000  0.5028100000000 1.0
C      1  0.5689110000000  0.5809630000000  0.5821080000000 1.0
C      1  0.4947330000000  0.6003280000000  0.4374370000000 1.0
C      1  0.4853490000000  0.6130600000000  0.5422060000000 1.0
C      1  0.5371820000000  0.4661660000000  0.5303680000000 1.0
C      1  0.5315470000000  0.5304260000000  0.5487200000000 1.0
C      1  0.5311660000000  0.5397060000000  0.4920080000000 1.0
C      1  0.5260460000000  0.6109400000000  0.4750650000000 1.0
C      1  0.4035850000000  0.4960450000000  0.4887610000000 1.0
C      1  0.4002030000000  0.5157160000000  0.4678950000000 1.0
C      1  0.5238790000000  0.5093690000000  0.4546140000000 1.0
C      1  0.4307850000000  0.4146920000000  0.5898400000000 1.0
C      1  0.4864990000000  0.5147130000000  0.4889810000000 1.0
C      1  0.5123160000000  0.5109140000000  0.4078500000000 1.0
C      1  0.4497830000000  0.4820650000000  0.4454520000000 1.0
C      1  0.6131410000000  0.5008710000000  0.4548400000000 1.0
C      1  0.4442250000000  0.4774150000000  0.4727070000000 1.0
C      1  0.5563040000000  0.4144420000000  0.5424620000000 1.0
C      1  0.4559550000000  0.4192760000000  0.5791480000000 1.0
C      1  0.5436380000000  0.5245500000000  0.4716280000000 1.0
C      1  0.4701790000000  0.5018530000000  0.5900260000000 1.0
C      1  0.6085390000000  0.5082210000000  0.5029720000000 1.0
C      1  0.4511470000000  0.4979750000000  0.4237960000000 1.0
C      1  0.5161870000000  0.5762310000000  0.5650640000000 1.0
C      1  0.4555330000000  0.5343260000000  0.5578390000000 1.0
C      1  0.4419950000000  0.5925320000000  0.5244460000000 1.0
C      1  0.5228670000000  0.5528140000000  0.4295170000000 1.0
C      1  0.5516810000000  0.4032290000000  0.5161450000000 1.0
C      1  0.4765620000000  0.5886320000000  0.4216030000000 1.0
C      1  0.4440320000000  0.5473300000000  0.4167910000000 1.0
C      1  0.4944660000000  0.5007940000000  0.3874640000000 1.0
C      1  0.4790220000000  0.4170850000000  0.4397730000000 1.0
C      1  0.4760770000000  0.3747810000000  0.5814070000000 1.0
C      1  0.5365490000000  0.4667500000000  0.5791260000000 1.0
C      1  0.5604830000000  0.4498380000000  0.5761780000000 1.0
C      1  0.5466690000000  0.4350280000000  0.4632480000000 1.0
C      1  0.4537650000000  0.5580350000000  0.5727370000000 1.0
C      1  0.5127990000000  0.4673760000000  0.4760150000000 1.0
C      1  0.5306330000000  0.4115560000000  0.4680460000000 1.0
C      1  0.5423260000000  0.5865860000000  0.4752640000000 1.0
C      1  0.4732190000000  0.3990840000000  0.5694150000000 1.0
C      1  0.5303580000000  0.4580760000000  0.4519460000000 1.0
C      1  0.4972700000000  0.4732780000000  0.3848340000000 1.0
C      1  0.5038300000000  0.5375540000000  0.5009980000000 1.0
C      1  0.5033660000000  0.4510650000000  0.4980340000000 1.0
C      1  0.5404150000000  0.5697040000000  0.4189990000000 1.0
C      1  0.5559090000000  0.4800970000000  0.5137280000000 1.0
C      1  0.4572150000000  0.6363100000000  0.4688980000000 1.0
C      1  0.5406540000000  0.4862060000000  0.4406080000000 1.0
C      1  0.5125240000000  0.5519040000000  0.5472550000000 1.0
C      1  0.4814790000000  0.3936240000000  0.5225880000000 1.0
C      1  0.4690910000000  0.5323650000000  0.5335820000000 1.0
C      1  0.5031510000000  0.6160930000000  0.4593900000000 1.0
C      1  0.5320980000000  0.4146530000000  0.5568990000000 1.0
C      1  0.5000060000000  0.4982230000000  0.5306810000000 1.0
C      1  0.4740500000000  0.4996270000000  0.5148220000000 1.0
C      1  0.4245380000000  0.4987890000000  0.5641700000000 1.0
C      1  0.5199830000000  0.5043540000000  0.5495970000000 1.0
C      1  0.5694510000000  0.4423280000000  0.4786870000000 1.0
C      1  0.4069700000000  0.4106920000000  0.5996350000000 1.0
C      1  0.4491080000000  0.5106750000000  0.5726800000000 1.0
C      1  0.5530970000000  0.5797700000000  0.5023690000000 1.0
C      1  0.5094160000000  0.4252880000000  0.5437170000000 1.0
C      1  0.5986660000000  0.5130820000000  0.4770890000000 1.0
C      1  0.5628220000000  0.5067840000000  0.5215120000000 1.0
C      1  0.5075150000000  0.6010710000000  0.5507370000000 1.0
C      1  0.5496970000000  0.5528100000000  0.5098900000000 1.0
C      1  0.4839140000000  0.6350380000000  0.4675760000000 1.0
C      1  0.4583140000000  0.4804430000000  0.5357100000000 1.0
C      1  0.5174360000000  0.4633250000000  0.4028160000000 1.0
C      1  0.4600770000000  0.6085650000000  0.5354210000000 1.0
C      1  0.4801420000000  0.5298680000000  0.4421430000000 1.0
C      1  0.4928710000000  0.5464500000000  0.5266540000000 1.0
C      1  0.6073650000000  0.4690980000000  0.5376100000000 1.0
C      1  0.5306100000000  0.4883160000000  0.4122090000000 1.0
C      1  0.5736100000000  0.4350780000000  0.5537970000000 1.0
C      1  0.4574840000000  0.5718470000000  0.4130600000000 1.0
C      1  0.4197250000000  0.5455780000000  0.4312720000000 1.0
C      1  0.4751610000000  0.4470700000000  0.4951470000000 1.0
C      1  0.5029090000000  0.4088960000000  0.4560470000000 1.0
C      1  0.5667680000000  0.4669980000000  0.4919060000000 1.0
END
