TITL C-599890-3321-540 29998.5655503117 125000 -637.808099907016 0 0 105 (C1) n - 1
REM
REM in /home/nfs/bkarasulu/CARBON/AIRSS/Generating-Clusters/TERSOFF/Only-C1/FIRE-HFTN
REM
REM
REM
REM
REM
REM ./C.cell (11c1c37f851c82e70ff6c80c92926a4b)
REM AIRSS Version 0.9.1 bugfix July 2018 build 013d7b7c2542+ Fri, 06 Jul 2018 19:26:36 +0100
REM compiler GCC version 9.2.1 20190827 (Red Hat 9.2.1-1)
REM options -cpp -mtune=generic -march=x86-64 -g -O0 -fpre-include=/usr/include/finclude/math-vector-fortran.h
REM seed 563832420 -961820222 743741267 1640000675 -485424300 459506747 1883525267 -1114009891 -88212480 -659270300 1859685146 -1039473407 808806695 516560941 -19331939 -1079038761 -375132784 1030426299 1966242080 1501429085 -437970109 -1804653808 -1743358504 -584993792 1585203330 2039624468 1421732593 -2063771451 -817541737 -2126922448 -1570840049 1840039502 -523474707
REM
CELL 1.54180   50.00000   50.00000   50.00000   90.00000   90.00000   90.00000
LATT -1
SFAC C  
C      1  0.5948630000000  0.5342720000000  0.4957680000000 1.0
C      1  0.5197090000000  0.5539640000000  0.5560570000000 1.0
C      1  0.5202350000000  0.4363330000000  0.5193750000000 1.0
C      1  0.5021770000000  0.4746870000000  0.5987500000000 1.0
C      1  0.4798720000000  0.4724060000000  0.4155150000000 1.0
C      1  0.5333140000000  0.4603440000000  0.5074720000000 1.0
C      1  0.5507290000000  0.4506210000000  0.4349730000000 1.0
C      1  0.4213130000000  0.4483080000000  0.4881330000000 1.0
C      1  0.5810080000000  0.4700150000000  0.4732630000000 1.0
C      1  0.5478620000000  0.5978470000000  0.4623280000000 1.0
C      1  0.4070210000000  0.4996980000000  0.4918830000000 1.0
C      1  0.4361940000000  0.4538770000000  0.4424830000000 1.0
C      1  0.5453140000000  0.4874170000000  0.5453480000000 1.0
C      1  0.5895120000000  0.4851180000000  0.4963160000000 1.0
C      1  0.5025850000000  0.5106690000000  0.5575570000000 1.0
C      1  0.4575120000000  0.4561430000000  0.4235560000000 1.0
C      1  0.4560110000000  0.5121360000000  0.5499500000000 1.0
C      1  0.4769850000000  0.4831200000000  0.5881410000000 1.0
C      1  0.4586740000000  0.5200680000000  0.3990610000000 1.0
C      1  0.4732570000000  0.3991150000000  0.5520470000000 1.0
C      1  0.4742330000000  0.5014030000000  0.5057030000000 1.0
C      1  0.5751900000000  0.5255740000000  0.5503390000000 1.0
C      1  0.5072320000000  0.5326950000000  0.5109290000000 1.0
C      1  0.4159920000000  0.5188240000000  0.4717100000000 1.0
C      1  0.4079640000000  0.5061180000000  0.5198770000000 1.0
C      1  0.5241080000000  0.5220000000000  0.4420950000000 1.0
C      1  0.5299210000000  0.5473380000000  0.6084650000000 1.0
C      1  0.5752950000000  0.4267130000000  0.5076250000000 1.0
C      1  0.4556520000000  0.5360320000000  0.4221720000000 1.0
C      1  0.5610340000000  0.5899630000000  0.5089240000000 1.0
C      1  0.4641390000000  0.3747140000000  0.5513500000000 1.0
C      1  0.4325040000000  0.5027200000000  0.4540380000000 1.0
C      1  0.5391240000000  0.5373310000000  0.6312120000000 1.0
C      1  0.4795410000000  0.5768040000000  0.5293470000000 1.0
C      1  0.5130240000000  0.4259800000000  0.4496430000000 1.0
C      1  0.5559290000000  0.5729500000000  0.5314010000000 1.0
C      1  0.4603460000000  0.5015860000000  0.4607150000000 1.0
C      1  0.4947070000000  0.5580640000000  0.4348860000000 1.0
C      1  0.4091110000000  0.5448700000000  0.4688810000000 1.0
C      1  0.4419070000000  0.4406680000000  0.4690100000000 1.0
C      1  0.5959630000000  0.5515820000000  0.5164070000000 1.0
C      1  0.5166530000000  0.4873090000000  0.5498530000000 1.0
C      1  0.4661440000000  0.4481320000000  0.5562910000000 1.0
C      1  0.4164470000000  0.5319350000000  0.5304200000000 1.0
C      1  0.5312930000000  0.5268640000000  0.4959040000000 1.0
C      1  0.4726670000000  0.4957370000000  0.4012770000000 1.0
C      1  0.5853520000000  0.4462940000000  0.5237790000000 1.0
C      1  0.5755590000000  0.5514900000000  0.5364900000000 1.0
C      1  0.5235070000000  0.4563850000000  0.5939470000000 1.0
C      1  0.5153540000000  0.5988710000000  0.5001650000000 1.0
C      1  0.4654290000000  0.5771040000000  0.2829910000000 1.0
C      1  0.4074660000000  0.4574370000000  0.5349670000000 1.0
C      1  0.5418490000000  0.5981830000000  0.4896160000000 1.0
C      1  0.5514870000000  0.5087950000000  0.5034450000000 1.0
C      1  0.5193080000000  0.4936430000000  0.4411150000000 1.0
C      1  0.5320250000000  0.4802660000000  0.4639610000000 1.0
C      1  0.5067290000000  0.4706940000000  0.4263500000000 1.0
C      1  0.4432340000000  0.5362390000000  0.5410600000000 1.0
C      1  0.4590990000000  0.5599300000000  0.5360540000000 1.0
C      1  0.5109500000000  0.4315270000000  0.5467410000000 1.0
C      1  0.4476810000000  0.5400010000000  0.3501760000000 1.0
C      1  0.5065260000000  0.5858960000000  0.5238460000000 1.0
C      1  0.3982710000000  0.5525390000000  0.5312980000000 1.0
C      1  0.5587380000000  0.4162180000000  0.4887030000000 1.0
C      1  0.4911670000000  0.4303540000000  0.4764220000000 1.0
C      1  0.5310040000000  0.5312340000000  0.4684080000000 1.0
C      1  0.4720380000000  0.4761540000000  0.4667790000000 1.0
C      1  0.4506590000000  0.5520250000000  0.3267440000000 1.0
C      1  0.5221670000000  0.4457320000000  0.4318940000000 1.0
C      1  0.4087230000000  0.4730010000000  0.4787140000000 1.0
C      1  0.5325320000000  0.4145660000000  0.4782770000000 1.0
C      1  0.4605570000000  0.4604500000000  0.5813190000000 1.0
C      1  0.5107870000000  0.4208810000000  0.4971320000000 1.0
C      1  0.5231410000000  0.5535300000000  0.5836140000000 1.0
C      1  0.5082150000000  0.5328990000000  0.5410170000000 1.0
C      1  0.4721200000000  0.5442910000000  0.4438780000000 1.0
C      1  0.4828640000000  0.4251830000000  0.5518440000000 1.0
C      1  0.5890660000000  0.4746300000000  0.5238070000000 1.0
C      1  0.4767510000000  0.5063820000000  0.5698670000000 1.0
C      1  0.4583340000000  0.4929710000000  0.5285680000000 1.0
C      1  0.4962320000000  0.4828460000000  0.5030470000000 1.0
C      1  0.5726470000000  0.4966640000000  0.5487270000000 1.0
C      1  0.4160000000000  0.4416270000000  0.5148150000000 1.0
C      1  0.5789300000000  0.5114480000000  0.4952430000000 1.0
C      1  0.5639100000000  0.4535930000000  0.6295940000000 1.0
C      1  0.4201110000000  0.4766830000000  0.4508060000000 1.0
C      1  0.5169410000000  0.4726600000000  0.4866060000000 1.0
C      1  0.5619860000000  0.5140720000000  0.6724360000000 1.0
C      1  0.4727420000000  0.5272870000000  0.4671710000000 1.0
C      1  0.4036490000000  0.4840380000000  0.5371490000000 1.0
C      1  0.5502190000000  0.5257070000000  0.6522920000000 1.0
C      1  0.5495230000000  0.5853330000000  0.4387800000000 1.0
C      1  0.4572640000000  0.5645900000000  0.3043550000000 1.0
C      1  0.5283940000000  0.5746510000000  0.5397460000000 1.0
C      1  0.4497770000000  0.5291560000000  0.3742610000000 1.0
C      1  0.5404720000000  0.5649030000000  0.4238690000000 1.0
C      1  0.4823240000000  0.5269920000000  0.4949850000000 1.0
C      1  0.5243120000000  0.4406970000000  0.5701600000000 1.0
C      1  0.4695720000000  0.4479370000000  0.4735220000000 1.0
C      1  0.5194760000000  0.5464960000000  0.4276990000000 1.0
C      1  0.5458280000000  0.4837420000000  0.5170930000000 1.0
C      1  0.4985020000000  0.4734650000000  0.5311790000000 1.0
C      1  0.4703850000000  0.4679960000000  0.5371040000000 1.0
C      1  0.5576780000000  0.4673490000000  0.4573320000000 1.0
C      1  0.5441700000000  0.4542100000000  0.6125910000000 1.0
END
