TITL C-599897-7526-1173 72808.9201315534 125000 -887.000869010233 0 0 147 (C1) n - 1
REM
REM in /home/nfs/bkarasulu/CARBON/AIRSS/Generating-Clusters/TERSOFF/Only-C1/FIRE-HFTN
REM
REM
REM
REM
REM
REM ./C.cell (11c1c37f851c82e70ff6c80c92926a4b)
REM AIRSS Version 0.9.1 bugfix July 2018 build 013d7b7c2542+ Fri, 06 Jul 2018 19:26:36 +0100
REM compiler GCC version 9.2.1 20190827 (Red Hat 9.2.1-1)
REM options -cpp -mtune=generic -march=x86-64 -g -O0 -fpre-include=/usr/include/finclude/math-vector-fortran.h
REM seed 590251515 -42334399 1446352612 974285571 -729001568 -2107313276 -1832145772 1194297166 -1727172295 1427282875 -687397039 -667088049 -750395884 1648774871 1482195305 178542982 -1925703996 1293193330 1922274217 -1612470257 -943549263 123989832 -593625850 -605714031 305565829 1352647691 -195893291 -1622378074 460536306 1254100756 1103767501 132489869 -701234330
REM
CELL 1.54180   50.00000   50.00000   50.00000   90.00000   90.00000   90.00000
LATT -1
SFAC C  
C      1  0.5608010000000  0.5726440000000  0.4474700000000 1.0
C      1  0.5853640000000  0.5316800000000  0.4736060000000 1.0
C      1  0.4665210000000  0.4590460000000  0.5184620000000 1.0
C      1  0.4795110000000  0.4308140000000  0.4493550000000 1.0
C      1  0.4310470000000  0.4164800000000  0.4793420000000 1.0
C      1  0.6064050000000  0.4410780000000  0.4905020000000 1.0
C      1  0.5225560000000  0.5584180000000  0.5399850000000 1.0
C      1  0.5650790000000  0.4192420000000  0.4633700000000 1.0
C      1  0.6060380000000  0.4669470000000  0.4753130000000 1.0
C      1  0.5014970000000  0.6046060000000  0.4825230000000 1.0
C      1  0.4420640000000  0.5871430000000  0.5162760000000 1.0
C      1  0.5512440000000  0.5170860000000  0.5554310000000 1.0
C      1  0.5450750000000  0.4122510000000  0.4426590000000 1.0
C      1  0.5041760000000  0.4438120000000  0.5472410000000 1.0
C      1  0.5470700000000  0.4839120000000  0.4602760000000 1.0
C      1  0.3957510000000  0.5073090000000  0.5071370000000 1.0
C      1  0.4369940000000  0.4910790000000  0.5737270000000 1.0
C      1  0.4505860000000  0.5051910000000  0.4817130000000 1.0
C      1  0.5899410000000  0.4950950000000  0.5082410000000 1.0
C      1  0.4775980000000  0.4964200000000  0.6069370000000 1.0
C      1  0.4788240000000  0.4953050000000  0.4855550000000 1.0
C      1  0.4117920000000  0.5723890000000  0.4816080000000 1.0
C      1  0.5352170000000  0.4739550000000  0.5719350000000 1.0
C      1  0.4925320000000  0.4515270000000  0.5232430000000 1.0
C      1  0.5060360000000  0.4460100000000  0.4992030000000 1.0
C      1  0.4580670000000  0.4496770000000  0.4928540000000 1.0
C      1  0.4976860000000  0.5181450000000  0.5534770000000 1.0
C      1  0.4770870000000  0.5062880000000  0.5343040000000 1.0
C      1  0.5256330000000  0.5152110000000  0.6035490000000 1.0
C      1  0.4387280000000  0.4608650000000  0.5679560000000 1.0
C      1  0.4753380000000  0.5605530000000  0.5892250000000 1.0
C      1  0.6083960000000  0.4873480000000  0.4538940000000 1.0
C      1  0.5603970000000  0.4386940000000  0.5902350000000 1.0
C      1  0.5505160000000  0.5888230000000  0.5099150000000 1.0
C      1  0.4381370000000  0.4881850000000  0.4605650000000 1.0
C      1  0.4980190000000  0.5470480000000  0.5464890000000 1.0
C      1  0.4949970000000  0.5068870000000  0.5079920000000 1.0
C      1  0.4730730000000  0.4507490000000  0.4687630000000 1.0
C      1  0.4123450000000  0.4841540000000  0.5122820000000 1.0
C      1  0.4923610000000  0.4076880000000  0.4604470000000 1.0
C      1  0.5081860000000  0.4434830000000  0.5966820000000 1.0
C      1  0.5723080000000  0.5586830000000  0.4705800000000 1.0
C      1  0.4817190000000  0.4421220000000  0.5898210000000 1.0
C      1  0.5119560000000  0.4169930000000  0.5530830000000 1.0
C      1  0.4583080000000  0.5555480000000  0.4824270000000 1.0
C      1  0.5347370000000  0.4514900000000  0.5889450000000 1.0
C      1  0.4851960000000  0.4760440000000  0.4658210000000 1.0
C      1  0.5164570000000  0.5695810000000  0.4213740000000 1.0
C      1  0.4549090000000  0.5288630000000  0.4353850000000 1.0
C      1  0.5356450000000  0.4514600000000  0.4066580000000 1.0
C      1  0.4563930000000  0.5064180000000  0.5913390000000 1.0
C      1  0.5976650000000  0.4946720000000  0.5541150000000 1.0
C      1  0.5783830000000  0.5798870000000  0.4273880000000 1.0
C      1  0.4818490000000  0.4883470000000  0.4404620000000 1.0
C      1  0.5824490000000  0.4360100000000  0.5739640000000 1.0
C      1  0.4912280000000  0.3809930000000  0.5309020000000 1.0
C      1  0.5439390000000  0.4293520000000  0.4196740000000 1.0
C      1  0.4582000000000  0.4845940000000  0.5259780000000 1.0
C      1  0.4531240000000  0.4062170000000  0.4963410000000 1.0
C      1  0.4385120000000  0.4940940000000  0.5076290000000 1.0
C      1  0.4884170000000  0.4002550000000  0.5519600000000 1.0
C      1  0.5149530000000  0.5158550000000  0.4593450000000 1.0
C      1  0.5473490000000  0.5435780000000  0.5068840000000 1.0
C      1  0.4565440000000  0.5302620000000  0.5383430000000 1.0
C      1  0.4025520000000  0.4586590000000  0.4589290000000 1.0
C      1  0.4527550000000  0.4834420000000  0.4354970000000 1.0
C      1  0.4459770000000  0.5065090000000  0.3922480000000 1.0
C      1  0.5229960000000  0.5826340000000  0.5772370000000 1.0
C      1  0.4371330000000  0.5681590000000  0.5601440000000 1.0
C      1  0.5181440000000  0.5960320000000  0.4630930000000 1.0
C      1  0.4782070000000  0.5526640000000  0.5023860000000 1.0
C      1  0.4141300000000  0.4352050000000  0.4680230000000 1.0
C      1  0.4628810000000  0.4156650000000  0.5512220000000 1.0
C      1  0.5420400000000  0.5378270000000  0.5343300000000 1.0
C      1  0.5360580000000  0.4096610000000  0.5381530000000 1.0
C      1  0.5046820000000  0.6011690000000  0.5624240000000 1.0
C      1  0.5241230000000  0.5441950000000  0.4910460000000 1.0
C      1  0.5419700000000  0.5228270000000  0.5836910000000 1.0
C      1  0.4904120000000  0.5776780000000  0.4131300000000 1.0
C      1  0.5299710000000  0.5835770000000  0.5274840000000 1.0
C      1  0.4998220000000  0.5352220000000  0.4998910000000 1.0
C      1  0.5409960000000  0.4896280000000  0.5493950000000 1.0
C      1  0.4025960000000  0.5246670000000  0.5314370000000 1.0
C      1  0.4390180000000  0.5757600000000  0.4891250000000 1.0
C      1  0.5607220000000  0.4660420000000  0.4754430000000 1.0
C      1  0.5817000000000  0.5181200000000  0.5536510000000 1.0
C      1  0.4498540000000  0.4107200000000  0.5254620000000 1.0
C      1  0.4065890000000  0.4620540000000  0.5282590000000 1.0
C      1  0.4548440000000  0.5321110000000  0.4654100000000 1.0
C      1  0.5260640000000  0.5468200000000  0.4068320000000 1.0
C      1  0.5192240000000  0.4020410000000  0.4513650000000 1.0
C      1  0.4329830000000  0.5334980000000  0.3952010000000 1.0
C      1  0.5014940000000  0.3913990000000  0.5061170000000 1.0
C      1  0.4679580000000  0.5722980000000  0.3991430000000 1.0
C      1  0.5523680000000  0.5760090000000  0.5686260000000 1.0
C      1  0.4476580000000  0.5572260000000  0.3894840000000 1.0
C      1  0.5737510000000  0.5650270000000  0.5523070000000 1.0
C      1  0.4610550000000  0.5809740000000  0.5713160000000 1.0
C      1  0.5031290000000  0.5032460000000  0.6117900000000 1.0
C      1  0.4082730000000  0.4897450000000  0.4555810000000 1.0
C      1  0.5599770000000  0.4984140000000  0.4385050000000 1.0
C      1  0.4855030000000  0.6075750000000  0.5040830000000 1.0
C      1  0.4116690000000  0.5041700000000  0.4273240000000 1.0
C      1  0.5016030000000  0.5096980000000  0.4357940000000 1.0
C      1  0.5322740000000  0.5803810000000  0.4436790000000 1.0
C      1  0.4154250000000  0.5080990000000  0.5559170000000 1.0
C      1  0.6001190000000  0.4499630000000  0.5251870000000 1.0
C      1  0.4166610000000  0.4526780000000  0.5513760000000 1.0
C      1  0.4783450000000  0.4378970000000  0.4218600000000 1.0
C      1  0.4244900000000  0.5736160000000  0.5356780000000 1.0
C      1  0.5836860000000  0.4352230000000  0.5450840000000 1.0
C      1  0.4256730000000  0.5308680000000  0.4241150000000 1.0
C      1  0.4815740000000  0.4572280000000  0.4030690000000 1.0
C      1  0.5270770000000  0.4960840000000  0.4748490000000 1.0
C      1  0.4741790000000  0.5524820000000  0.5303020000000 1.0
C      1  0.5325030000000  0.4342640000000  0.4983930000000 1.0
C      1  0.5220940000000  0.4928180000000  0.5035000000000 1.0
C      1  0.5373930000000  0.4786760000000  0.5234960000000 1.0
C      1  0.4598780000000  0.4394490000000  0.5706410000000 1.0
C      1  0.5394170000000  0.5506230000000  0.3832060000000 1.0
C      1  0.4813450000000  0.3990930000000  0.4863090000000 1.0
C      1  0.4947110000000  0.4829740000000  0.3994450000000 1.0
C      1  0.5412690000000  0.5000110000000  0.4150240000000 1.0
C      1  0.5269740000000  0.4057340000000  0.5095830000000 1.0
C      1  0.5454130000000  0.4510920000000  0.5206490000000 1.0
C      1  0.5999720000000  0.4795080000000  0.5303580000000 1.0
C      1  0.5824920000000  0.4777440000000  0.4879340000000 1.0
C      1  0.5251710000000  0.5410880000000  0.4637670000000 1.0
C      1  0.4587690000000  0.5348920000000  0.5862560000000 1.0
C      1  0.5570100000000  0.4301140000000  0.5367810000000 1.0
C      1  0.4439280000000  0.5403180000000  0.5620410000000 1.0
C      1  0.5919800000000  0.4196990000000  0.4758320000000 1.0
C      1  0.4673940000000  0.6001950000000  0.5251200000000 1.0
C      1  0.5867830000000  0.5412100000000  0.5360590000000 1.0
C      1  0.5251550000000  0.4779160000000  0.4035670000000 1.0
C      1  0.5037830000000  0.5660630000000  0.5929340000000 1.0
C      1  0.5207680000000  0.5207970000000  0.4161770000000 1.0
C      1  0.4711680000000  0.5109680000000  0.4052080000000 1.0
C      1  0.4336120000000  0.4876500000000  0.4124190000000 1.0
C      1  0.5864260000000  0.5089750000000  0.4510380000000 1.0
C      1  0.4046530000000  0.5538340000000  0.5256580000000 1.0
C      1  0.5624150000000  0.5666860000000  0.4964260000000 1.0
C      1  0.5513090000000  0.4400090000000  0.4772670000000 1.0
C      1  0.3933470000000  0.5064560000000  0.4776110000000 1.0
C      1  0.5899130000000  0.5240850000000  0.5041190000000 1.0
C      1  0.4770980000000  0.5976950000000  0.5533510000000 1.0
C      1  0.3945500000000  0.5619170000000  0.4999780000000 1.0
END
