TITL C-599893-4344-720 43134.272693287 125000 -760.582594971284 0 0 125 (C1) n - 1
REM
REM in /home/nfs/bkarasulu/CARBON/AIRSS/Generating-Clusters/TERSOFF/Only-C1/FIRE-HFTN
REM
REM
REM
REM
REM
REM ./C.cell (11c1c37f851c82e70ff6c80c92926a4b)
REM AIRSS Version 0.9.1 bugfix July 2018 build 013d7b7c2542+ Fri, 06 Jul 2018 19:26:36 +0100
REM compiler GCC version 9.2.1 20190827 (Red Hat 9.2.1-1)
REM options -cpp -mtune=generic -march=x86-64 -g -O0 -fpre-include=/usr/include/finclude/math-vector-fortran.h
REM seed 1209176085 -1980580765 1800656851 1379682025 627160578 1086017832 -1278898281 -648592042 -60352076 2043333323 1033348282 -1547469865 1012820498 489513926 1789297337 -1645581434 1665565286 -825830609 2123860338 600773149 -1466971289 1924801997 -1079875587 478458295 -1969033648 81392796 945667476 -1133213311 -993781030 1682446254 -1813143392 1145889219 -388138829
REM
CELL 1.54180   50.00000   50.00000   50.00000   90.00000   90.00000   90.00000
LATT -1
SFAC C  
C      1  0.4550070000000  0.4167240000000  0.5398880000000 1.0
C      1  0.4751550000000  0.5723470000000  0.5319070000000 1.0
C      1  0.5338790000000  0.4747240000000  0.4552350000000 1.0
C      1  0.4337940000000  0.5550850000000  0.5811320000000 1.0
C      1  0.5400430000000  0.4152430000000  0.4124200000000 1.0
C      1  0.5417240000000  0.5202940000000  0.4830820000000 1.0
C      1  0.4965100000000  0.4506820000000  0.4865690000000 1.0
C      1  0.4698700000000  0.4651410000000  0.5999870000000 1.0
C      1  0.3962460000000  0.5148530000000  0.4747720000000 1.0
C      1  0.4442630000000  0.5500220000000  0.4443900000000 1.0
C      1  0.4782110000000  0.4901240000000  0.6060240000000 1.0
C      1  0.4561390000000  0.4794920000000  0.4814100000000 1.0
C      1  0.5772780000000  0.4334670000000  0.3873270000000 1.0
C      1  0.5646550000000  0.5752350000000  0.5011580000000 1.0
C      1  0.4984070000000  0.5936570000000  0.4432030000000 1.0
C      1  0.4585000000000  0.5524400000000  0.5919390000000 1.0
C      1  0.4803820000000  0.5780790000000  0.4582970000000 1.0
C      1  0.5027660000000  0.4697900000000  0.5556150000000 1.0
C      1  0.4812660000000  0.5465930000000  0.5404520000000 1.0
C      1  0.5116420000000  0.4922140000000  0.4585890000000 1.0
C      1  0.4964120000000  0.4313060000000  0.4253950000000 1.0
C      1  0.5257260000000  0.4311240000000  0.5192580000000 1.0
C      1  0.4972550000000  0.5843080000000  0.5733900000000 1.0
C      1  0.4342090000000  0.4185330000000  0.5199070000000 1.0
C      1  0.5242460000000  0.4355750000000  0.4243790000000 1.0
C      1  0.5300410000000  0.5817440000000  0.5282430000000 1.0
C      1  0.5391890000000  0.5658300000000  0.4379880000000 1.0
C      1  0.5295940000000  0.5444370000000  0.4940370000000 1.0
C      1  0.3849860000000  0.5222750000000  0.4984370000000 1.0
C      1  0.4057220000000  0.4579220000000  0.5814950000000 1.0
C      1  0.4199490000000  0.4416250000000  0.5635760000000 1.0
C      1  0.4240540000000  0.4824670000000  0.5184460000000 1.0
C      1  0.4541040000000  0.5073310000000  0.4768540000000 1.0
C      1  0.4778120000000  0.4653520000000  0.4681650000000 1.0
C      1  0.4664370000000  0.4641620000000  0.5251020000000 1.0
C      1  0.4187730000000  0.4401830000000  0.4954090000000 1.0
C      1  0.4480290000000  0.4725740000000  0.5067310000000 1.0
C      1  0.4727100000000  0.5870830000000  0.4845670000000 1.0
C      1  0.4586400000000  0.5020080000000  0.5494360000000 1.0
C      1  0.5357500000000  0.5214340000000  0.5649100000000 1.0
C      1  0.4614090000000  0.5719460000000  0.5065660000000 1.0
C      1  0.3695660000000  0.5117700000000  0.5449530000000 1.0
C      1  0.5380190000000  0.4603310000000  0.4312330000000 1.0
C      1  0.5423240000000  0.4963630000000  0.5771470000000 1.0
C      1  0.5220560000000  0.4749260000000  0.5766120000000 1.0
C      1  0.4727020000000  0.5537040000000  0.4454110000000 1.0
C      1  0.6497200000000  0.5249450000000  0.4329950000000 1.0
C      1  0.6447330000000  0.4982360000000  0.4363280000000 1.0
C      1  0.5718420000000  0.4530500000000  0.6096370000000 1.0
C      1  0.5254390000000  0.4548880000000  0.5964360000000 1.0
C      1  0.4764980000000  0.5220490000000  0.4783720000000 1.0
C      1  0.3730140000000  0.4947090000000  0.5653090000000 1.0
C      1  0.4258260000000  0.4373100000000  0.4682290000000 1.0
C      1  0.5791850000000  0.5232150000000  0.4594300000000 1.0
C      1  0.4895310000000  0.5918970000000  0.5471020000000 1.0
C      1  0.4692390000000  0.4261600000000  0.4298800000000 1.0
C      1  0.4739160000000  0.5246550000000  0.5525580000000 1.0
C      1  0.4871830000000  0.5155280000000  0.6040330000000 1.0
C      1  0.5497480000000  0.5235330000000  0.4556720000000 1.0
C      1  0.4337900000000  0.5195030000000  0.4106930000000 1.0
C      1  0.5219200000000  0.5871200000000  0.4321830000000 1.0
C      1  0.5972950000000  0.5069620000000  0.4460770000000 1.0
C      1  0.4882350000000  0.4818320000000  0.4461020000000 1.0
C      1  0.5869700000000  0.5395510000000  0.4829650000000 1.0
C      1  0.5358070000000  0.5711250000000  0.5019630000000 1.0
C      1  0.6134380000000  0.4611810000000  0.4451000000000 1.0
C      1  0.5636500000000  0.5716300000000  0.4520070000000 1.0
C      1  0.6704760000000  0.4530520000000  0.4354770000000 1.0
C      1  0.5100610000000  0.4515780000000  0.5334390000000 1.0
C      1  0.5748030000000  0.4592850000000  0.3949680000000 1.0
C      1  0.4928460000000  0.5329810000000  0.4355550000000 1.0
C      1  0.5461010000000  0.4450520000000  0.6105870000000 1.0
C      1  0.5708530000000  0.4901770000000  0.5752820000000 1.0
C      1  0.4767000000000  0.5020710000000  0.4299680000000 1.0
C      1  0.4242980000000  0.5323190000000  0.4351270000000 1.0
C      1  0.4416730000000  0.5513390000000  0.5064910000000 1.0
C      1  0.4487140000000  0.4455550000000  0.4259190000000 1.0
C      1  0.5820360000000  0.4726670000000  0.5942650000000 1.0
C      1  0.4628760000000  0.4434050000000  0.5854590000000 1.0
C      1  0.4132760000000  0.5528280000000  0.5634880000000 1.0
C      1  0.4130310000000  0.5102530000000  0.4521450000000 1.0
C      1  0.4376440000000  0.4115130000000  0.4625110000000 1.0
C      1  0.6181920000000  0.4888480000000  0.4422110000000 1.0
C      1  0.4471830000000  0.4314380000000  0.5649940000000 1.0
C      1  0.5294730000000  0.4964930000000  0.5188460000000 1.0
C      1  0.4881590000000  0.4524390000000  0.5141930000000 1.0
C      1  0.3833300000000  0.5283200000000  0.5267600000000 1.0
C      1  0.5428690000000  0.4675090000000  0.4816040000000 1.0
C      1  0.4840840000000  0.6121960000000  0.4920240000000 1.0
C      1  0.4095930000000  0.4409120000000  0.5379710000000 1.0
C      1  0.5002770000000  0.5075580000000  0.4814020000000 1.0
C      1  0.5108780000000  0.6020020000000  0.5314750000000 1.0
C      1  0.5474560000000  0.5650920000000  0.5463820000000 1.0
C      1  0.5265910000000  0.4448770000000  0.4913890000000 1.0
C      1  0.6263030000000  0.4375620000000  0.4445200000000 1.0
C      1  0.5913900000000  0.5143380000000  0.5309920000000 1.0
C      1  0.4282470000000  0.4856070000000  0.4422340000000 1.0
C      1  0.5039020000000  0.4991730000000  0.5079820000000 1.0
C      1  0.4073800000000  0.4588300000000  0.5159470000000 1.0
C      1  0.5028820000000  0.6187580000000  0.5102890000000 1.0
C      1  0.5720230000000  0.5593930000000  0.5263860000000 1.0
C      1  0.4594930000000  0.4059180000000  0.4472680000000 1.0
C      1  0.4857470000000  0.5424350000000  0.5947280000000 1.0
C      1  0.4291380000000  0.5326180000000  0.5239330000000 1.0
C      1  0.6657650000000  0.4795110000000  0.4341820000000 1.0
C      1  0.5281750000000  0.5383830000000  0.4397710000000 1.0
C      1  0.5460560000000  0.4934070000000  0.4958640000000 1.0
C      1  0.4741700000000  0.4782670000000  0.5487860000000 1.0
C      1  0.5613780000000  0.4134200000000  0.3960750000000 1.0
C      1  0.5324400000000  0.5497440000000  0.5682250000000 1.0
C      1  0.6526390000000  0.4332840000000  0.4401610000000 1.0
C      1  0.5769450000000  0.5669100000000  0.4768070000000 1.0
C      1  0.5858080000000  0.5002670000000  0.5532750000000 1.0
C      1  0.5358830000000  0.5146880000000  0.5378770000000 1.0
C      1  0.4489960000000  0.4977440000000  0.4226260000000 1.0
C      1  0.3871810000000  0.4772620000000  0.5798110000000 1.0
C      1  0.5081570000000  0.4076550000000  0.5244820000000 1.0
C      1  0.5072520000000  0.5586860000000  0.5819970000000 1.0
C      1  0.4295970000000  0.5258190000000  0.3847850000000 1.0
C      1  0.4817250000000  0.4065620000000  0.5335850000000 1.0
C      1  0.4305970000000  0.4568820000000  0.4458930000000 1.0
C      1  0.4348060000000  0.5056290000000  0.5326650000000 1.0
C      1  0.4061470000000  0.5421950000000  0.5380860000000 1.0
C      1  0.5576480000000  0.4695460000000  0.4130180000000 1.0
C      1  0.5862230000000  0.5361500000000  0.5137080000000 1.0
END
