TITL C-599891-72-1050 12941.9149620649 125000 -1161.25240019669 0 0 189 (C1) n - 1
REM
REM in /home/nfs/bkarasulu/CARBON/AIRSS/Generating-Clusters/TERSOFF/Only-C1/FIRE-HFTN
REM
REM
REM
REM
REM
REM ./C.cell (11c1c37f851c82e70ff6c80c92926a4b)
REM AIRSS Version 0.9.1 bugfix July 2018 build 013d7b7c2542+ Fri, 06 Jul 2018 19:26:36 +0100
REM compiler GCC version 9.2.1 20190827 (Red Hat 9.2.1-1)
REM options -cpp -mtune=generic -march=x86-64 -g -O0 -fpre-include=/usr/include/finclude/math-vector-fortran.h
REM seed 1942849980 -473975410 -474873360 -1359736731 1153775878 946996248 -922833242 -926351206 1433802816 -1803081306 -870426350 233224732 953550853 -1360826746 1992208274 -1149988062 589455804 256874012 315980348 -1804576903 1676305316 -1350923693 1858720502 322265618 -246484686 1421873969 -333869479 -976524670 -1525629672 336678481 1796379264 1477446033 1290792479
REM
CELL 1.54180   50.00000   50.00000   50.00000   90.00000   90.00000   90.00000
LATT -1
SFAC C  
C      1  0.6024450000000  0.4572780000000  0.5880160000000 1.0
C      1  0.4346300000000  0.6365700000000  0.4689800000000 1.0
C      1  0.3751990000000  0.4241430000000  0.5199020000000 1.0
C      1  0.5300100000000  0.4606840000000  0.5634430000000 1.0
C      1  0.5924210000000  0.5368610000000  0.4832710000000 1.0
C      1  0.5570210000000  0.5021220000000  0.5574650000000 1.0
C      1  0.5263450000000  0.4117490000000  0.5585580000000 1.0
C      1  0.5330920000000  0.5041490000000  0.6279640000000 1.0
C      1  0.5254460000000  0.4830720000000  0.4523050000000 1.0
C      1  0.4590380000000  0.4307640000000  0.4083800000000 1.0
C      1  0.5431220000000  0.5830580000000  0.5172370000000 1.0
C      1  0.4647060000000  0.5268340000000  0.3856080000000 1.0
C      1  0.5973670000000  0.4821480000000  0.5006100000000 1.0
C      1  0.5056360000000  0.5164970000000  0.5073540000000 1.0
C      1  0.5048540000000  0.5081700000000  0.5611470000000 1.0
C      1  0.4187690000000  0.4627850000000  0.5560760000000 1.0
C      1  0.4691590000000  0.4609060000000  0.4748310000000 1.0
C      1  0.5780550000000  0.3816460000000  0.5140310000000 1.0
C      1  0.5220420000000  0.5674050000000  0.4588930000000 1.0
C      1  0.6246610000000  0.5035880000000  0.4605890000000 1.0
C      1  0.5246310000000  0.4158430000000  0.4782570000000 1.0
C      1  0.5530320000000  0.5197260000000  0.6137660000000 1.0
C      1  0.5895510000000  0.4006410000000  0.4986580000000 1.0
C      1  0.5294700000000  0.4896680000000  0.5696370000000 1.0
C      1  0.5139160000000  0.6863650000000  0.6092200000000 1.0
C      1  0.4550500000000  0.3802350000000  0.5283050000000 1.0
C      1  0.4825600000000  0.4898950000000  0.5541310000000 1.0
C      1  0.6158180000000  0.5156490000000  0.5442970000000 1.0
C      1  0.6007460000000  0.4783850000000  0.5698130000000 1.0
C      1  0.5489010000000  0.5420250000000  0.5971090000000 1.0
C      1  0.3399130000000  0.5381750000000  0.3910850000000 1.0
C      1  0.4620810000000  0.4099670000000  0.5655470000000 1.0
C      1  0.3662790000000  0.5381970000000  0.4873110000000 1.0
C      1  0.4606630000000  0.5365830000000  0.4957870000000 1.0
C      1  0.4782880000000  0.5130480000000  0.4964100000000 1.0
C      1  0.4412180000000  0.4342770000000  0.4307300000000 1.0
C      1  0.5629110000000  0.5418370000000  0.5245790000000 1.0
C      1  0.4208770000000  0.4967000000000  0.4528890000000 1.0
C      1  0.5700770000000  0.5313210000000  0.4988930000000 1.0
C      1  0.6138960000000  0.5620200000000  0.5176190000000 1.0
C      1  0.4062030000000  0.4512840000000  0.4617820000000 1.0
C      1  0.5351910000000  0.5420530000000  0.5723680000000 1.0
C      1  0.5817620000000  0.5022340000000  0.5761530000000 1.0
C      1  0.6022990000000  0.5114840000000  0.4175350000000 1.0
C      1  0.3982980000000  0.5265660000000  0.5232620000000 1.0
C      1  0.5866820000000  0.4287470000000  0.4998540000000 1.0
C      1  0.4000500000000  0.4845600000000  0.4983240000000 1.0
C      1  0.4593780000000  0.5555470000000  0.5174050000000 1.0
C      1  0.5923010000000  0.4410830000000  0.5256670000000 1.0
C      1  0.4975620000000  0.4738900000000  0.6237590000000 1.0
C      1  0.5456410000000  0.5290040000000  0.5455780000000 1.0
C      1  0.5020350000000  0.4746000000000  0.4108640000000 1.0
C      1  0.5662460000000  0.5507890000000  0.4275100000000 1.0
C      1  0.4184180000000  0.5127130000000  0.5632740000000 1.0
C      1  0.5269650000000  0.4344380000000  0.6043050000000 1.0
C      1  0.5579380000000  0.6001610000000  0.4775180000000 1.0
C      1  0.5247620000000  0.5254460000000  0.4879050000000 1.0
C      1  0.3993370000000  0.4288420000000  0.4781160000000 1.0
C      1  0.5431390000000  0.4754220000000  0.6273190000000 1.0
C      1  0.5737380000000  0.5013170000000  0.6049000000000 1.0
C      1  0.3929650000000  0.5621990000000  0.4350780000000 1.0
C      1  0.5453700000000  0.4035980000000  0.4633930000000 1.0
C      1  0.5168110000000  0.5182560000000  0.5337690000000 1.0
C      1  0.4360970000000  0.4923220000000  0.4066940000000 1.0
C      1  0.4524510000000  0.5505980000000  0.3757200000000 1.0
C      1  0.4601970000000  0.4337490000000  0.5497230000000 1.0
C      1  0.5226320000000  0.5533010000000  0.4837050000000 1.0
C      1  0.5209150000000  0.4571750000000  0.6203290000000 1.0
C      1  0.4463840000000  0.4566840000000  0.5596740000000 1.0
C      1  0.4863550000000  0.4226750000000  0.4116150000000 1.0
C      1  0.5210080000000  0.5236470000000  0.3347880000000 1.0
C      1  0.4875200000000  0.5190680000000  0.3704170000000 1.0
C      1  0.4260700000000  0.3787860000000  0.5296960000000 1.0
C      1  0.5564390000000  0.4193250000000  0.4426530000000 1.0
C      1  0.4170920000000  0.5342310000000  0.5440890000000 1.0
C      1  0.5030180000000  0.3987850000000  0.5446910000000 1.0
C      1  0.5068530000000  0.4002030000000  0.4934950000000 1.0
C      1  0.4988040000000  0.5323500000000  0.3478660000000 1.0
C      1  0.4868550000000  0.4766120000000  0.5295100000000 1.0
C      1  0.5035840000000  0.5842460000000  0.5789920000000 1.0
C      1  0.5112610000000  0.4372480000000  0.4657750000000 1.0
C      1  0.4221440000000  0.5147900000000  0.5900440000000 1.0
C      1  0.5687540000000  0.4425110000000  0.4824740000000 1.0
C      1  0.4583120000000  0.3918920000000  0.5017410000000 1.0
C      1  0.4495730000000  0.3926990000000  0.4559110000000 1.0
C      1  0.4909580000000  0.5582250000000  0.5825900000000 1.0
C      1  0.5711050000000  0.4892940000000  0.5091810000000 1.0
C      1  0.5999640000000  0.5752010000000  0.4606310000000 1.0
C      1  0.4394340000000  0.5488060000000  0.5362700000000 1.0
C      1  0.4384990000000  0.5196560000000  0.4545490000000 1.0
C      1  0.4539770000000  0.4366470000000  0.4783680000000 1.0
C      1  0.3939370000000  0.4133220000000  0.5016900000000 1.0
C      1  0.5863120000000  0.4916040000000  0.4055870000000 1.0
C      1  0.4232680000000  0.4804390000000  0.4284220000000 1.0
C      1  0.4745550000000  0.3881710000000  0.5505720000000 1.0
C      1  0.5822890000000  0.4874280000000  0.4555800000000 1.0
C      1  0.5550230000000  0.5268240000000  0.4346860000000 1.0
C      1  0.5454770000000  0.4577400000000  0.4907640000000 1.0
C      1  0.4731510000000  0.4291130000000  0.5235500000000 1.0
C      1  0.4553520000000  0.5129000000000  0.4080500000000 1.0
C      1  0.5304600000000  0.4537980000000  0.5143740000000 1.0
C      1  0.5849740000000  0.4524320000000  0.6095300000000 1.0
C      1  0.3999300000000  0.4975440000000  0.5227890000000 1.0
C      1  0.5456280000000  0.4512620000000  0.4063070000000 1.0
C      1  0.5103020000000  0.4120270000000  0.4236780000000 1.0
C      1  0.5100860000000  0.6680360000000  0.5910810000000 1.0
C      1  0.6142230000000  0.4851030000000  0.5448390000000 1.0
C      1  0.6140280000000  0.5239130000000  0.4421180000000 1.0
C      1  0.4120810000000  0.6165290000000  0.5085670000000 1.0
C      1  0.5620270000000  0.3847050000000  0.5355510000000 1.0
C      1  0.4912760000000  0.4544210000000  0.4568280000000 1.0
C      1  0.5698580000000  0.4677490000000  0.4131670000000 1.0
C      1  0.6045830000000  0.5479820000000  0.5813610000000 1.0
C      1  0.3878160000000  0.5441730000000  0.5042600000000 1.0
C      1  0.4993650000000  0.4782320000000  0.4397450000000 1.0
C      1  0.4215310000000  0.5605150000000  0.4740470000000 1.0
C      1  0.5417220000000  0.6076720000000  0.5011180000000 1.0
C      1  0.3265230000000  0.5328760000000  0.3693530000000 1.0
C      1  0.5908720000000  0.5777200000000  0.5096360000000 1.0
C      1  0.5607710000000  0.4834630000000  0.5340270000000 1.0
C      1  0.5229300000000  0.4653220000000  0.3964350000000 1.0
C      1  0.4622010000000  0.5641330000000  0.3542030000000 1.0
C      1  0.4691880000000  0.5928140000000  0.5479710000000 1.0
C      1  0.4361030000000  0.6202070000000  0.4478360000000 1.0
C      1  0.5063770000000  0.5354950000000  0.5757620000000 1.0
C      1  0.6073280000000  0.4670560000000  0.5232390000000 1.0
C      1  0.5380490000000  0.4257700000000  0.4209160000000 1.0
C      1  0.5506550000000  0.5090470000000  0.4844040000000 1.0
C      1  0.5037440000000  0.4619480000000  0.5150990000000 1.0
C      1  0.3684680000000  0.5484410000000  0.4361440000000 1.0
C      1  0.6047930000000  0.4878190000000  0.4739060000000 1.0
C      1  0.5444260000000  0.4601110000000  0.5380180000000 1.0
C      1  0.5038570000000  0.3912630000000  0.4442950000000 1.0
C      1  0.4082460000000  0.3911190000000  0.5128680000000 1.0
C      1  0.4658560000000  0.3818790000000  0.4763020000000 1.0
C      1  0.5851800000000  0.5883560000000  0.4821820000000 1.0
C      1  0.5193280000000  0.5692810000000  0.5071470000000 1.0
C      1  0.4937040000000  0.3850080000000  0.4716380000000 1.0
C      1  0.5044730000000  0.5004120000000  0.6282130000000 1.0
C      1  0.4562350000000  0.4213390000000  0.5018750000000 1.0
C      1  0.5020820000000  0.6293140000000  0.5538660000000 1.0
C      1  0.4626930000000  0.5608250000000  0.5824170000000 1.0
C      1  0.4792020000000  0.5456480000000  0.4367110000000 1.0
C      1  0.4152100000000  0.5724170000000  0.4487960000000 1.0
C      1  0.5771570000000  0.4640520000000  0.4407250000000 1.0
C      1  0.5645470000000  0.5108800000000  0.4564860000000 1.0
C      1  0.5377960000000  0.4816450000000  0.4773340000000 1.0
C      1  0.6006620000000  0.5246670000000  0.5679190000000 1.0
C      1  0.4978250000000  0.4116030000000  0.5188920000000 1.0
C      1  0.5415390000000  0.5882230000000  0.4569670000000 1.0
C      1  0.5744230000000  0.4270270000000  0.6155400000000 1.0
C      1  0.4494660000000  0.4346110000000  0.3829420000000 1.0
C      1  0.4245210000000  0.6349940000000  0.4937460000000 1.0
C      1  0.4842830000000  0.5557790000000  0.3406420000000 1.0
C      1  0.6041590000000  0.5465450000000  0.4587260000000 1.0
C      1  0.3536170000000  0.5434230000000  0.4131440000000 1.0
C      1  0.5129380000000  0.6146070000000  0.5061050000000 1.0
C      1  0.4477070000000  0.4208650000000  0.4545550000000 1.0
C      1  0.3781480000000  0.4335250000000  0.5448050000000 1.0
C      1  0.4400330000000  0.5389440000000  0.4755410000000 1.0
C      1  0.4737510000000  0.5803590000000  0.5221040000000 1.0
C      1  0.4043900000000  0.5659550000000  0.4961950000000 1.0
C      1  0.5666660000000  0.5700130000000  0.5237500000000 1.0
C      1  0.5345120000000  0.5182390000000  0.4186330000000 1.0
C      1  0.5699610000000  0.4751780000000  0.6172510000000 1.0
C      1  0.4285500000000  0.5956180000000  0.4406510000000 1.0
C      1  0.4721360000000  0.4910650000000  0.4776300000000 1.0
C      1  0.4635650000000  0.5199890000000  0.4361020000000 1.0
C      1  0.4975000000000  0.5886060000000  0.5083850000000 1.0
C      1  0.4199590000000  0.4527750000000  0.4352420000000 1.0
C      1  0.4115260000000  0.4888900000000  0.5480020000000 1.0
C      1  0.4926110000000  0.6036270000000  0.5611360000000 1.0
C      1  0.5070310000000  0.6334860000000  0.5263020000000 1.0
C      1  0.5003900000000  0.5611650000000  0.4420620000000 1.0
C      1  0.4627180000000  0.4777780000000  0.5695180000000 1.0
C      1  0.5729160000000  0.4307530000000  0.5448410000000 1.0
C      1  0.3978210000000  0.4445510000000  0.5590950000000 1.0
C      1  0.4042000000000  0.5910560000000  0.5084120000000 1.0
C      1  0.5487600000000  0.4187380000000  0.6136010000000 1.0
C      1  0.5061980000000  0.6493670000000  0.5726890000000 1.0
C      1  0.4078240000000  0.4788790000000  0.4722680000000 1.0
C      1  0.5540110000000  0.4086810000000  0.5483780000000 1.0
C      1  0.4796270000000  0.4983650000000  0.4496040000000 1.0
C      1  0.4258010000000  0.5920240000000  0.5719710000000 1.0
C      1  0.6218080000000  0.5373810000000  0.5267000000000 1.0
C      1  0.4505610000000  0.5818090000000  0.5670960000000 1.0
C      1  0.5237000000000  0.4355730000000  0.5757630000000 1.0
C      1  0.3597570000000  0.5397970000000  0.4614420000000 1.0
C      1  0.5719430000000  0.4402320000000  0.4540570000000 1.0
END
