TITL C-599895-9959-817 3.53168786682773e-06 125000 -546.20602797309 0 0 90 (C1) n - 1
REM
REM in /home/nfs/bkarasulu/CARBON/AIRSS/Generating-Clusters/TERSOFF/Only-C1/FIRE-HFTN
REM
REM
REM
REM
REM
REM ./C.cell (11c1c37f851c82e70ff6c80c92926a4b)
REM AIRSS Version 0.9.1 bugfix July 2018 build 013d7b7c2542+ Fri, 06 Jul 2018 19:26:36 +0100
REM compiler GCC version 9.2.1 20190827 (Red Hat 9.2.1-1)
REM options -cpp -mtune=generic -march=x86-64 -g -O0 -fpre-include=/usr/include/finclude/math-vector-fortran.h
REM seed -556747585 1104293332 -258240890 2062079281 1793174091 1648884240 1269047749 1788013962 596846951 2064129027 -2001434380 -789021728 -318853541 -1963706089 -1665376254 909226636 -1532556969 1273908247 1185724614 2085101243 953938900 -2125150063 -1493758299 -1360052270 473510433 -1998595326 1032346205 -1066252113 2041950203 604561936 -446990515 629103350 1547636895
REM
CELL 1.54180   50.00000   50.00000   50.00000   90.00000   90.00000   90.00000
LATT -1
SFAC C  
C      1  0.5548710000000  0.5105440000000  0.3756380000000 1.0
C      1  0.4493890000000  0.4493520000000  0.4368370000000 1.0
C      1  0.4669280000000  0.4080070000000  0.4914830000000 1.0
C      1  0.4846760000000  0.4146290000000  0.5134440000000 1.0
C      1  0.4332970000000  0.5300640000000  0.4554390000000 1.0
C      1  0.4642700000000  0.4662990000000  0.5065930000000 1.0
C      1  0.5144760000000  0.5266730000000  0.5108440000000 1.0
C      1  0.4469220000000  0.4702350000000  0.4202300000000 1.0
C      1  0.4904650000000  0.5109290000000  0.5639620000000 1.0
C      1  0.4633380000000  0.4452890000000  0.4607690000000 1.0
C      1  0.4927800000000  0.4239070000000  0.5599930000000 1.0
C      1  0.5111590000000  0.4221280000000  0.5005150000000 1.0
C      1  0.6272120000000  0.4960550000000  0.4374050000000 1.0
C      1  0.5318200000000  0.4738490000000  0.3994260000000 1.0
C      1  0.5845600000000  0.4630820000000  0.5530890000000 1.0
C      1  0.5443360000000  0.5344560000000  0.4139660000000 1.0
C      1  0.5204820000000  0.5425360000000  0.4263590000000 1.0
C      1  0.4485470000000  0.5193340000000  0.4322790000000 1.0
C      1  0.4917940000000  0.4803730000000  0.6041840000000 1.0
C      1  0.4444740000000  0.5573970000000  0.4613820000000 1.0
C      1  0.4732680000000  0.4237410000000  0.5380980000000 1.0
C      1  0.5404550000000  0.4708950000000  0.5614050000000 1.0
C      1  0.5025630000000  0.5227980000000  0.5373210000000 1.0
C      1  0.4307060000000  0.5455850000000  0.5941670000000 1.0
C      1  0.4761450000000  0.4602390000000  0.5924210000000 1.0
C      1  0.4730910000000  0.5698930000000  0.4999070000000 1.0
C      1  0.4391820000000  0.4564760000000  0.5161360000000 1.0
C      1  0.4170750000000  0.5469920000000  0.5709680000000 1.0
C      1  0.4476250000000  0.5695100000000  0.4868590000000 1.0
C      1  0.4889100000000  0.4968650000000  0.4183750000000 1.0
C      1  0.4800140000000  0.4776610000000  0.5271970000000 1.0
C      1  0.5624830000000  0.5009940000000  0.4695110000000 1.0
C      1  0.5720430000000  0.5495030000000  0.4884830000000 1.0
C      1  0.4594580000000  0.4951870000000  0.4203490000000 1.0
C      1  0.4152730000000  0.4977350000000  0.5308160000000 1.0
C      1  0.5550300000000  0.5583850000000  0.5384630000000 1.0
C      1  0.4523900000000  0.5588540000000  0.5407460000000 1.0
C      1  0.4194150000000  0.4773010000000  0.5108430000000 1.0
C      1  0.5171820000000  0.4898580000000  0.4674380000000 1.0
C      1  0.4714470000000  0.5380940000000  0.4298890000000 1.0
C      1  0.4717000000000  0.4881750000000  0.5531320000000 1.0
C      1  0.5051040000000  0.5155530000000  0.4629660000000 1.0
C      1  0.4279700000000  0.5447880000000  0.5450010000000 1.0
C      1  0.5313680000000  0.4809870000000  0.5367720000000 1.0
C      1  0.5334480000000  0.4867150000000  0.5829530000000 1.0
C      1  0.4172630000000  0.5260540000000  0.5265450000000 1.0
C      1  0.4763500000000  0.5315630000000  0.5806230000000 1.0
C      1  0.5665980000000  0.5632480000000  0.5128070000000 1.0
C      1  0.5590470000000  0.4501220000000  0.5532070000000 1.0
C      1  0.4677570000000  0.5622680000000  0.4441730000000 1.0
C      1  0.4166280000000  0.4887170000000  0.4839090000000 1.0
C      1  0.4568490000000  0.5400090000000  0.5967800000000 1.0
C      1  0.5073880000000  0.4743070000000  0.5252150000000 1.0
C      1  0.5421610000000  0.4315440000000  0.5377270000000 1.0
C      1  0.5065280000000  0.4783270000000  0.4072080000000 1.0
C      1  0.5417180000000  0.5189060000000  0.5080790000000 1.0
C      1  0.4670020000000  0.4927620000000  0.4688970000000 1.0
C      1  0.5030600000000  0.5341860000000  0.4857030000000 1.0
C      1  0.5740680000000  0.5029830000000  0.4437290000000 1.0
C      1  0.5830100000000  0.5157800000000  0.5577040000000 1.0
C      1  0.4401650000000  0.4511200000000  0.5628160000000 1.0
C      1  0.5075040000000  0.4964880000000  0.5866030000000 1.0
C      1  0.4760660000000  0.4211830000000  0.4674050000000 1.0
C      1  0.5577680000000  0.5089220000000  0.4214870000000 1.0
C      1  0.5488220000000  0.5358570000000  0.3852590000000 1.0
C      1  0.5428530000000  0.4798590000000  0.4748580000000 1.0
C      1  0.5047810000000  0.4218820000000  0.4718860000000 1.0
C      1  0.5536360000000  0.4914600000000  0.3976120000000 1.0
C      1  0.4757430000000  0.5687110000000  0.5281170000000 1.0
C      1  0.4863860000000  0.4347380000000  0.5854340000000 1.0
C      1  0.4940870000000  0.5611820000000  0.4826780000000 1.0
C      1  0.5203540000000  0.4201530000000  0.5529870000000 1.0
C      1  0.4190260000000  0.5167660000000  0.4767170000000 1.0
C      1  0.5903870000000  0.4896890000000  0.5560240000000 1.0
C      1  0.5873550000000  0.5602660000000  0.4687030000000 1.0
C      1  0.4981020000000  0.5226710000000  0.4328880000000 1.0
C      1  0.4126780000000  0.5331400000000  0.4994220000000 1.0
C      1  0.5353140000000  0.4354220000000  0.5092150000000 1.0
C      1  0.4585290000000  0.4704080000000  0.5722450000000 1.0
C      1  0.4666930000000  0.4674990000000  0.4786690000000 1.0
C      1  0.5152830000000  0.5678300000000  0.4387850000000 1.0
C      1  0.5688140000000  0.5386280000000  0.5540970000000 1.0
C      1  0.4926030000000  0.5709790000000  0.4557820000000 1.0
C      1  0.5285010000000  0.5683710000000  0.5433230000000 1.0
C      1  0.4466760000000  0.4384150000000  0.5381720000000 1.0
C      1  0.5452900000000  0.4560890000000  0.4911250000000 1.0
C      1  0.6015040000000  0.4990600000000  0.4404280000000 1.0
C      1  0.5018260000000  0.5724550000000  0.5396540000000 1.0
C      1  0.5597570000000  0.5239300000000  0.4867800000000 1.0
C      1  0.5489310000000  0.4981260000000  0.5244690000000 1.0
END
