TITL C-599892-9790-460 0.00326096864865216 125000 -988.442918094381 0 0 161 (C1) n - 1
REM
REM in /home/nfs/bkarasulu/CARBON/AIRSS/Generating-Clusters/TERSOFF/Only-C1/FIRE-HFTN
REM
REM
REM
REM
REM
REM ./C.cell (11c1c37f851c82e70ff6c80c92926a4b)
REM AIRSS Version 0.9.1 bugfix July 2018 build 013d7b7c2542+ Fri, 06 Jul 2018 19:26:36 +0100
REM compiler GCC version 9.2.1 20190827 (Red Hat 9.2.1-1)
REM options -cpp -mtune=generic -march=x86-64 -g -O0 -fpre-include=/usr/include/finclude/math-vector-fortran.h
REM seed 1160981771 2132021003 -2061150996 1692189686 -1492798970 -1543749083 -1015440587 606529063 -249753738 -639540442 195077982 -119668855 1449027434 -1422861004 1564171350 1569127402 -28924468 -567040381 881704502 1609916807 -1224043966 -384254273 -103429083 -675535023 -2098380830 -1482271334 656922433 -1822052455 1989698882 264509477 -808031837 -783082024 1145530804
REM
CELL 1.54180   50.00000   50.00000   50.00000   90.00000   90.00000   90.00000
LATT -1
SFAC C  
C      1  0.5528360000000  0.4614260000000  0.5391060000000 1.0
C      1  0.3872510000000  0.4711480000000  0.5311020000000 1.0
C      1  0.4307710000000  0.5205830000000  0.5907100000000 1.0
C      1  0.5832500000000  0.4058470000000  0.4698510000000 1.0
C      1  0.5685920000000  0.4727180000000  0.6034560000000 1.0
C      1  0.4500640000000  0.5319250000000  0.4918290000000 1.0
C      1  0.4558350000000  0.3838990000000  0.5298870000000 1.0
C      1  0.4656530000000  0.5207850000000  0.5467690000000 1.0
C      1  0.4840470000000  0.4687320000000  0.4073510000000 1.0
C      1  0.3953610000000  0.5142770000000  0.4527130000000 1.0
C      1  0.4652750000000  0.4439050000000  0.4691070000000 1.0
C      1  0.5855490000000  0.5455330000000  0.4907090000000 1.0
C      1  0.5877960000000  0.5324170000000  0.4219260000000 1.0
C      1  0.6008680000000  0.5173300000000  0.5457270000000 1.0
C      1  0.4257190000000  0.5634740000000  0.5714990000000 1.0
C      1  0.5330970000000  0.5040440000000  0.5044060000000 1.0
C      1  0.5113550000000  0.5519860000000  0.5811360000000 1.0
C      1  0.5206170000000  0.5843500000000  0.4695780000000 1.0
C      1  0.4351440000000  0.4790610000000  0.3887020000000 1.0
C      1  0.5411570000000  0.4534650000000  0.4923760000000 1.0
C      1  0.5893280000000  0.5617900000000  0.4663880000000 1.0
C      1  0.5089540000000  0.4285170000000  0.4295150000000 1.0
C      1  0.4630610000000  0.3924980000000  0.5038930000000 1.0
C      1  0.4638780000000  0.4221290000000  0.5615810000000 1.0
C      1  0.4403690000000  0.5045090000000  0.4969510000000 1.0
C      1  0.4328660000000  0.5810460000000  0.5487400000000 1.0
C      1  0.5692370000000  0.5284190000000  0.3999730000000 1.0
C      1  0.4745270000000  0.4829650000000  0.4307440000000 1.0
C      1  0.4418410000000  0.5048140000000  0.3830470000000 1.0
C      1  0.5665940000000  0.4909610000000  0.5821250000000 1.0
C      1  0.3845240000000  0.5591530000000  0.4709020000000 1.0
C      1  0.5372380000000  0.3954340000000  0.5198790000000 1.0
C      1  0.4607160000000  0.4855880000000  0.4996000000000 1.0
C      1  0.5073340000000  0.5124230000000  0.3921830000000 1.0
C      1  0.5271080000000  0.4504380000000  0.4331170000000 1.0
C      1  0.4247840000000  0.5912820000000  0.4968950000000 1.0
C      1  0.5372960000000  0.4489580000000  0.5199060000000 1.0
C      1  0.4505990000000  0.5971550000000  0.4551910000000 1.0
C      1  0.5760200000000  0.5299200000000  0.5551180000000 1.0
C      1  0.5294650000000  0.4435590000000  0.5993130000000 1.0
C      1  0.5681120000000  0.5580730000000  0.5114440000000 1.0
C      1  0.5217880000000  0.5326890000000  0.4064010000000 1.0
C      1  0.5265670000000  0.4786720000000  0.4333480000000 1.0
C      1  0.4667090000000  0.5590470000000  0.4268160000000 1.0
C      1  0.5077180000000  0.3987300000000  0.4754620000000 1.0
C      1  0.4023720000000  0.4214140000000  0.4708220000000 1.0
C      1  0.4793860000000  0.4450170000000  0.5655950000000 1.0
C      1  0.4329820000000  0.5478090000000  0.5110220000000 1.0
C      1  0.5583720000000  0.5444860000000  0.5353240000000 1.0
C      1  0.5115210000000  0.5021020000000  0.5658150000000 1.0
C      1  0.5399570000000  0.5104010000000  0.4773170000000 1.0
C      1  0.4605210000000  0.5376730000000  0.4443460000000 1.0
C      1  0.5527430000000  0.5313580000000  0.6033150000000 1.0
C      1  0.5222680000000  0.4179870000000  0.5883460000000 1.0
C      1  0.5787390000000  0.5871680000000  0.4750330000000 1.0
C      1  0.4412360000000  0.5192900000000  0.4348740000000 1.0
C      1  0.4308240000000  0.5750110000000  0.5197980000000 1.0
C      1  0.5117680000000  0.4412660000000  0.5291720000000 1.0
C      1  0.4485950000000  0.5631480000000  0.5917810000000 1.0
C      1  0.4914110000000  0.3919900000000  0.4979690000000 1.0
C      1  0.5307880000000  0.4029000000000  0.5675960000000 1.0
C      1  0.6696980000000  0.4803080000000  0.4335640000000 1.0
C      1  0.5612300000000  0.5841030000000  0.4978630000000 1.0
C      1  0.5289480000000  0.5330170000000  0.4623810000000 1.0
C      1  0.5087540000000  0.3878340000000  0.5212520000000 1.0
C      1  0.4825860000000  0.5429370000000  0.5386850000000 1.0
C      1  0.5603720000000  0.4918410000000  0.4687150000000 1.0
C      1  0.6451610000000  0.4890490000000  0.4346150000000 1.0
C      1  0.5909800000000  0.5542500000000  0.4394480000000 1.0
C      1  0.5335510000000  0.6241050000000  0.5356500000000 1.0
C      1  0.4675320000000  0.5835290000000  0.5842120000000 1.0
C      1  0.5720140000000  0.4279760000000  0.5830720000000 1.0
C      1  0.5298250000000  0.5388250000000  0.5377440000000 1.0
C      1  0.4884400000000  0.5704950000000  0.5478230000000 1.0
C      1  0.5642470000000  0.4667020000000  0.4820140000000 1.0
C      1  0.4925610000000  0.4491780000000  0.4688840000000 1.0
C      1  0.5573690000000  0.3958280000000  0.4688550000000 1.0
C      1  0.4478210000000  0.4917210000000  0.4367280000000 1.0
C      1  0.5038500000000  0.4859610000000  0.5426470000000 1.0
C      1  0.4461750000000  0.4314410000000  0.4500670000000 1.0
C      1  0.6045420000000  0.4888840000000  0.5428740000000 1.0
C      1  0.3794660000000  0.5323620000000  0.4680490000000 1.0
C      1  0.4698270000000  0.5307090000000  0.4699540000000 1.0
C      1  0.4628380000000  0.6159700000000  0.4726310000000 1.0
C      1  0.5223720000000  0.5327600000000  0.4347560000000 1.0
C      1  0.3935720000000  0.4698020000000  0.5570950000000 1.0
C      1  0.4767850000000  0.6048220000000  0.4925110000000 1.0
C      1  0.4109950000000  0.5304070000000  0.5187850000000 1.0
C      1  0.4836070000000  0.4532380000000  0.5921690000000 1.0
C      1  0.5188050000000  0.5556390000000  0.4758450000000 1.0
C      1  0.4969780000000  0.4873190000000  0.3897130000000 1.0
C      1  0.4562000000000  0.3983120000000  0.5525100000000 1.0
C      1  0.6035660000000  0.4617800000000  0.5408020000000 1.0
C      1  0.5457140000000  0.5438200000000  0.3951500000000 1.0
C      1  0.4962980000000  0.4577650000000  0.5459640000000 1.0
C      1  0.3884980000000  0.4436830000000  0.4768280000000 1.0
C      1  0.4971510000000  0.4925120000000  0.4462360000000 1.0
C      1  0.4512820000000  0.4962020000000  0.5544710000000 1.0
C      1  0.4888510000000  0.5078180000000  0.4699710000000 1.0
C      1  0.4139270000000  0.5040390000000  0.5084600000000 1.0
C      1  0.5585020000000  0.4783640000000  0.5584980000000 1.0
C      1  0.5906990000000  0.4560140000000  0.4823210000000 1.0
C      1  0.4531020000000  0.5980840000000  0.5621710000000 1.0
C      1  0.4895530000000  0.4402830000000  0.4111520000000 1.0
C      1  0.5408630000000  0.3966220000000  0.4913900000000 1.0
C      1  0.5055730000000  0.5400540000000  0.5208360000000 1.0
C      1  0.4259930000000  0.4777520000000  0.4477920000000 1.0
C      1  0.5295750000000  0.5275310000000  0.6174690000000 1.0
C      1  0.4543570000000  0.4617770000000  0.5134020000000 1.0
C      1  0.5229330000000  0.6032590000000  0.5205800000000 1.0
C      1  0.5199600000000  0.5301600000000  0.5638280000000 1.0
C      1  0.4123920000000  0.5392150000000  0.5781890000000 1.0
C      1  0.6223260000000  0.5337230000000  0.5403540000000 1.0
C      1  0.3958250000000  0.4824660000000  0.5068950000000 1.0
C      1  0.5946560000000  0.4292080000000  0.4754540000000 1.0
C      1  0.5094390000000  0.4922040000000  0.5930440000000 1.0
C      1  0.6122520000000  0.4719940000000  0.4876790000000 1.0
C      1  0.4054120000000  0.5718890000000  0.4558810000000 1.0
C      1  0.4516840000000  0.5300050000000  0.3859630000000 1.0
C      1  0.5436830000000  0.6431200000000  0.5503060000000 1.0
C      1  0.5088660000000  0.4641590000000  0.5990400000000 1.0
C      1  0.5419120000000  0.3955610000000  0.4447700000000 1.0
C      1  0.4616650000000  0.5514830000000  0.3996040000000 1.0
C      1  0.5009690000000  0.5556300000000  0.4976840000000 1.0
C      1  0.5601240000000  0.5005250000000  0.3984450000000 1.0
C      1  0.5078190000000  0.4945750000000  0.5143810000000 1.0
C      1  0.4550430000000  0.4393600000000  0.4965390000000 1.0
C      1  0.4536050000000  0.5357130000000  0.6019310000000 1.0
C      1  0.5145470000000  0.4057450000000  0.4471370000000 1.0
C      1  0.3915740000000  0.4714490000000  0.4808900000000 1.0
C      1  0.4330220000000  0.4964610000000  0.5766720000000 1.0
C      1  0.5708750000000  0.4938050000000  0.4431550000000 1.0
C      1  0.5048840000000  0.5138070000000  0.6117740000000 1.0
C      1  0.6201140000000  0.4975460000000  0.4361770000000 1.0
C      1  0.4341390000000  0.4556150000000  0.4025500000000 1.0
C      1  0.4500330000000  0.4714900000000  0.5397250000000 1.0
C      1  0.4781410000000  0.5251100000000  0.6123180000000 1.0
C      1  0.4724510000000  0.5836940000000  0.4403070000000 1.0
C      1  0.5579750000000  0.4467110000000  0.5998330000000 1.0
C      1  0.4390410000000  0.4388620000000  0.4235030000000 1.0
C      1  0.4112350000000  0.4785780000000  0.5752690000000 1.0
C      1  0.4871270000000  0.4938450000000  0.4948550000000 1.0
C      1  0.5511330000000  0.4894240000000  0.4230230000000 1.0
C      1  0.5177390000000  0.4507280000000  0.4773270000000 1.0
C      1  0.4876700000000  0.5815210000000  0.5034150000000 1.0
C      1  0.4142520000000  0.5281680000000  0.4351770000000 1.0
C      1  0.5928830000000  0.4366430000000  0.5411950000000 1.0
C      1  0.5347650000000  0.5949940000000  0.4948100000000 1.0
C      1  0.5668130000000  0.5196140000000  0.5813500000000 1.0
C      1  0.5001280000000  0.5904930000000  0.4494400000000 1.0
C      1  0.4296660000000  0.4145160000000  0.4684010000000 1.0
C      1  0.5942260000000  0.5073640000000  0.4347850000000 1.0
C      1  0.4924970000000  0.5726710000000  0.5758940000000 1.0
C      1  0.4015750000000  0.4869970000000  0.4590130000000 1.0
C      1  0.4258320000000  0.5877590000000  0.4677830000000 1.0
C      1  0.5495050000000  0.4046430000000  0.5453990000000 1.0
C      1  0.4455030000000  0.4120540000000  0.4932350000000 1.0
C      1  0.5554060000000  0.5020790000000  0.5200130000000 1.0
C      1  0.5734820000000  0.4204100000000  0.5548310000000 1.0
C      1  0.4106340000000  0.5563840000000  0.4325770000000 1.0
C      1  0.4996070000000  0.5884510000000  0.5289770000000 1.0
END
