TITL C-599896-8500-948 0.000302010322629765 125000 -958.377846919822 0 0 154 (C1) n - 1
REM
REM in /home/nfs/bkarasulu/CARBON/AIRSS/Generating-Clusters/TERSOFF/Only-C1/FIRE-HFTN
REM
REM
REM
REM
REM
REM ./C.cell (11c1c37f851c82e70ff6c80c92926a4b)
REM AIRSS Version 0.9.1 bugfix July 2018 build 013d7b7c2542+ Fri, 06 Jul 2018 19:26:36 +0100
REM compiler GCC version 9.2.1 20190827 (Red Hat 9.2.1-1)
REM options -cpp -mtune=generic -march=x86-64 -g -O0 -fpre-include=/usr/include/finclude/math-vector-fortran.h
REM seed -1957477010 -1241442981 210432836 186868607 377918091 782830197 -326992829 -935040304 1561318855 -1998053065 892218420 712869915 -306220946 266903194 1598064593 -291184945 127509025 -1655785295 -2011563600 1545833594 481590110 1894549437 -1074200396 -379633781 -877321617 -79591566 241881839 -2122647676 -1067763084 1857826192 -371220277 -2010145211 -1902570035
REM
CELL 1.54180   50.00000   50.00000   50.00000   90.00000   90.00000   90.00000
LATT -1
SFAC C  
C      1  0.6157640000000  0.4932010000000  0.5385910000000 1.0
C      1  0.4780840000000  0.4937720000000  0.4567240000000 1.0
C      1  0.5849810000000  0.4887410000000  0.3899070000000 1.0
C      1  0.5296230000000  0.5174600000000  0.4008320000000 1.0
C      1  0.5384500000000  0.5852980000000  0.4561670000000 1.0
C      1  0.4861610000000  0.5188030000000  0.3792850000000 1.0
C      1  0.5428310000000  0.4470750000000  0.5932010000000 1.0
C      1  0.6130630000000  0.5092540000000  0.5140250000000 1.0
C      1  0.5350640000000  0.4993580000000  0.5149120000000 1.0
C      1  0.5528780000000  0.5124050000000  0.5337680000000 1.0
C      1  0.4504400000000  0.5059420000000  0.5884410000000 1.0
C      1  0.5866640000000  0.5288230000000  0.4457490000000 1.0
C      1  0.5599780000000  0.4629230000000  0.4535490000000 1.0
C      1  0.5195480000000  0.3856880000000  0.5543470000000 1.0
C      1  0.5234780000000  0.5479900000000  0.5494540000000 1.0
C      1  0.3927650000000  0.4601660000000  0.4799470000000 1.0
C      1  0.5281350000000  0.4970340000000  0.5800960000000 1.0
C      1  0.3695810000000  0.4738190000000  0.5779670000000 1.0
C      1  0.4525960000000  0.4762150000000  0.5030970000000 1.0
C      1  0.5704330000000  0.5718580000000  0.5827430000000 1.0
C      1  0.4561110000000  0.6030110000000  0.4430410000000 1.0
C      1  0.6237420000000  0.5731910000000  0.5017390000000 1.0
C      1  0.6014500000000  0.5045670000000  0.5619790000000 1.0
C      1  0.4715770000000  0.4240270000000  0.4322690000000 1.0
C      1  0.4374100000000  0.5399310000000  0.4195700000000 1.0
C      1  0.4291520000000  0.4832300000000  0.5177720000000 1.0
C      1  0.5168850000000  0.5900320000000  0.4735240000000 1.0
C      1  0.4937790000000  0.6250080000000  0.4969760000000 1.0
C      1  0.4800080000000  0.5190780000000  0.4494760000000 1.0
C      1  0.5450710000000  0.4015980000000  0.4997780000000 1.0
C      1  0.5168200000000  0.4123370000000  0.4512960000000 1.0
C      1  0.4697410000000  0.5049020000000  0.3971080000000 1.0
C      1  0.5066600000000  0.4160390000000  0.5863750000000 1.0
C      1  0.3797080000000  0.4711990000000  0.5305450000000 1.0
C      1  0.5317560000000  0.5136500000000  0.4271160000000 1.0
C      1  0.4307450000000  0.6034680000000  0.5023070000000 1.0
C      1  0.5017940000000  0.5325150000000  0.5576450000000 1.0
C      1  0.5561440000000  0.4047430000000  0.5278790000000 1.0
C      1  0.4042840000000  0.5174640000000  0.4888410000000 1.0
C      1  0.4556700000000  0.4133010000000  0.5282000000000 1.0
C      1  0.5577600000000  0.4657680000000  0.4241760000000 1.0
C      1  0.4144830000000  0.5073580000000  0.5133590000000 1.0
C      1  0.5162020000000  0.5726800000000  0.4970610000000 1.0
C      1  0.3741710000000  0.5446690000000  0.4644870000000 1.0
C      1  0.4795460000000  0.6130150000000  0.4512630000000 1.0
C      1  0.4558330000000  0.4488840000000  0.4963010000000 1.0
C      1  0.4311050000000  0.5904940000000  0.5280150000000 1.0
C      1  0.5128260000000  0.5215890000000  0.3804360000000 1.0
C      1  0.4773330000000  0.5402950000000  0.5463110000000 1.0
C      1  0.5478290000000  0.5452810000000  0.4792690000000 1.0
C      1  0.5089690000000  0.6144900000000  0.5184830000000 1.0
C      1  0.4113620000000  0.4626810000000  0.4583200000000 1.0
C      1  0.6003180000000  0.5352150000000  0.5270560000000 1.0
C      1  0.5623170000000  0.4580720000000  0.5205310000000 1.0
C      1  0.3860070000000  0.5277290000000  0.4461710000000 1.0
C      1  0.5471270000000  0.5858820000000  0.5849380000000 1.0
C      1  0.5122030000000  0.3803390000000  0.5282480000000 1.0
C      1  0.5255420000000  0.4709030000000  0.5947490000000 1.0
C      1  0.4896030000000  0.5089930000000  0.5059470000000 1.0
C      1  0.4944350000000  0.5611080000000  0.4304010000000 1.0
C      1  0.5030740000000  0.5123190000000  0.5774510000000 1.0
C      1  0.4719170000000  0.4330200000000  0.5138820000000 1.0
C      1  0.3844690000000  0.5393250000000  0.4896200000000 1.0
C      1  0.4565560000000  0.5840890000000  0.5401840000000 1.0
C      1  0.5989450000000  0.5333570000000  0.5586750000000 1.0
C      1  0.4750340000000  0.4878640000000  0.5163270000000 1.0
C      1  0.6106730000000  0.5634160000000  0.5233680000000 1.0
C      1  0.4097520000000  0.5740800000000  0.5360240000000 1.0
C      1  0.5700760000000  0.5356050000000  0.4919330000000 1.0
C      1  0.4435890000000  0.6285940000000  0.5013770000000 1.0
C      1  0.4725280000000  0.3949220000000  0.4693540000000 1.0
C      1  0.4030940000000  0.5485160000000  0.5396390000000 1.0
C      1  0.5271060000000  0.4281290000000  0.4295940000000 1.0
C      1  0.4666680000000  0.5595770000000  0.5292690000000 1.0
C      1  0.4418500000000  0.4323540000000  0.4779330000000 1.0
C      1  0.4689340000000  0.6373410000000  0.5009730000000 1.0
C      1  0.5699440000000  0.5501590000000  0.4363100000000 1.0
C      1  0.4248930000000  0.5044940000000  0.5796700000000 1.0
C      1  0.4963780000000  0.5992940000000  0.5735840000000 1.0
C      1  0.5341550000000  0.4050770000000  0.4742820000000 1.0
C      1  0.4050600000000  0.5102680000000  0.4595810000000 1.0
C      1  0.5382210000000  0.4700760000000  0.5099890000000 1.0
C      1  0.5822770000000  0.4162980000000  0.5251830000000 1.0
C      1  0.5248390000000  0.5755260000000  0.5452740000000 1.0
C      1  0.4724790000000  0.5966820000000  0.5604090000000 1.0
C      1  0.5712370000000  0.5303830000000  0.5199130000000 1.0
C      1  0.6045580000000  0.5773580000000  0.5477480000000 1.0
C      1  0.4325920000000  0.4688780000000  0.5431380000000 1.0
C      1  0.4800300000000  0.4750340000000  0.5414150000000 1.0
C      1  0.4785530000000  0.4776220000000  0.4059170000000 1.0
C      1  0.3842160000000  0.4826370000000  0.5565280000000 1.0
C      1  0.5234660000000  0.5446740000000  0.4937310000000 1.0
C      1  0.5929650000000  0.4448270000000  0.4859510000000 1.0
C      1  0.4874610000000  0.4379400000000  0.5882920000000 1.0
C      1  0.5233140000000  0.5901400000000  0.5697780000000 1.0
C      1  0.4256700000000  0.5900580000000  0.4774200000000 1.0
C      1  0.5423590000000  0.4044750000000  0.5552050000000 1.0
C      1  0.6005600000000  0.4866290000000  0.4623990000000 1.0
C      1  0.4452440000000  0.3938630000000  0.5094200000000 1.0
C      1  0.5566980000000  0.4549590000000  0.5481570000000 1.0
C      1  0.5915570000000  0.5288350000000  0.4749880000000 1.0
C      1  0.4587760000000  0.4127840000000  0.5563760000000 1.0
C      1  0.5910580000000  0.5009940000000  0.4374810000000 1.0
C      1  0.4621320000000  0.3699880000000  0.5071220000000 1.0
C      1  0.4508180000000  0.4432890000000  0.4325840000000 1.0
C      1  0.5381320000000  0.5685550000000  0.4032690000000 1.0
C      1  0.5174510000000  0.4507970000000  0.4992640000000 1.0
C      1  0.4999880000000  0.4268690000000  0.5078670000000 1.0
C      1  0.5054200000000  0.4664880000000  0.5478990000000 1.0
C      1  0.4356680000000  0.4899240000000  0.4252110000000 1.0
C      1  0.5310060000000  0.4538000000000  0.4165090000000 1.0
C      1  0.4844360000000  0.3805720000000  0.4910980000000 1.0
C      1  0.5058420000000  0.4668750000000  0.4074610000000 1.0
C      1  0.5127820000000  0.5689640000000  0.4124560000000 1.0
C      1  0.5624980000000  0.5590530000000  0.4105530000000 1.0
C      1  0.5360720000000  0.4757980000000  0.4625130000000 1.0
C      1  0.4039580000000  0.5035570000000  0.5602290000000 1.0
C      1  0.5289110000000  0.4551340000000  0.5517960000000 1.0
C      1  0.4985130000000  0.4615860000000  0.5999420000000 1.0
C      1  0.4715870000000  0.3900780000000  0.5676990000000 1.0
C      1  0.4469820000000  0.4046930000000  0.4812140000000 1.0
C      1  0.5135230000000  0.4619960000000  0.4730230000000 1.0
C      1  0.4542680000000  0.4677920000000  0.4193600000000 1.0
C      1  0.5353340000000  0.4220430000000  0.5802850000000 1.0
C      1  0.5022050000000  0.3963100000000  0.5073750000000 1.0
C      1  0.4983610000000  0.6115170000000  0.4720080000000 1.0
C      1  0.5779150000000  0.4854420000000  0.4161670000000 1.0
C      1  0.4319520000000  0.4433790000000  0.4543480000000 1.0
C      1  0.5854810000000  0.4627660000000  0.4662140000000 1.0
C      1  0.4824260000000  0.5467160000000  0.4514740000000 1.0
C      1  0.5521880000000  0.5040420000000  0.5626850000000 1.0
C      1  0.5176970000000  0.5875610000000  0.5211740000000 1.0
C      1  0.4889260000000  0.4705560000000  0.4635960000000 1.0
C      1  0.5158340000000  0.5181750000000  0.5035270000000 1.0
C      1  0.4648300000000  0.4381460000000  0.5695100000000 1.0
C      1  0.4166880000000  0.4882440000000  0.4465710000000 1.0
C      1  0.4357180000000  0.5849630000000  0.4510160000000 1.0
C      1  0.5320300000000  0.5010520000000  0.4505860000000 1.0
C      1  0.5776370000000  0.4915320000000  0.5701730000000 1.0
C      1  0.6066160000000  0.5057850000000  0.4848290000000 1.0
C      1  0.4319420000000  0.5617610000000  0.4347170000000 1.0
C      1  0.4457280000000  0.5138910000000  0.4118250000000 1.0
C      1  0.5827220000000  0.4409430000000  0.5113260000000 1.0
C      1  0.4876980000000  0.4086330000000  0.4499400000000 1.0
C      1  0.4578550000000  0.4619020000000  0.5546260000000 1.0
C      1  0.4774890000000  0.5068800000000  0.5892940000000 1.0
C      1  0.3826070000000  0.4632360000000  0.5048350000000 1.0
C      1  0.4068480000000  0.5209300000000  0.5376630000000 1.0
C      1  0.5760210000000  0.4636570000000  0.5666000000000 1.0
C      1  0.5920000000000  0.5606450000000  0.5680770000000 1.0
C      1  0.4660500000000  0.5565150000000  0.5014040000000 1.0
C      1  0.4991090000000  0.3916670000000  0.5734850000000 1.0
C      1  0.4725410000000  0.5571000000000  0.4755980000000 1.0
C      1  0.5527500000000  0.5611710000000  0.4565020000000 1.0
END
