TITL C-599893-4344-44 8.82280015112042 125000 -237.835292573898 0 0 40 (C1) n - 1
REM
REM in /home/nfs/bkarasulu/CARBON/AIRSS/Generating-Clusters/TERSOFF/Only-C1/FIRE-HFTN
REM
REM
REM
REM
REM
REM ./C.cell (11c1c37f851c82e70ff6c80c92926a4b)
REM AIRSS Version 0.9.1 bugfix July 2018 build 013d7b7c2542+ Fri, 06 Jul 2018 19:26:36 +0100
REM compiler GCC version 9.2.1 20190827 (Red Hat 9.2.1-1)
REM options -cpp -mtune=generic -march=x86-64 -g -O0 -fpre-include=/usr/include/finclude/math-vector-fortran.h
REM seed 2133298194 1639698266 1035167589 122969314 1294438329 1725597483 -276914329 -133294588 1692715511 -1257305215 965656134 2113124967 388940531 -293220811 -1883156271 -2085602380 -719433670 -538124409 2095157260 -1622447781 -1882989243 352004811 1320348274 -439244229 -1333607784 175984237 1021928153 -1234579489 1011152787 -265996958 939600581 -203496335 -447676572
REM
CELL 1.54180   50.00000   50.00000   50.00000   90.00000   90.00000   90.00000
LATT -1
SFAC C  
C      1  0.4451520000000  0.4506300000000  0.4884150000000 1.0
C      1  0.6037620000000  0.5351980000000  0.5046910000000 1.0
C      1  0.5649670000000  0.4394820000000  0.5850860000000 1.0
C      1  0.4905870000000  0.4389320000000  0.5746050000000 1.0
C      1  0.5313040000000  0.5143770000000  0.4482830000000 1.0
C      1  0.4538450000000  0.4654750000000  0.4661420000000 1.0
C      1  0.4731040000000  0.4532620000000  0.5278440000000 1.0
C      1  0.4573200000000  0.5883050000000  0.4915090000000 1.0
C      1  0.4741220000000  0.4440770000000  0.5542740000000 1.0
C      1  0.5432780000000  0.4594040000000  0.5457050000000 1.0
C      1  0.5812300000000  0.4945360000000  0.5299770000000 1.0
C      1  0.4317850000000  0.5121900000000  0.4648780000000 1.0
C      1  0.4979020000000  0.4569560000000  0.5135270000000 1.0
C      1  0.4890880000000  0.4907780000000  0.4456280000000 1.0
C      1  0.4821650000000  0.4699270000000  0.4638970000000 1.0
C      1  0.5418800000000  0.4461620000000  0.5709640000000 1.0
C      1  0.4484400000000  0.4594020000000  0.5151610000000 1.0
C      1  0.5938500000000  0.5145340000000  0.5180090000000 1.0
C      1  0.5648630000000  0.4760000000000  0.5394850000000 1.0
C      1  0.4815030000000  0.5981430000000  0.4968160000000 1.0
C      1  0.4234760000000  0.5216530000000  0.4904930000000 1.0
C      1  0.5253780000000  0.4792970000000  0.4158740000000 1.0
C      1  0.4527490000000  0.5553270000000  0.4559080000000 1.0
C      1  0.4976400000000  0.4617290000000  0.4857690000000 1.0
C      1  0.4221360000000  0.5036500000000  0.5119960000000 1.0
C      1  0.5868470000000  0.4335780000000  0.5979540000000 1.0
C      1  0.5222950000000  0.4566630000000  0.5272980000000 1.0
C      1  0.4322380000000  0.4812040000000  0.5225970000000 1.0
C      1  0.5391820000000  0.5588710000000  0.4747340000000 1.0
C      1  0.5078330000000  0.5946990000000  0.4949020000000 1.0
C      1  0.4514770000000  0.5281190000000  0.4498000000000 1.0
C      1  0.4682620000000  0.5084540000000  0.4399440000000 1.0
C      1  0.4259950000000  0.5496860000000  0.4943740000000 1.0
C      1  0.5155150000000  0.4945930000000  0.4362790000000 1.0
C      1  0.4436300000000  0.5668360000000  0.4802580000000 1.0
C      1  0.5284530000000  0.5800180000000  0.4867290000000 1.0
C      1  0.5164720000000  0.4397340000000  0.5809670000000 1.0
C      1  0.5395760000000  0.5359430000000  0.4613410000000 1.0
C      1  0.4383230000000  0.4864540000000  0.4567660000000 1.0
C      1  0.6123760000000  0.5557220000000  0.4911190000000 1.0
END
