TITL C-599894-471-532 105609.146508529 125000 -1178.57341315998 0 0 194 (C1) n - 1
REM
REM in /home/nfs/bkarasulu/CARBON/AIRSS/Generating-Clusters/TERSOFF/Only-C1/FIRE-HFTN
REM
REM
REM
REM
REM
REM ./C.cell (11c1c37f851c82e70ff6c80c92926a4b)
REM AIRSS Version 0.9.1 bugfix July 2018 build 013d7b7c2542+ Fri, 06 Jul 2018 19:26:36 +0100
REM compiler GCC version 9.2.1 20190827 (Red Hat 9.2.1-1)
REM options -cpp -mtune=generic -march=x86-64 -g -O0 -fpre-include=/usr/include/finclude/math-vector-fortran.h
REM seed 753765553 445954354 743191621 -690753690 -342826269 388340126 427458006 -2124137268 392914191 -436682660 -1325407097 839764631 -1218845258 1681916062 969422952 -737576955 1603424988 1038796617 -246335965 -2100563889 2023045027 405831600 -1104283676 1836623844 -1639406272 998160520 -275007393 -1309213169 -390691014 1900757186 -1003019604 83318711 2055481412
REM
CELL 1.54180   50.00000   50.00000   50.00000   90.00000   90.00000   90.00000
LATT -1
SFAC C  
C      1  0.4361820000000  0.5024880000000  0.4736920000000 1.0
C      1  0.6245640000000  0.5969070000000  0.6187180000000 1.0
C      1  0.4565190000000  0.4491870000000  0.4070150000000 1.0
C      1  0.3802050000000  0.4732990000000  0.4720440000000 1.0
C      1  0.5037190000000  0.5192000000000  0.6034500000000 1.0
C      1  0.4829320000000  0.4435200000000  0.5816240000000 1.0
C      1  0.5293560000000  0.4495340000000  0.5223800000000 1.0
C      1  0.5074000000000  0.5077000000000  0.3757500000000 1.0
C      1  0.6028850000000  0.5683120000000  0.4372510000000 1.0
C      1  0.4049740000000  0.5096020000000  0.3924100000000 1.0
C      1  0.3735650000000  0.4923660000000  0.4919460000000 1.0
C      1  0.5797650000000  0.4055400000000  0.4728860000000 1.0
C      1  0.4632640000000  0.3212390000000  0.4892530000000 1.0
C      1  0.5440150000000  0.5897890000000  0.4507930000000 1.0
C      1  0.4951720000000  0.5656840000000  0.4848670000000 1.0
C      1  0.5509200000000  0.6368930000000  0.5079300000000 1.0
C      1  0.4166390000000  0.5145730000000  0.4199610000000 1.0
C      1  0.4406720000000  0.4655020000000  0.4275120000000 1.0
C      1  0.6042780000000  0.4965010000000  0.4584420000000 1.0
C      1  0.5737830000000  0.4899510000000  0.4069760000000 1.0
C      1  0.5084520000000  0.3758930000000  0.5147410000000 1.0
C      1  0.5344940000000  0.5079620000000  0.3787480000000 1.0
C      1  0.5530130000000  0.4890080000000  0.5461670000000 1.0
C      1  0.4592290000000  0.5793060000000  0.5473240000000 1.0
C      1  0.4163100000000  0.5343280000000  0.5589670000000 1.0
C      1  0.4393740000000  0.4173720000000  0.5529620000000 1.0
C      1  0.5728070000000  0.3817540000000  0.4825610000000 1.0
C      1  0.4426980000000  0.3684250000000  0.4992390000000 1.0
C      1  0.3821900000000  0.5098930000000  0.5346590000000 1.0
C      1  0.5066740000000  0.6088470000000  0.5111510000000 1.0
C      1  0.5259310000000  0.4195880000000  0.3961350000000 1.0
C      1  0.5185240000000  0.4718760000000  0.5075240000000 1.0
C      1  0.5832650000000  0.5891150000000  0.4863960000000 1.0
C      1  0.3880690000000  0.5263250000000  0.4603050000000 1.0
C      1  0.4561310000000  0.4561040000000  0.5800700000000 1.0
C      1  0.5750140000000  0.4311810000000  0.4677510000000 1.0
C      1  0.5007930000000  0.5609790000000  0.5303800000000 1.0
C      1  0.5539230000000  0.5678360000000  0.5977730000000 1.0
C      1  0.6019210000000  0.4996420000000  0.5657940000000 1.0
C      1  0.4920680000000  0.6138300000000  0.5381740000000 1.0
C      1  0.4287870000000  0.5821650000000  0.4540800000000 1.0
C      1  0.4457230000000  0.5799230000000  0.4769990000000 1.0
C      1  0.5221070000000  0.5424410000000  0.4258300000000 1.0
C      1  0.4379790000000  0.4458100000000  0.5603330000000 1.0
C      1  0.6279410000000  0.4234760000000  0.5350530000000 1.0
C      1  0.6336850000000  0.4482910000000  0.5254260000000 1.0
C      1  0.5712210000000  0.5465970000000  0.4675300000000 1.0
C      1  0.5468400000000  0.5346210000000  0.5629200000000 1.0
C      1  0.4861030000000  0.5613580000000  0.6177030000000 1.0
C      1  0.3818050000000  0.5210000000000  0.4879640000000 1.0
C      1  0.4117120000000  0.5792960000000  0.5255340000000 1.0
C      1  0.5026350000000  0.5464310000000  0.4053440000000 1.0
C      1  0.4665950000000  0.5265310000000  0.5651850000000 1.0
C      1  0.5618550000000  0.4540620000000  0.4643170000000 1.0
C      1  0.5656910000000  0.5417530000000  0.5241690000000 1.0
C      1  0.4956000000000  0.3868390000000  0.5966510000000 1.0
C      1  0.4048230000000  0.5075950000000  0.5516660000000 1.0
C      1  0.6008450000000  0.4718350000000  0.4430940000000 1.0
C      1  0.3819690000000  0.4117150000000  0.4703500000000 1.0
C      1  0.4638080000000  0.5038550000000  0.3992830000000 1.0
C      1  0.4110080000000  0.4594550000000  0.4319500000000 1.0
C      1  0.6140710000000  0.4678190000000  0.5202770000000 1.0
C      1  0.5587880000000  0.5099340000000  0.5670700000000 1.0
C      1  0.5917430000000  0.5918300000000  0.4304590000000 1.0
C      1  0.4923010000000  0.4002530000000  0.4240180000000 1.0
C      1  0.5350570000000  0.6186480000000  0.5199230000000 1.0
C      1  0.5300030000000  0.4201810000000  0.6149500000000 1.0
C      1  0.5115240000000  0.5773250000000  0.5065990000000 1.0
C      1  0.4920170000000  0.3966740000000  0.5167460000000 1.0
C      1  0.4842180000000  0.4440890000000  0.4019650000000 1.0
C      1  0.5253730000000  0.4492740000000  0.5512840000000 1.0
C      1  0.4515630000000  0.3438070000000  0.4950360000000 1.0
C      1  0.6037140000000  0.5798770000000  0.5016950000000 1.0
C      1  0.4155100000000  0.5454840000000  0.4262020000000 1.0
C      1  0.3564270000000  0.4088780000000  0.4747370000000 1.0
C      1  0.5176850000000  0.3973940000000  0.6075460000000 1.0
C      1  0.5936750000000  0.5450380000000  0.4500490000000 1.0
C      1  0.4008330000000  0.5759790000000  0.4587520000000 1.0
C      1  0.4515750000000  0.3992450000000  0.5709740000000 1.0
C      1  0.6019580000000  0.4167220000000  0.5397190000000 1.0
C      1  0.6009620000000  0.4995900000000  0.4877750000000 1.0
C      1  0.4717980000000  0.3882000000000  0.5845300000000 1.0
C      1  0.5274070000000  0.6375340000000  0.4508020000000 1.0
C      1  0.5131710000000  0.5337190000000  0.5288430000000 1.0
C      1  0.5017750000000  0.4951300000000  0.5643640000000 1.0
C      1  0.4614190000000  0.5656860000000  0.4199820000000 1.0
C      1  0.5699800000000  0.4423200000000  0.4121730000000 1.0
C      1  0.5476270000000  0.4888960000000  0.3950180000000 1.0
C      1  0.5771370000000  0.4947140000000  0.5829990000000 1.0
C      1  0.5573620000000  0.5209720000000  0.4778660000000 1.0
C      1  0.4744350000000  0.4839020000000  0.4578630000000 1.0
C      1  0.5431700000000  0.4749540000000  0.4624890000000 1.0
C      1  0.5047820000000  0.4420320000000  0.4729320000000 1.0
C      1  0.4265470000000  0.4917170000000  0.5419720000000 1.0
C      1  0.4579730000000  0.4600620000000  0.4531120000000 1.0
C      1  0.4907080000000  0.5165530000000  0.5777690000000 1.0
C      1  0.4049650000000  0.5521240000000  0.5346020000000 1.0
C      1  0.5433760000000  0.4407930000000  0.4022920000000 1.0
C      1  0.4715030000000  0.5729920000000  0.5983900000000 1.0
C      1  0.4534790000000  0.6108290000000  0.5102440000000 1.0
C      1  0.4315310000000  0.5415640000000  0.4966140000000 1.0
C      1  0.4877420000000  0.5768770000000  0.4604960000000 1.0
C      1  0.5212980000000  0.6112060000000  0.4557790000000 1.0
C      1  0.4834230000000  0.4229730000000  0.5129530000000 1.0
C      1  0.5298510000000  0.5337400000000  0.4862420000000 1.0
C      1  0.5672210000000  0.4838200000000  0.5211720000000 1.0
C      1  0.5821600000000  0.4346340000000  0.5344460000000 1.0
C      1  0.4342550000000  0.5679530000000  0.4279340000000 1.0
C      1  0.5401500000000  0.4273310000000  0.5106550000000 1.0
C      1  0.5100740000000  0.5198470000000  0.4690610000000 1.0
C      1  0.5858950000000  0.4607190000000  0.5238950000000 1.0
C      1  0.3991660000000  0.4393220000000  0.4176020000000 1.0
C      1  0.4505970000000  0.5618110000000  0.4991750000000 1.0
C      1  0.5403560000000  0.5320930000000  0.5347850000000 1.0
C      1  0.4940350000000  0.6046410000000  0.4642510000000 1.0
C      1  0.5255270000000  0.5194150000000  0.4431010000000 1.0
C      1  0.5445250000000  0.4660870000000  0.5638590000000 1.0
C      1  0.5549350000000  0.3665060000000  0.4950760000000 1.0
C      1  0.5311750000000  0.3644940000000  0.5069070000000 1.0
C      1  0.6064160000000  0.5122830000000  0.5372940000000 1.0
C      1  0.5479270000000  0.5026250000000  0.4535050000000 1.0
C      1  0.4259010000000  0.5999400000000  0.5132620000000 1.0
C      1  0.5994870000000  0.5192420000000  0.4405860000000 1.0
C      1  0.5538550000000  0.5814870000000  0.5474650000000 1.0
C      1  0.4932260000000  0.5140140000000  0.5245910000000 1.0
C      1  0.5341040000000  0.5665660000000  0.4341980000000 1.0
C      1  0.4384640000000  0.3961850000000  0.5005440000000 1.0
C      1  0.4378440000000  0.4113220000000  0.4729860000000 1.0
C      1  0.4821210000000  0.4418240000000  0.5339600000000 1.0
C      1  0.5338980000000  0.4737260000000  0.6108490000000 1.0
C      1  0.5674750000000  0.6022390000000  0.4358800000000 1.0
C      1  0.5525800000000  0.5621060000000  0.5700130000000 1.0
C      1  0.4963120000000  0.4865350000000  0.5186980000000 1.0
C      1  0.4668070000000  0.3915490000000  0.4310700000000 1.0
C      1  0.4805930000000  0.4341820000000  0.4867230000000 1.0
C      1  0.3947460000000  0.5506410000000  0.4474350000000 1.0
C      1  0.4347900000000  0.5142420000000  0.4986660000000 1.0
C      1  0.4750630000000  0.5745920000000  0.5709510000000 1.0
C      1  0.6095520000000  0.5589050000000  0.5178760000000 1.0
C      1  0.4648750000000  0.6059320000000  0.5362920000000 1.0
C      1  0.4982780000000  0.4410160000000  0.5578000000000 1.0
C      1  0.5564380000000  0.4735620000000  0.5914840000000 1.0
C      1  0.5940020000000  0.5373720000000  0.5284930000000 1.0
C      1  0.4439280000000  0.5070110000000  0.5245240000000 1.0
C      1  0.5009880000000  0.4673120000000  0.3993000000000 1.0
C      1  0.5580680000000  0.5752050000000  0.4751230000000 1.0
C      1  0.4827420000000  0.6143410000000  0.4904500000000 1.0
C      1  0.3953520000000  0.4772390000000  0.4483920000000 1.0
C      1  0.5171470000000  0.4699950000000  0.4771770000000 1.0
C      1  0.4608670000000  0.5301340000000  0.3881300000000 1.0
C      1  0.5016880000000  0.5748810000000  0.5588100000000 1.0
C      1  0.5116620000000  0.6019890000000  0.5567310000000 1.0
C      1  0.4442120000000  0.4979440000000  0.4228910000000 1.0
C      1  0.4760420000000  0.4684490000000  0.5264250000000 1.0
C      1  0.4554080000000  0.5063570000000  0.4511500000000 1.0
C      1  0.3699600000000  0.4888820000000  0.5199720000000 1.0
C      1  0.4198140000000  0.4538450000000  0.5161300000000 1.0
C      1  0.5381990000000  0.6051480000000  0.5462250000000 1.0
C      1  0.4082150000000  0.4148330000000  0.4684160000000 1.0
C      1  0.5994930000000  0.5909620000000  0.6147670000000 1.0
C      1  0.4676220000000  0.5571600000000  0.5261890000000 1.0
C      1  0.5388820000000  0.5679440000000  0.4979100000000 1.0
C      1  0.5723900000000  0.5016050000000  0.4966940000000 1.0
C      1  0.5091670000000  0.4929630000000  0.6141800000000 1.0
C      1  0.5753520000000  0.5820530000000  0.6083970000000 1.0
C      1  0.4337210000000  0.4530220000000  0.4935880000000 1.0
C      1  0.5181720000000  0.4209690000000  0.4601290000000 1.0
C      1  0.4981930000000  0.4188920000000  0.4034700000000 1.0
C      1  0.3871100000000  0.5335770000000  0.5163660000000 1.0
C      1  0.4572610000000  0.4797720000000  0.5987840000000 1.0
C      1  0.5581780000000  0.5694130000000  0.5216140000000 1.0
C      1  0.5085640000000  0.5444860000000  0.6150130000000 1.0
C      1  0.4750140000000  0.5518700000000  0.3992050000000 1.0
C      1  0.4344620000000  0.4079810000000  0.5263220000000 1.0
C      1  0.3974960000000  0.5048320000000  0.4423180000000 1.0
C      1  0.5302880000000  0.4661750000000  0.4003430000000 1.0
C      1  0.4493640000000  0.3951810000000  0.4508280000000 1.0
C      1  0.5839880000000  0.4658730000000  0.4200440000000 1.0
C      1  0.4399440000000  0.5259200000000  0.5767180000000 1.0
C      1  0.5884290000000  0.5128010000000  0.4148970000000 1.0
C      1  0.6149860000000  0.4954440000000  0.5138120000000 1.0
C      1  0.4940580000000  0.4500310000000  0.6069840000000 1.0
C      1  0.4407160000000  0.5031250000000  0.5953230000000 1.0
C      1  0.4746140000000  0.5589630000000  0.4442600000000 1.0
C      1  0.4257520000000  0.4636560000000  0.5416350000000 1.0
C      1  0.5215350000000  0.4468350000000  0.6138900000000 1.0
C      1  0.4984800000000  0.4925630000000  0.4696360000000 1.0
C      1  0.5118240000000  0.4002160000000  0.4444490000000 1.0
C      1  0.5340250000000  0.5562880000000  0.6140120000000 1.0
C      1  0.4835960000000  0.4767610000000  0.6135590000000 1.0
C      1  0.4527810000000  0.4389240000000  0.4752030000000 1.0
C      1  0.4890020000000  0.4919230000000  0.3912670000000 1.0
C      1  0.4663030000000  0.5251580000000  0.5345360000000 1.0
C      1  0.4682470000000  0.5327060000000  0.4520760000000 1.0
END
