TITL C-599892-9790-621 5.34720484482197e-05 125000 -870.862913404556 0 0 142 (C1) n - 1
REM
REM in /home/nfs/bkarasulu/CARBON/AIRSS/Generating-Clusters/TERSOFF/Only-C1/FIRE-HFTN
REM
REM
REM
REM
REM
REM ./C.cell (11c1c37f851c82e70ff6c80c92926a4b)
REM AIRSS Version 0.9.1 bugfix July 2018 build 013d7b7c2542+ Fri, 06 Jul 2018 19:26:36 +0100
REM compiler GCC version 9.2.1 20190827 (Red Hat 9.2.1-1)
REM options -cpp -mtune=generic -march=x86-64 -g -O0 -fpre-include=/usr/include/finclude/math-vector-fortran.h
REM seed -1232623523 -933019745 1401685765 -693973058 -1017280704 -1467318882 -1573851086 -1305230727 560437100 237341435 1441984293 -1487089794 797059078 2032434168 62970219 -1410419924 1828304705 -20706623 -1351227074 -2117279654 31354870 -112017288 -280729764 -1427768011 1785889548 -1992058330 1215140571 -1533611249 32350238 -575713291 1012125820 388960749 12003049
REM
CELL 1.54180   50.00000   50.00000   50.00000   90.00000   90.00000   90.00000
LATT -1
SFAC C  
C      1  0.4027330000000  0.4617870000000  0.4609100000000 1.0
C      1  0.4522040000000  0.4353380000000  0.6097720000000 1.0
C      1  0.5027870000000  0.5316500000000  0.4707670000000 1.0
C      1  0.5227050000000  0.5485740000000  0.3997120000000 1.0
C      1  0.5046470000000  0.4173830000000  0.4380830000000 1.0
C      1  0.5032710000000  0.4580040000000  0.3342920000000 1.0
C      1  0.4730570000000  0.5624610000000  0.4928680000000 1.0
C      1  0.5295020000000  0.6038370000000  0.4102970000000 1.0
C      1  0.4560540000000  0.4183150000000  0.5613660000000 1.0
C      1  0.4068340000000  0.4291370000000  0.5141580000000 1.0
C      1  0.4977110000000  0.3945960000000  0.5713890000000 1.0
C      1  0.4849950000000  0.4851400000000  0.5484270000000 1.0
C      1  0.5103000000000  0.4729710000000  0.3856280000000 1.0
C      1  0.5750220000000  0.5849530000000  0.5337400000000 1.0
C      1  0.4960280000000  0.4487770000000  0.5712120000000 1.0
C      1  0.5476560000000  0.4621730000000  0.4165820000000 1.0
C      1  0.4636150000000  0.5790480000000  0.5378040000000 1.0
C      1  0.4723170000000  0.5908200000000  0.4530100000000 1.0
C      1  0.5485630000000  0.5071430000000  0.3944090000000 1.0
C      1  0.5065580000000  0.4651860000000  0.3591260000000 1.0
C      1  0.4091260000000  0.5141380000000  0.4492000000000 1.0
C      1  0.5730020000000  0.4539230000000  0.5539350000000 1.0
C      1  0.5276690000000  0.5425210000000  0.4641850000000 1.0
C      1  0.5734980000000  0.6084600000000  0.4590860000000 1.0
C      1  0.5967250000000  0.5781000000000  0.4306450000000 1.0
C      1  0.5642150000000  0.4962540000000  0.5788230000000 1.0
C      1  0.5463970000000  0.5033030000000  0.4407010000000 1.0
C      1  0.5053070000000  0.6247830000000  0.4502790000000 1.0
C      1  0.4520330000000  0.5073500000000  0.5279670000000 1.0
C      1  0.5803980000000  0.6024280000000  0.5118610000000 1.0
C      1  0.5244250000000  0.4516970000000  0.6080840000000 1.0
C      1  0.6170330000000  0.5589330000000  0.5464340000000 1.0
C      1  0.5413850000000  0.4120280000000  0.5010920000000 1.0
C      1  0.5442440000000  0.4956020000000  0.4933630000000 1.0
C      1  0.5961510000000  0.5522760000000  0.4381630000000 1.0
C      1  0.4976990000000  0.4523930000000  0.5993270000000 1.0
C      1  0.4574430000000  0.4820710000000  0.6038040000000 1.0
C      1  0.4954480000000  0.4561190000000  0.5049710000000 1.0
C      1  0.5228500000000  0.5202520000000  0.3930500000000 1.0
C      1  0.5524440000000  0.4901380000000  0.4168200000000 1.0
C      1  0.4180750000000  0.4540790000000  0.5051400000000 1.0
C      1  0.4391970000000  0.4827210000000  0.5405190000000 1.0
C      1  0.4802330000000  0.4999100000000  0.4114790000000 1.0
C      1  0.5142060000000  0.5878750000000  0.4793230000000 1.0
C      1  0.5740830000000  0.5949760000000  0.4337520000000 1.0
C      1  0.5824250000000  0.4671150000000  0.5303610000000 1.0
C      1  0.4753760000000  0.5825710000000  0.5617020000000 1.0
C      1  0.4541420000000  0.5696540000000  0.5126900000000 1.0
C      1  0.5529230000000  0.4191030000000  0.4390550000000 1.0
C      1  0.4993810000000  0.5651130000000  0.4057260000000 1.0
C      1  0.4858420000000  0.5819510000000  0.4770910000000 1.0
C      1  0.4888000000000  0.5792920000000  0.5847960000000 1.0
C      1  0.5220690000000  0.4550470000000  0.4048330000000 1.0
C      1  0.6429010000000  0.5563600000000  0.5482460000000 1.0
C      1  0.4038620000000  0.5138990000000  0.5362970000000 1.0
C      1  0.4569940000000  0.5381240000000  0.4257480000000 1.0
C      1  0.5274360000000  0.4786550000000  0.4785280000000 1.0
C      1  0.5331390000000  0.5089820000000  0.5144030000000 1.0
C      1  0.4673130000000  0.5077200000000  0.5957430000000 1.0
C      1  0.5702510000000  0.5393570000000  0.5515020000000 1.0
C      1  0.4073250000000  0.4321880000000  0.4623470000000 1.0
C      1  0.5455240000000  0.4467680000000  0.5898090000000 1.0
C      1  0.5228170000000  0.4039230000000  0.5732150000000 1.0
C      1  0.4281760000000  0.4253910000000  0.5661030000000 1.0
C      1  0.4826560000000  0.3797200000000  0.4954550000000 1.0
C      1  0.4311420000000  0.4714620000000  0.5935160000000 1.0
C      1  0.4828970000000  0.4091350000000  0.4550160000000 1.0
C      1  0.5492700000000  0.5289040000000  0.4511630000000 1.0
C      1  0.5784470000000  0.6101150000000  0.4858020000000 1.0
C      1  0.4385930000000  0.5532420000000  0.4408920000000 1.0
C      1  0.4782620000000  0.5360820000000  0.4841210000000 1.0
C      1  0.5798110000000  0.4540420000000  0.4550040000000 1.0
C      1  0.4637990000000  0.4995300000000  0.4581360000000 1.0
C      1  0.4106400000000  0.5383380000000  0.5492610000000 1.0
C      1  0.5189330000000  0.5399420000000  0.5520320000000 1.0
C      1  0.5840110000000  0.4516230000000  0.4814100000000 1.0
C      1  0.5755570000000  0.5384580000000  0.4480630000000 1.0
C      1  0.4112370000000  0.4236190000000  0.5423600000000 1.0
C      1  0.4108550000000  0.5606930000000  0.5318730000000 1.0
C      1  0.4729620000000  0.5130440000000  0.5491300000000 1.0
C      1  0.5024570000000  0.4993850000000  0.3945250000000 1.0
C      1  0.5762650000000  0.4488480000000  0.5082150000000 1.0
C      1  0.4557430000000  0.4130080000000  0.4498200000000 1.0
C      1  0.5477820000000  0.5619540000000  0.4051260000000 1.0
C      1  0.5428890000000  0.4235370000000  0.5711820000000 1.0
C      1  0.4932460000000  0.5207390000000  0.5912540000000 1.0
C      1  0.4187060000000  0.5407050000000  0.4573570000000 1.0
C      1  0.4302390000000  0.4211130000000  0.4497170000000 1.0
C      1  0.4953260000000  0.3983510000000  0.4792970000000 1.0
C      1  0.4744000000000  0.5526450000000  0.4087590000000 1.0
C      1  0.4626760000000  0.4642150000000  0.5410030000000 1.0
C      1  0.5097120000000  0.5378040000000  0.6068620000000 1.0
C      1  0.5627780000000  0.4672700000000  0.5775740000000 1.0
C      1  0.5525440000000  0.5884400000000  0.4156070000000 1.0
C      1  0.4297540000000  0.5350580000000  0.5699050000000 1.0
C      1  0.5534740000000  0.5109200000000  0.6004530000000 1.0
C      1  0.4892250000000  0.6058600000000  0.4355900000000 1.0
C      1  0.5583440000000  0.4288680000000  0.5472980000000 1.0
C      1  0.4807470000000  0.4773940000000  0.4634220000000 1.0
C      1  0.4524580000000  0.5189940000000  0.5729440000000 1.0
C      1  0.4452630000000  0.4526400000000  0.4983830000000 1.0
C      1  0.5025270000000  0.5651050000000  0.6033150000000 1.0
C      1  0.4684270000000  0.4550550000000  0.5131620000000 1.0
C      1  0.5335420000000  0.5667550000000  0.4782120000000 1.0
C      1  0.4647000000000  0.3744650000000  0.5424270000000 1.0
C      1  0.4474300000000  0.5796940000000  0.4461620000000 1.0
C      1  0.5477720000000  0.5795250000000  0.5424220000000 1.0
C      1  0.5354900000000  0.5274750000000  0.6116030000000 1.0
C      1  0.3988620000000  0.4182490000000  0.4878200000000 1.0
C      1  0.4702500000000  0.3699470000000  0.5167660000000 1.0
C      1  0.5586870000000  0.4268440000000  0.5180810000000 1.0
C      1  0.5032720000000  0.5929200000000  0.4141560000000 1.0
C      1  0.4158070000000  0.5543420000000  0.4827960000000 1.0
C      1  0.4397150000000  0.5136220000000  0.5030960000000 1.0
C      1  0.5816330000000  0.5538190000000  0.4943350000000 1.0
C      1  0.4012960000000  0.4697260000000  0.4886320000000 1.0
C      1  0.4579990000000  0.5162280000000  0.4811350000000 1.0
C      1  0.5064860000000  0.4344920000000  0.4161440000000 1.0
C      1  0.5582290000000  0.5650830000000  0.4909400000000 1.0
C      1  0.4059480000000  0.4867460000000  0.4459290000000 1.0
C      1  0.5859370000000  0.4947730000000  0.5350040000000 1.0
C      1  0.5894320000000  0.5608020000000  0.5438130000000 1.0
C      1  0.4967390000000  0.5267770000000  0.5621700000000 1.0
C      1  0.5076380000000  0.4672980000000  0.5518040000000 1.0
C      1  0.5745640000000  0.5112330000000  0.5556210000000 1.0
C      1  0.5295240000000  0.4115640000000  0.4519520000000 1.0
C      1  0.5145770000000  0.4566970000000  0.5263710000000 1.0
C      1  0.4125760000000  0.4891140000000  0.5479710000000 1.0
C      1  0.4710460000000  0.4418540000000  0.5590790000000 1.0
C      1  0.4105580000000  0.5131450000000  0.5079830000000 1.0
C      1  0.4722230000000  0.4571480000000  0.6112070000000 1.0
C      1  0.5437930000000  0.5521100000000  0.5502350000000 1.0
C      1  0.4644830000000  0.5112760000000  0.4316940000000 1.0
C      1  0.3939230000000  0.4958660000000  0.4939320000000 1.0
C      1  0.5195920000000  0.6147760000000  0.4714240000000 1.0
C      1  0.5625380000000  0.4451880000000  0.4344770000000 1.0
C      1  0.4260070000000  0.5643100000000  0.5079960000000 1.0
C      1  0.4712090000000  0.3942910000000  0.5610610000000 1.0
C      1  0.5240470000000  0.4051550000000  0.4797980000000 1.0
C      1  0.5704490000000  0.4996840000000  0.4868730000000 1.0
C      1  0.5015380000000  0.4682170000000  0.4800990000000 1.0
C      1  0.4298960000000  0.4421010000000  0.5910330000000 1.0
END
