TITL C-599897-7526-229 6.80664378908464e-05 125000 -502.910303152085 0 0 82 (C1) n - 1
REM
REM in /home/nfs/bkarasulu/CARBON/AIRSS/Generating-Clusters/TERSOFF/Only-C1/FIRE-HFTN
REM
REM
REM
REM
REM
REM ./C.cell (11c1c37f851c82e70ff6c80c92926a4b)
REM AIRSS Version 0.9.1 bugfix July 2018 build 013d7b7c2542+ Fri, 06 Jul 2018 19:26:36 +0100
REM compiler GCC version 9.2.1 20190827 (Red Hat 9.2.1-1)
REM options -cpp -mtune=generic -march=x86-64 -g -O0 -fpre-include=/usr/include/finclude/math-vector-fortran.h
REM seed 1770875299 -480809738 -650218797 1313001373 -634092384 4396602 1506401082 1905008719 1115707272 -1700896374 297741584 -1500589954 -598523393 1025268181 -77978176 -1222146133 818021281 1012209951 -402667058 -1836335124 -1307709910 -1997407579 -1475443470 525082095 281252530 -1805710346 -2070033706 1278356083 -922248959 575490100 146981684 528764963 -1451275673
REM
CELL 1.54180   50.00000   50.00000   50.00000   90.00000   90.00000   90.00000
LATT -1
SFAC C  
C      1  0.5643130000000  0.4890390000000  0.5231180000000 1.0
C      1  0.4892240000000  0.4176220000000  0.4813840000000 1.0
C      1  0.4451710000000  0.5296250000000  0.5620870000000 1.0
C      1  0.5577780000000  0.4436890000000  0.4108700000000 1.0
C      1  0.5238160000000  0.5553130000000  0.4394780000000 1.0
C      1  0.4511200000000  0.5905920000000  0.5672290000000 1.0
C      1  0.5123290000000  0.4403660000000  0.4219800000000 1.0
C      1  0.5102750000000  0.4371860000000  0.5420600000000 1.0
C      1  0.4973810000000  0.5644010000000  0.4431490000000 1.0
C      1  0.4849660000000  0.5549650000000  0.5724400000000 1.0
C      1  0.5481670000000  0.5925170000000  0.4148470000000 1.0
C      1  0.4758000000000  0.4246740000000  0.4565950000000 1.0
C      1  0.5393000000000  0.5043950000000  0.4511290000000 1.0
C      1  0.4944850000000  0.4835320000000  0.5913720000000 1.0
C      1  0.4460910000000  0.4407620000000  0.5366070000000 1.0
C      1  0.4603690000000  0.4823990000000  0.5308400000000 1.0
C      1  0.4459540000000  0.4576070000000  0.4362250000000 1.0
C      1  0.4979810000000  0.5093170000000  0.5417400000000 1.0
C      1  0.5502250000000  0.4708890000000  0.4165330000000 1.0
C      1  0.5125120000000  0.4770820000000  0.4820940000000 1.0
C      1  0.5311310000000  0.5666920000000  0.5262530000000 1.0
C      1  0.4713570000000  0.5757130000000  0.5559660000000 1.0
C      1  0.4823770000000  0.5297410000000  0.5293750000000 1.0
C      1  0.5634300000000  0.4890330000000  0.4948000000000 1.0
C      1  0.4703890000000  0.4984850000000  0.5867190000000 1.0
C      1  0.5050220000000  0.4377400000000  0.5698040000000 1.0
C      1  0.5746870000000  0.4436000000000  0.5511160000000 1.0
C      1  0.4516400000000  0.5084760000000  0.4488640000000 1.0
C      1  0.5202980000000  0.5100940000000  0.5592470000000 1.0
C      1  0.5448300000000  0.5569950000000  0.5033400000000 1.0
C      1  0.5052710000000  0.4623030000000  0.5285790000000 1.0
C      1  0.4460300000000  0.4839990000000  0.5744900000000 1.0
C      1  0.5417710000000  0.5263920000000  0.5512520000000 1.0
C      1  0.4537330000000  0.5319140000000  0.5350310000000 1.0
C      1  0.4577290000000  0.5713370000000  0.4785360000000 1.0
C      1  0.4480500000000  0.4656550000000  0.5514350000000 1.0
C      1  0.4865160000000  0.4325070000000  0.4299500000000 1.0
C      1  0.4771550000000  0.5740670000000  0.4579410000000 1.0
C      1  0.5395720000000  0.4888220000000  0.4789400000000 1.0
C      1  0.5018190000000  0.4592610000000  0.5006850000000 1.0
C      1  0.4643480000000  0.4463820000000  0.4171820000000 1.0
C      1  0.4417790000000  0.4934180000000  0.5113690000000 1.0
C      1  0.5609270000000  0.5727540000000  0.4594700000000 1.0
C      1  0.5790810000000  0.4220930000000  0.5651770000000 1.0
C      1  0.4904130000000  0.5362180000000  0.5035060000000 1.0
C      1  0.5361770000000  0.5342320000000  0.4565790000000 1.0
C      1  0.4762540000000  0.5061670000000  0.4630820000000 1.0
C      1  0.4884260000000  0.4840480000000  0.5352320000000 1.0
C      1  0.4287750000000  0.5071350000000  0.5692600000000 1.0
C      1  0.5134290000000  0.5582800000000  0.5717250000000 1.0
C      1  0.4408820000000  0.4851500000000  0.4374410000000 1.0
C      1  0.4694380000000  0.5296880000000  0.5796150000000 1.0
C      1  0.4800000000000  0.5816460000000  0.5285570000000 1.0
C      1  0.5139440000000  0.4140600000000  0.5246650000000 1.0
C      1  0.5336280000000  0.5534950000000  0.5516690000000 1.0
C      1  0.5178270000000  0.4977630000000  0.5842370000000 1.0
C      1  0.4634990000000  0.5810780000000  0.5050040000000 1.0
C      1  0.6001740000000  0.4972000000000  0.4588130000000 1.0
C      1  0.5364420000000  0.4262830000000  0.4143690000000 1.0
C      1  0.4394220000000  0.4495210000000  0.4862840000000 1.0
C      1  0.5618340000000  0.5132390000000  0.5371930000000 1.0
C      1  0.4957600000000  0.4864090000000  0.4601970000000 1.0
C      1  0.5875890000000  0.4991360000000  0.4351350000000 1.0
C      1  0.4545910000000  0.4387640000000  0.5087300000000 1.0
C      1  0.4965330000000  0.4554090000000  0.5884080000000 1.0
C      1  0.5080830000000  0.5829890000000  0.5239240000000 1.0
C      1  0.4813960000000  0.4396870000000  0.4982260000000 1.0
C      1  0.5075630000000  0.4042030000000  0.4993820000000 1.0
C      1  0.4499290000000  0.4413770000000  0.4604500000000 1.0
C      1  0.5209040000000  0.4686940000000  0.4215160000000 1.0
C      1  0.5885770000000  0.4916080000000  0.4822750000000 1.0
C      1  0.4369970000000  0.5211840000000  0.5147270000000 1.0
C      1  0.4845770000000  0.5270110000000  0.4794860000000 1.0
C      1  0.4304510000000  0.4757820000000  0.4923120000000 1.0
C      1  0.5605100000000  0.4934690000000  0.4311110000000 1.0
C      1  0.5512510000000  0.5511260000000  0.4765560000000 1.0
C      1  0.4374400000000  0.5510770000000  0.4740420000000 1.0
C      1  0.5448110000000  0.5756100000000  0.4357100000000 1.0
C      1  0.4387950000000  0.5336350000000  0.4515000000000 1.0
C      1  0.5130810000000  0.4898860000000  0.4381930000000 1.0
C      1  0.5688810000000  0.4652300000000  0.5369660000000 1.0
C      1  0.4255160000000  0.5390690000000  0.4966290000000 1.0
END
