TITL C-599890-3321-626 5.8781684790685e-05 125000 -689.566035004169 0 0 113 (C1) n - 1
REM
REM in /home/nfs/bkarasulu/CARBON/AIRSS/Generating-Clusters/TERSOFF/Only-C1/FIRE-HFTN
REM
REM
REM
REM
REM
REM ./C.cell (11c1c37f851c82e70ff6c80c92926a4b)
REM AIRSS Version 0.9.1 bugfix July 2018 build 013d7b7c2542+ Fri, 06 Jul 2018 19:26:36 +0100
REM compiler GCC version 9.2.1 20190827 (Red Hat 9.2.1-1)
REM options -cpp -mtune=generic -march=x86-64 -g -O0 -fpre-include=/usr/include/finclude/math-vector-fortran.h
REM seed -2029262143 2107426317 -1625493692 -517573639 1454655799 -760189111 -1831209857 -2127737720 -1204264823 -847091001 1826698923 -417756385 -308746210 -288167065 -1431419806 2084035710 159175958 -1633332520 852546252 1919949275 713639401 2045384436 -266168649 -619792541 1104088631 -567904643 55765494 478875098 -870163294 -1231851286 -128630250 518441307 1978910338
REM
CELL 1.54180   50.00000   50.00000   50.00000   90.00000   90.00000   90.00000
LATT -1
SFAC C  
C      1  0.5253370000000  0.5363060000000  0.3999520000000 1.0
C      1  0.4874360000000  0.5309980000000  0.4555910000000 1.0
C      1  0.4417620000000  0.5862600000000  0.5566980000000 1.0
C      1  0.6073390000000  0.5055070000000  0.4938100000000 1.0
C      1  0.4703580000000  0.5324600000000  0.5108670000000 1.0
C      1  0.3984220000000  0.5285270000000  0.5357400000000 1.0
C      1  0.4487230000000  0.5864120000000  0.4739930000000 1.0
C      1  0.5836370000000  0.5400760000000  0.4658020000000 1.0
C      1  0.5236160000000  0.5515150000000  0.4820680000000 1.0
C      1  0.4731040000000  0.5364540000000  0.5738380000000 1.0
C      1  0.4867360000000  0.4754650000000  0.3862210000000 1.0
C      1  0.5894730000000  0.5590850000000  0.4868740000000 1.0
C      1  0.4125680000000  0.5604420000000  0.5047830000000 1.0
C      1  0.3888250000000  0.5194180000000  0.5091660000000 1.0
C      1  0.5573920000000  0.4343280000000  0.4797800000000 1.0
C      1  0.5452310000000  0.5179740000000  0.4546070000000 1.0
C      1  0.5274460000000  0.6080450000000  0.5063920000000 1.0
C      1  0.4706050000000  0.5902380000000  0.4589640000000 1.0
C      1  0.4562260000000  0.4929650000000  0.5584080000000 1.0
C      1  0.4311530000000  0.5602640000000  0.5542010000000 1.0
C      1  0.5294650000000  0.6083440000000  0.4795100000000 1.0
C      1  0.4734940000000  0.5589450000000  0.5193490000000 1.0
C      1  0.5158760000000  0.4635880000000  0.5803670000000 1.0
C      1  0.5195320000000  0.5117780000000  0.4105970000000 1.0
C      1  0.4803420000000  0.4469150000000  0.5045760000000 1.0
C      1  0.4447440000000  0.5383350000000  0.5670560000000 1.0
C      1  0.5074260000000  0.4993880000000  0.5189450000000 1.0
C      1  0.5841830000000  0.4950180000000  0.5639600000000 1.0
C      1  0.4295360000000  0.5778560000000  0.4906700000000 1.0
C      1  0.5497330000000  0.4193880000000  0.5032340000000 1.0
C      1  0.5810890000000  0.4860620000000  0.4515440000000 1.0
C      1  0.4711270000000  0.4545060000000  0.3810610000000 1.0
C      1  0.5662250000000  0.4847670000000  0.5427570000000 1.0
C      1  0.3898510000000  0.4905420000000  0.5094560000000 1.0
C      1  0.4343500000000  0.5113640000000  0.5622940000000 1.0
C      1  0.4265420000000  0.4618630000000  0.5317490000000 1.0
C      1  0.5336600000000  0.4214900000000  0.4373760000000 1.0
C      1  0.5024000000000  0.4942310000000  0.3967430000000 1.0
C      1  0.4101270000000  0.5059290000000  0.5490230000000 1.0
C      1  0.4787990000000  0.4356240000000  0.4431840000000 1.0
C      1  0.5599430000000  0.5097360000000  0.5288330000000 1.0
C      1  0.5196880000000  0.4776690000000  0.5037030000000 1.0
C      1  0.4846580000000  0.5806110000000  0.5340750000000 1.0
C      1  0.5547840000000  0.5212440000000  0.5035800000000 1.0
C      1  0.5119670000000  0.5784140000000  0.5432590000000 1.0
C      1  0.5520980000000  0.5300960000000  0.5469730000000 1.0
C      1  0.4954020000000  0.4279490000000  0.5236770000000 1.0
C      1  0.4305330000000  0.4392040000000  0.5142470000000 1.0
C      1  0.4473700000000  0.4127770000000  0.4004870000000 1.0
C      1  0.5836730000000  0.4572690000000  0.5115710000000 1.0
C      1  0.5082490000000  0.5050710000000  0.5494260000000 1.0
C      1  0.4572850000000  0.4790230000000  0.4659730000000 1.0
C      1  0.5057170000000  0.4280270000000  0.4372620000000 1.0
C      1  0.5409480000000  0.5455440000000  0.5030190000000 1.0
C      1  0.5138770000000  0.5220840000000  0.5985570000000 1.0
C      1  0.5421020000000  0.3995130000000  0.4232530000000 1.0
C      1  0.4922810000000  0.5001680000000  0.5969380000000 1.0
C      1  0.4994390000000  0.5462030000000  0.5843350000000 1.0
C      1  0.5111840000000  0.4656470000000  0.4603550000000 1.0
C      1  0.5367880000000  0.5647490000000  0.4597790000000 1.0
C      1  0.3777440000000  0.4741430000000  0.4914680000000 1.0
C      1  0.5499450000000  0.5054420000000  0.4807320000000 1.0
C      1  0.4525760000000  0.4733110000000  0.5386890000000 1.0
C      1  0.4151930000000  0.5338050000000  0.4422560000000 1.0
C      1  0.4666680000000  0.4726320000000  0.5139420000000 1.0
C      1  0.5452940000000  0.4357870000000  0.5276470000000 1.0
C      1  0.5444790000000  0.3657900000000  0.5022140000000 1.0
C      1  0.5339370000000  0.5904440000000  0.5278350000000 1.0
C      1  0.4961050000000  0.5910190000000  0.4504480000000 1.0
C      1  0.5612640000000  0.5814710000000  0.5258220000000 1.0
C      1  0.5392990000000  0.5067730000000  0.5883410000000 1.0
C      1  0.6073500000000  0.5031960000000  0.5479480000000 1.0
C      1  0.4475660000000  0.4041040000000  0.4259330000000 1.0
C      1  0.5533060000000  0.4370270000000  0.4517700000000 1.0
C      1  0.5308520000000  0.5034880000000  0.4351690000000 1.0
C      1  0.3971280000000  0.5397770000000  0.4905950000000 1.0
C      1  0.5028260000000  0.5330820000000  0.4787690000000 1.0
C      1  0.4663890000000  0.5312370000000  0.4393740000000 1.0
C      1  0.5805620000000  0.5727740000000  0.5086370000000 1.0
C      1  0.5234990000000  0.5904020000000  0.4582360000000 1.0
C      1  0.4654000000000  0.5959470000000  0.5478940000000 1.0
C      1  0.4983210000000  0.4727280000000  0.6007040000000 1.0
C      1  0.5148390000000  0.5568330000000  0.5619710000000 1.0
C      1  0.6122950000000  0.5054660000000  0.5208090000000 1.0
C      1  0.4403880000000  0.5320300000000  0.4338480000000 1.0
C      1  0.5473930000000  0.3916620000000  0.5033090000000 1.0
C      1  0.5683190000000  0.5049440000000  0.5863530000000 1.0
C      1  0.4568750000000  0.4322860000000  0.3848590000000 1.0
C      1  0.5028550000000  0.4601760000000  0.4875230000000 1.0
C      1  0.4812660000000  0.5065480000000  0.5677260000000 1.0
C      1  0.4499390000000  0.5158450000000  0.5004740000000 1.0
C      1  0.5162580000000  0.4402040000000  0.5659180000000 1.0
C      1  0.4781580000000  0.3770410000000  0.5306470000000 1.0
C      1  0.4677130000000  0.4616240000000  0.4480880000000 1.0
C      1  0.5263300000000  0.4879080000000  0.5685690000000 1.0
C      1  0.4534580000000  0.4306930000000  0.4980830000000 1.0
C      1  0.4127290000000  0.5536600000000  0.5333600000000 1.0
C      1  0.5660410000000  0.4598280000000  0.4897130000000 1.0
C      1  0.5248700000000  0.5329800000000  0.5506530000000 1.0
C      1  0.4558820000000  0.4891570000000  0.4924390000000 1.0
C      1  0.5584330000000  0.4653730000000  0.4438580000000 1.0
C      1  0.5571040000000  0.5443830000000  0.4527810000000 1.0
C      1  0.5309750000000  0.4762690000000  0.4423570000000 1.0
C      1  0.4598700000000  0.4147220000000  0.4487940000000 1.0
C      1  0.4855240000000  0.4017030000000  0.5265480000000 1.0
C      1  0.5190020000000  0.4343890000000  0.5387420000000 1.0
C      1  0.4519480000000  0.4137740000000  0.4757060000000 1.0
C      1  0.5654470000000  0.4572460000000  0.5343020000000 1.0
C      1  0.3987150000000  0.5367120000000  0.4629800000000 1.0
C      1  0.5455300000000  0.4797480000000  0.4909780000000 1.0
C      1  0.5932020000000  0.5106570000000  0.4682400000000 1.0
C      1  0.4951710000000  0.5204050000000  0.5031150000000 1.0
C      1  0.4058880000000  0.4816800000000  0.5323290000000 1.0
END
