TITL C-599897-7526-1 6846.63129460559 125000 -1208.17342573861 0 0 199 (C1) n - 1
REM
REM in /home/nfs/bkarasulu/CARBON/AIRSS/Generating-Clusters/TERSOFF/Only-C1/FIRE-HFTN
REM
REM
REM
REM
REM
REM ./C.cell (11c1c37f851c82e70ff6c80c92926a4b)
REM AIRSS Version 0.9.1 bugfix July 2018 build 013d7b7c2542+ Fri, 06 Jul 2018 19:26:36 +0100
REM compiler GCC version 9.2.1 20190827 (Red Hat 9.2.1-1)
REM options -cpp -mtune=generic -march=x86-64 -g -O0 -fpre-include=/usr/include/finclude/math-vector-fortran.h
REM seed 915856888 -1049768564 2097733116 249600600 -784363357 1236410906 465614136 -877737694 -1050504637 -681131186 -625630416 1271739062 1874113842 -238250235 -669279684 502603309 1636411761 682588897 1318247146 1415695341 -43488926 -2021053867 567098933 -143918634 896917131 -1724014041 1590042922 623544558 1473259725 -184464646 -682540807 -605218474 -1496920859
REM
CELL 1.54180   50.00000   50.00000   50.00000   90.00000   90.00000   90.00000
LATT -1
SFAC C  
C      1  0.4882510000000  0.5048860000000  0.5007140000000 1.0
C      1  0.4150430000000  0.4745720000000  0.4360700000000 1.0
C      1  0.5566780000000  0.4727040000000  0.5191120000000 1.0
C      1  0.5728340000000  0.5168670000000  0.4994460000000 1.0
C      1  0.5004010000000  0.6197560000000  0.4731460000000 1.0
C      1  0.5701020000000  0.4880870000000  0.5644190000000 1.0
C      1  0.4755620000000  0.4409830000000  0.4243640000000 1.0
C      1  0.5888320000000  0.5074520000000  0.6011560000000 1.0
C      1  0.5157990000000  0.5714520000000  0.5579390000000 1.0
C      1  0.3894770000000  0.4808150000000  0.5546230000000 1.0
C      1  0.5467920000000  0.5386820000000  0.3909180000000 1.0
C      1  0.5010200000000  0.3838750000000  0.5017610000000 1.0
C      1  0.4823060000000  0.5046830000000  0.6232690000000 1.0
C      1  0.3769930000000  0.5202080000000  0.5040350000000 1.0
C      1  0.5008650000000  0.5221460000000  0.5196880000000 1.0
C      1  0.3728090000000  0.5340630000000  0.4781440000000 1.0
C      1  0.5423660000000  0.4081610000000  0.4134390000000 1.0
C      1  0.4993690000000  0.5351830000000  0.4149590000000 1.0
C      1  0.5617930000000  0.5033450000000  0.6137980000000 1.0
C      1  0.4873710000000  0.6254680000000  0.5011860000000 1.0
C      1  0.4543040000000  0.4963730000000  0.5662560000000 1.0
C      1  0.5979040000000  0.5123400000000  0.4454670000000 1.0
C      1  0.5362300000000  0.5513970000000  0.5563710000000 1.0
C      1  0.5247060000000  0.5970040000000  0.4347130000000 1.0
C      1  0.4788800000000  0.5296720000000  0.4607000000000 1.0
C      1  0.4896450000000  0.5396120000000  0.5391730000000 1.0
C      1  0.5587610000000  0.4988270000000  0.4825510000000 1.0
C      1  0.4376020000000  0.5474570000000  0.5660020000000 1.0
C      1  0.4936300000000  0.5689190000000  0.5364690000000 1.0
C      1  0.3920510000000  0.4721400000000  0.5272140000000 1.0
C      1  0.4794280000000  0.4482420000000  0.6038240000000 1.0
C      1  0.4566500000000  0.4491230000000  0.4422170000000 1.0
C      1  0.3749540000000  0.4168790000000  0.4975400000000 1.0
C      1  0.4340680000000  0.5192360000000  0.5196620000000 1.0
C      1  0.5536440000000  0.5408410000000  0.4378740000000 1.0
C      1  0.4466000000000  0.5083320000000  0.3660950000000 1.0
C      1  0.4495840000000  0.5331460000000  0.4999210000000 1.0
C      1  0.5267370000000  0.4905380000000  0.5530980000000 1.0
C      1  0.4214320000000  0.5232560000000  0.4492670000000 1.0
C      1  0.4502260000000  0.5193000000000  0.3908840000000 1.0
C      1  0.5084970000000  0.5814130000000  0.5837100000000 1.0
C      1  0.4000610000000  0.4272800000000  0.5009880000000 1.0
C      1  0.5064180000000  0.3900880000000  0.3826230000000 1.0
C      1  0.4454730000000  0.4347230000000  0.4909420000000 1.0
C      1  0.4551250000000  0.5595840000000  0.4918180000000 1.0
C      1  0.4510680000000  0.6172010000000  0.4706580000000 1.0
C      1  0.5942260000000  0.5014720000000  0.5723440000000 1.0
C      1  0.4547380000000  0.5242920000000  0.5646040000000 1.0
C      1  0.4790100000000  0.6516630000000  0.6455550000000 1.0
C      1  0.4383340000000  0.4920390000000  0.5204470000000 1.0
C      1  0.5226800000000  0.4529440000000  0.4311340000000 1.0
C      1  0.4111610000000  0.5164350000000  0.5859640000000 1.0
C      1  0.5813370000000  0.5370060000000  0.4486490000000 1.0
C      1  0.5758540000000  0.4405540000000  0.4438180000000 1.0
C      1  0.4747720000000  0.4903900000000  0.4240050000000 1.0
C      1  0.5208660000000  0.3746720000000  0.5206770000000 1.0
C      1  0.6002580000000  0.4369940000000  0.4837570000000 1.0
C      1  0.5051770000000  0.4638860000000  0.6073290000000 1.0
C      1  0.4292330000000  0.5770010000000  0.4459930000000 1.0
C      1  0.4476130000000  0.3857080000000  0.4525520000000 1.0
C      1  0.6093840000000  0.5098580000000  0.4196910000000 1.0
C      1  0.5225350000000  0.5748390000000  0.4168610000000 1.0
C      1  0.4862090000000  0.6381800000000  0.6244340000000 1.0
C      1  0.5863880000000  0.5178510000000  0.5268560000000 1.0
C      1  0.5574250000000  0.4552430000000  0.4632840000000 1.0
C      1  0.4692100000000  0.5181180000000  0.4847640000000 1.0
C      1  0.5503140000000  0.6013210000000  0.4761750000000 1.0
C      1  0.4944970000000  0.4112120000000  0.5044500000000 1.0
C      1  0.5328150000000  0.4421520000000  0.4555500000000 1.0
C      1  0.6078000000000  0.4648010000000  0.4757050000000 1.0
C      1  0.5700080000000  0.4663510000000  0.5453230000000 1.0
C      1  0.5062040000000  0.5562230000000  0.6002090000000 1.0
C      1  0.4585170000000  0.6171390000000  0.4998560000000 1.0
C      1  0.4919890000000  0.3827380000000  0.5758850000000 1.0
C      1  0.4807660000000  0.5340800000000  0.5655240000000 1.0
C      1  0.5909050000000  0.5483040000000  0.5295880000000 1.0
C      1  0.4946650000000  0.4487950000000  0.5297160000000 1.0
C      1  0.5641270000000  0.4269500000000  0.4202120000000 1.0
C      1  0.4294000000000  0.4498360000000  0.4332800000000 1.0
C      1  0.4514490000000  0.4323060000000  0.5182260000000 1.0
C      1  0.5012760000000  0.4828940000000  0.5582750000000 1.0
C      1  0.6301150000000  0.5269950000000  0.5354390000000 1.0
C      1  0.5007040000000  0.6093210000000  0.5806580000000 1.0
C      1  0.4765460000000  0.6117070000000  0.4575400000000 1.0
C      1  0.5633620000000  0.4216150000000  0.5674180000000 1.0
C      1  0.4060220000000  0.4459010000000  0.5236150000000 1.0
C      1  0.5406220000000  0.5313550000000  0.5759510000000 1.0
C      1  0.5000700000000  0.4814150000000  0.4893550000000 1.0
C      1  0.5432730000000  0.5124230000000  0.3859700000000 1.0
C      1  0.4776440000000  0.4258080000000  0.5234680000000 1.0
C      1  0.5904130000000  0.4290620000000  0.5095150000000 1.0
C      1  0.5075210000000  0.5776390000000  0.5123440000000 1.0
C      1  0.4673220000000  0.5665780000000  0.4093390000000 1.0
C      1  0.4362120000000  0.3612020000000  0.4437610000000 1.0
C      1  0.5002180000000  0.6216470000000  0.5538770000000 1.0
C      1  0.4775890000000  0.3844960000000  0.4544230000000 1.0
C      1  0.5299700000000  0.5308050000000  0.4544980000000 1.0
C      1  0.4459610000000  0.4793010000000  0.5868610000000 1.0
C      1  0.5848220000000  0.6024620000000  0.5364410000000 1.0
C      1  0.5226370000000  0.5515680000000  0.4743500000000 1.0
C      1  0.3934640000000  0.4733150000000  0.4555380000000 1.0
C      1  0.4772850000000  0.4262130000000  0.6207650000000 1.0
C      1  0.4747150000000  0.5836800000000  0.4527920000000 1.0
C      1  0.5031540000000  0.5659170000000  0.4876640000000 1.0
C      1  0.5872840000000  0.4215670000000  0.4627970000000 1.0
C      1  0.3858990000000  0.4912750000000  0.5048070000000 1.0
C      1  0.4907100000000  0.3853400000000  0.4058100000000 1.0
C      1  0.6096860000000  0.5174560000000  0.6170310000000 1.0
C      1  0.4823820000000  0.5414730000000  0.5937070000000 1.0
C      1  0.5129410000000  0.4866970000000  0.4644580000000 1.0
C      1  0.3696070000000  0.4611450000000  0.4505370000000 1.0
C      1  0.4448820000000  0.5966450000000  0.5166910000000 1.0
C      1  0.5681900000000  0.5450350000000  0.4922650000000 1.0
C      1  0.4888050000000  0.3797670000000  0.3323750000000 1.0
C      1  0.4934720000000  0.6244360000000  0.6029830000000 1.0
C      1  0.3994040000000  0.4876350000000  0.4793240000000 1.0
C      1  0.5669200000000  0.5887730000000  0.5200760000000 1.0
C      1  0.4261860000000  0.3387380000000  0.4351650000000 1.0
C      1  0.6015020000000  0.6149960000000  0.5520530000000 1.0
C      1  0.4415930000000  0.4384440000000  0.5651540000000 1.0
C      1  0.5194010000000  0.4370200000000  0.5398570000000 1.0
C      1  0.4801800000000  0.3751510000000  0.3082100000000 1.0
C      1  0.5361790000000  0.5042630000000  0.4667520000000 1.0
C      1  0.5261480000000  0.6087490000000  0.4611810000000 1.0
C      1  0.3941090000000  0.5542970000000  0.4748110000000 1.0
C      1  0.6222450000000  0.5046880000000  0.3690110000000 1.0
C      1  0.6042860000000  0.4896000000000  0.4634560000000 1.0
C      1  0.4650450000000  0.5242940000000  0.6108560000000 1.0
C      1  0.4556420000000  0.4526010000000  0.5866170000000 1.0
C      1  0.5148480000000  0.4311280000000  0.4950840000000 1.0
C      1  0.4964860000000  0.5631560000000  0.4099930000000 1.0
C      1  0.6292760000000  0.5270490000000  0.6312890000000 1.0
C      1  0.6266380000000  0.4265320000000  0.5430560000000 1.0
C      1  0.4315560000000  0.4390440000000  0.5377400000000 1.0
C      1  0.4593710000000  0.4477650000000  0.4702850000000 1.0
C      1  0.4535120000000  0.5472220000000  0.3939970000000 1.0
C      1  0.4143340000000  0.5520480000000  0.4534010000000 1.0
C      1  0.5023630000000  0.4569630000000  0.5023210000000 1.0
C      1  0.4508390000000  0.5026130000000  0.4141380000000 1.0
C      1  0.4169140000000  0.5876940000000  0.5067160000000 1.0
C      1  0.5802400000000  0.4406350000000  0.5532800000000 1.0
C      1  0.5356950000000  0.4289100000000  0.5161800000000 1.0
C      1  0.5323130000000  0.5096090000000  0.6153820000000 1.0
C      1  0.4347090000000  0.5204760000000  0.6059970000000 1.0
C      1  0.5369100000000  0.4932820000000  0.5263050000000 1.0
C      1  0.6010290000000  0.4316100000000  0.5356450000000 1.0
C      1  0.4271160000000  0.6025480000000  0.4621600000000 1.0
C      1  0.5294020000000  0.5205730000000  0.5200750000000 1.0
C      1  0.5076050000000  0.4917820000000  0.6171040000000 1.0
C      1  0.4183900000000  0.4234800000000  0.4358320000000 1.0
C      1  0.4977780000000  0.4938230000000  0.4407240000000 1.0
C      1  0.4555140000000  0.5753840000000  0.4335860000000 1.0
C      1  0.5320510000000  0.3832040000000  0.5458670000000 1.0
C      1  0.5277780000000  0.5357550000000  0.6015860000000 1.0
C      1  0.5602880000000  0.4708280000000  0.4890880000000 1.0
C      1  0.4975150000000  0.3845860000000  0.3569270000000 1.0
C      1  0.5219860000000  0.6016390000000  0.5157820000000 1.0
C      1  0.5635050000000  0.4041630000000  0.4672060000000 1.0
C      1  0.5730240000000  0.5850980000000  0.4667960000000 1.0
C      1  0.5578710000000  0.3949980000000  0.5545750000000 1.0
C      1  0.6165400000000  0.5072270000000  0.3943210000000 1.0
C      1  0.4011520000000  0.5630200000000  0.5029630000000 1.0
C      1  0.5017670000000  0.5240110000000  0.4416710000000 1.0
C      1  0.5248400000000  0.3995420000000  0.4361460000000 1.0
C      1  0.4117980000000  0.5296140000000  0.5353270000000 1.0
C      1  0.5362090000000  0.4877390000000  0.3936230000000 1.0
C      1  0.5432180000000  0.5440390000000  0.5302460000000 1.0
C      1  0.5040670000000  0.6218950000000  0.5251320000000 1.0
C      1  0.3965510000000  0.4931510000000  0.5778280000000 1.0
C      1  0.5868970000000  0.5572470000000  0.4717510000000 1.0
C      1  0.6141160000000  0.5565170000000  0.4891510000000 1.0
C      1  0.5395170000000  0.4317200000000  0.5819810000000 1.0
C      1  0.5447100000000  0.5549930000000  0.4141390000000 1.0
C      1  0.4756140000000  0.4847700000000  0.5524240000000 1.0
C      1  0.5623300000000  0.4227780000000  0.5106240000000 1.0
C      1  0.4604860000000  0.5829750000000  0.5372290000000 1.0
C      1  0.4890740000000  0.3732810000000  0.4784340000000 1.0
C      1  0.6181660000000  0.5492470000000  0.5182330000000 1.0
C      1  0.4774540000000  0.5685550000000  0.4765470000000 1.0
C      1  0.5184390000000  0.4233010000000  0.5643070000000 1.0
C      1  0.3920270000000  0.5404130000000  0.5191480000000 1.0
C      1  0.5320300000000  0.4011050000000  0.3881250000000 1.0
C      1  0.5661600000000  0.5593630000000  0.5184860000000 1.0
C      1  0.4124240000000  0.5352570000000  0.5634860000000 1.0
C      1  0.6074450000000  0.5097510000000  0.5468020000000 1.0
C      1  0.4460040000000  0.5728390000000  0.5588110000000 1.0
C      1  0.5277160000000  0.4676280000000  0.4091170000000 1.0
C      1  0.5364500000000  0.4128300000000  0.4585020000000 1.0
C      1  0.5461020000000  0.5035740000000  0.5688890000000 1.0
C      1  0.4270900000000  0.5012720000000  0.4300330000000 1.0
C      1  0.4222870000000  0.4200710000000  0.4834190000000 1.0
C      1  0.5475540000000  0.6020460000000  0.5046880000000 1.0
C      1  0.4178790000000  0.5083140000000  0.4736700000000 1.0
C      1  0.3522030000000  0.5297160000000  0.4609120000000 1.0
C      1  0.4270080000000  0.4067550000000  0.4578250000000 1.0
C      1  0.4086850000000  0.6035320000000  0.4836870000000 1.0
C      1  0.5122670000000  0.3955740000000  0.5632550000000 1.0
C      1  0.5297500000000  0.4497380000000  0.6013390000000 1.0
C      1  0.4972960000000  0.3899290000000  0.4331270000000 1.0
END
