TITL C-599897-7526-1253 14887.1068325167 125000 -1080.65172326513 0 0 175 (C1) n - 1
REM
REM in /home/nfs/bkarasulu/CARBON/AIRSS/Generating-Clusters/TERSOFF/Only-C1/FIRE-HFTN
REM
REM
REM
REM
REM
REM ./C.cell (11c1c37f851c82e70ff6c80c92926a4b)
REM AIRSS Version 0.9.1 bugfix July 2018 build 013d7b7c2542+ Fri, 06 Jul 2018 19:26:36 +0100
REM compiler GCC version 9.2.1 20190827 (Red Hat 9.2.1-1)
REM options -cpp -mtune=generic -march=x86-64 -g -O0 -fpre-include=/usr/include/finclude/math-vector-fortran.h
REM seed -2006238429 579379948 -1228354261 -175562560 1977112027 -186212124 -546084405 -1328353230 -108034106 1935817299 590415713 345352035 1607069698 -61207673 1598513143 -1831048068 1365832226 1258420163 146300737 -1763256881 -93816176 -1639975312 1662055217 1069844761 -156707378 -1620980628 1587809573 -2018293000 262925670 -1042829835 -1425788988 -1502828494 -2021112575
REM
CELL 1.54180   50.00000   50.00000   50.00000   90.00000   90.00000   90.00000
LATT -1
SFAC C  
C      1  0.5525960000000  0.4935540000000  0.5151330000000 1.0
C      1  0.4298840000000  0.4641450000000  0.5510910000000 1.0
C      1  0.6031780000000  0.4539210000000  0.4657540000000 1.0
C      1  0.5657850000000  0.5033150000000  0.5736960000000 1.0
C      1  0.5011450000000  0.4478830000000  0.6108590000000 1.0
C      1  0.4553170000000  0.5366600000000  0.3943750000000 1.0
C      1  0.4064890000000  0.5400780000000  0.4230160000000 1.0
C      1  0.4502310000000  0.5234060000000  0.5933060000000 1.0
C      1  0.5006600000000  0.5629620000000  0.4161450000000 1.0
C      1  0.4949140000000  0.4800650000000  0.3764720000000 1.0
C      1  0.4927890000000  0.4233350000000  0.4100250000000 1.0
C      1  0.4236510000000  0.5816260000000  0.4476010000000 1.0
C      1  0.5810950000000  0.4010840000000  0.5158570000000 1.0
C      1  0.5139950000000  0.5015810000000  0.5784580000000 1.0
C      1  0.5595770000000  0.4632520000000  0.6557030000000 1.0
C      1  0.4469680000000  0.4539960000000  0.4789410000000 1.0
C      1  0.3711200000000  0.4446150000000  0.4796550000000 1.0
C      1  0.5298840000000  0.5568360000000  0.5935050000000 1.0
C      1  0.4038590000000  0.5613980000000  0.4429690000000 1.0
C      1  0.4541390000000  0.4891890000000  0.4207430000000 1.0
C      1  0.5199050000000  0.5383790000000  0.4842990000000 1.0
C      1  0.4981040000000  0.4674250000000  0.5376930000000 1.0
C      1  0.4197940000000  0.5721560000000  0.4973920000000 1.0
C      1  0.5584390000000  0.5409400000000  0.4535000000000 1.0
C      1  0.4968530000000  0.5574340000000  0.4888390000000 1.0
C      1  0.5374520000000  0.6370790000000  0.4935400000000 1.0
C      1  0.4251700000000  0.4987250000000  0.4578240000000 1.0
C      1  0.6024650000000  0.4314570000000  0.4838370000000 1.0
C      1  0.4850980000000  0.5051330000000  0.3659720000000 1.0
C      1  0.4403400000000  0.5170410000000  0.5672190000000 1.0
C      1  0.4989650000000  0.5848540000000  0.4357030000000 1.0
C      1  0.4506090000000  0.5512180000000  0.5991000000000 1.0
C      1  0.4628820000000  0.6161210000000  0.5263750000000 1.0
C      1  0.5501800000000  0.4596750000000  0.3981630000000 1.0
C      1  0.4926880000000  0.6005110000000  0.4568780000000 1.0
C      1  0.3795030000000  0.5243610000000  0.4603080000000 1.0
C      1  0.4303790000000  0.3988340000000  0.4780860000000 1.0
C      1  0.4715230000000  0.5420490000000  0.4939490000000 1.0
C      1  0.3917100000000  0.5169390000000  0.4343720000000 1.0
C      1  0.4914040000000  0.4601280000000  0.5875060000000 1.0
C      1  0.5083680000000  0.3998440000000  0.4152560000000 1.0
C      1  0.4063710000000  0.4783440000000  0.5439640000000 1.0
C      1  0.4699590000000  0.4427980000000  0.4639640000000 1.0
C      1  0.6115590000000  0.4455990000000  0.7125660000000 1.0
C      1  0.5639570000000  0.5270410000000  0.5616530000000 1.0
C      1  0.4178850000000  0.5307270000000  0.5575960000000 1.0
C      1  0.5587010000000  0.4479640000000  0.5042970000000 1.0
C      1  0.5512120000000  0.5435250000000  0.4802030000000 1.0
C      1  0.5205920000000  0.4514100000000  0.6288190000000 1.0
C      1  0.6011980000000  0.4889670000000  0.5025570000000 1.0
C      1  0.5731810000000  0.5375560000000  0.5015010000000 1.0
C      1  0.4548830000000  0.5758350000000  0.5889470000000 1.0
C      1  0.4759480000000  0.5118690000000  0.4985170000000 1.0
C      1  0.4735940000000  0.5587250000000  0.4032130000000 1.0
C      1  0.4456080000000  0.3860780000000  0.5260520000000 1.0
C      1  0.5629050000000  0.6063790000000  0.4589360000000 1.0
C      1  0.5228510000000  0.5313290000000  0.5133730000000 1.0
C      1  0.4675800000000  0.5081990000000  0.4339040000000 1.0
C      1  0.6119200000000  0.4677490000000  0.5204780000000 1.0
C      1  0.3941530000000  0.4598370000000  0.4827620000000 1.0
C      1  0.5760160000000  0.5556060000000  0.5247640000000 1.0
C      1  0.5043910000000  0.5448160000000  0.5848400000000 1.0
C      1  0.5107980000000  0.3627660000000  0.4895850000000 1.0
C      1  0.4759290000000  0.4157010000000  0.4713400000000 1.0
C      1  0.5073000000000  0.4577770000000  0.5091250000000 1.0
C      1  0.4445800000000  0.4679730000000  0.5754020000000 1.0
C      1  0.5423030000000  0.4299300000000  0.4913170000000 1.0
C      1  0.5791200000000  0.5083870000000  0.5080420000000 1.0
C      1  0.3939500000000  0.5616500000000  0.4910130000000 1.0
C      1  0.5370390000000  0.3943120000000  0.4599540000000 1.0
C      1  0.4617770000000  0.5955700000000  0.5720650000000 1.0
C      1  0.5306130000000  0.6405180000000  0.5190950000000 1.0
C      1  0.5545500000000  0.5871120000000  0.4400990000000 1.0
C      1  0.5428860000000  0.4676980000000  0.6338790000000 1.0
C      1  0.4996260000000  0.4104900000000  0.4854230000000 1.0
C      1  0.5597570000000  0.5100200000000  0.4002750000000 1.0
C      1  0.5508360000000  0.4831800000000  0.5873200000000 1.0
C      1  0.4742490000000  0.5374150000000  0.5422170000000 1.0
C      1  0.4153700000000  0.4194870000000  0.4654560000000 1.0
C      1  0.5551870000000  0.4533490000000  0.5504350000000 1.0
C      1  0.4730920000000  0.6126340000000  0.5526250000000 1.0
C      1  0.5380240000000  0.4636110000000  0.5701160000000 1.0
C      1  0.4534560000000  0.4856960000000  0.3927670000000 1.0
C      1  0.4348300000000  0.5215750000000  0.4685660000000 1.0
C      1  0.5159340000000  0.4761440000000  0.4864650000000 1.0
C      1  0.5568250000000  0.4660460000000  0.5253130000000 1.0
C      1  0.6114640000000  0.4641040000000  0.5484950000000 1.0
C      1  0.5815110000000  0.5813090000000  0.5370990000000 1.0
C      1  0.4709660000000  0.4637330000000  0.3830370000000 1.0
C      1  0.4291770000000  0.3908790000000  0.5052290000000 1.0
C      1  0.5290260000000  0.3942080000000  0.4324390000000 1.0
C      1  0.4964910000000  0.3737530000000  0.5360580000000 1.0
C      1  0.4694550000000  0.3818240000000  0.5377020000000 1.0
C      1  0.4609060000000  0.5122800000000  0.3800520000000 1.0
C      1  0.4601720000000  0.5506160000000  0.5202970000000 1.0
C      1  0.5660190000000  0.5854320000000  0.5618260000000 1.0
C      1  0.5295280000000  0.5081680000000  0.5279400000000 1.0
C      1  0.5742350000000  0.4323190000000  0.5542630000000 1.0
C      1  0.3892360000000  0.4860640000000  0.4939970000000 1.0
C      1  0.5941600000000  0.4518770000000  0.6941940000000 1.0
C      1  0.4393810000000  0.5905410000000  0.4261960000000 1.0
C      1  0.5160910000000  0.5131280000000  0.5526430000000 1.0
C      1  0.5049520000000  0.4769120000000  0.4601410000000 1.0
C      1  0.5783510000000  0.5129490000000  0.4215330000000 1.0
C      1  0.5145760000000  0.4309990000000  0.4985420000000 1.0
C      1  0.4523510000000  0.4651610000000  0.5043150000000 1.0
C      1  0.4716060000000  0.5053000000000  0.5997400000000 1.0
C      1  0.4748150000000  0.4361810000000  0.3911310000000 1.0
C      1  0.4995610000000  0.5387660000000  0.5558820000000 1.0
C      1  0.4304120000000  0.5861120000000  0.4750140000000 1.0
C      1  0.4563200000000  0.3962110000000  0.4671460000000 1.0
C      1  0.4165910000000  0.5515410000000  0.5407830000000 1.0
C      1  0.5479130000000  0.5601760000000  0.4347170000000 1.0
C      1  0.5475700000000  0.5161960000000  0.6224540000000 1.0
C      1  0.5034550000000  0.5825650000000  0.4993840000000 1.0
C      1  0.5149350000000  0.3874170000000  0.4772490000000 1.0
C      1  0.5278840000000  0.5502100000000  0.4155870000000 1.0
C      1  0.4672960000000  0.4881800000000  0.5097510000000 1.0
C      1  0.5114710000000  0.4821070000000  0.3991610000000 1.0
C      1  0.4903610000000  0.6033300000000  0.4851670000000 1.0
C      1  0.4190820000000  0.4462370000000  0.4760320000000 1.0
C      1  0.4977490000000  0.5172730000000  0.5963200000000 1.0
C      1  0.4003690000000  0.4416110000000  0.4237380000000 1.0
C      1  0.4423020000000  0.4526310000000  0.5280970000000 1.0
C      1  0.5311030000000  0.5543860000000  0.5294740000000 1.0
C      1  0.5829740000000  0.4099780000000  0.4881010000000 1.0
C      1  0.5158540000000  0.5035280000000  0.4165340000000 1.0
C      1  0.5561720000000  0.4103280000000  0.4749590000000 1.0
C      1  0.5444590000000  0.3939030000000  0.5482990000000 1.0
C      1  0.5956720000000  0.5995960000000  0.5214510000000 1.0
C      1  0.5061930000000  0.5240990000000  0.4592280000000 1.0
C      1  0.5425210000000  0.5413790000000  0.6141310000000 1.0
C      1  0.5479380000000  0.4885830000000  0.6153750000000 1.0
C      1  0.5050790000000  0.4442880000000  0.4253780000000 1.0
C      1  0.5420040000000  0.4888200000000  0.4864240000000 1.0
C      1  0.5338650000000  0.5232130000000  0.4064270000000 1.0
C      1  0.4015950000000  0.4683820000000  0.4243230000000 1.0
C      1  0.5996800000000  0.4428970000000  0.5609680000000 1.0
C      1  0.5122620000000  0.5001900000000  0.4449030000000 1.0
C      1  0.4760200000000  0.4879830000000  0.5372520000000 1.0
C      1  0.5882460000000  0.6048150000000  0.4712270000000 1.0
C      1  0.4332360000000  0.5609680000000  0.5200060000000 1.0
C      1  0.5181550000000  0.6359100000000  0.5422540000000 1.0
C      1  0.3452550000000  0.5050240000000  0.4877270000000 1.0
C      1  0.5465330000000  0.5762420000000  0.5792520000000 1.0
C      1  0.6047720000000  0.4798690000000  0.4751290000000 1.0
C      1  0.5683580000000  0.4073330000000  0.5409100000000 1.0
C      1  0.5608280000000  0.4674550000000  0.4481580000000 1.0
C      1  0.6160750000000  0.4422340000000  0.5070510000000 1.0
C      1  0.4713260000000  0.6170980000000  0.5007390000000 1.0
C      1  0.4064940000000  0.4927160000000  0.4369430000000 1.0
C      1  0.4981100000000  0.6252260000000  0.5564460000000 1.0
C      1  0.4572240000000  0.5822160000000  0.4079580000000 1.0
C      1  0.5188500000000  0.3858380000000  0.5484480000000 1.0
C      1  0.5092800000000  0.4617680000000  0.5646200000000 1.0
C      1  0.5238300000000  0.4584140000000  0.4090510000000 1.0
C      1  0.4279860000000  0.5387720000000  0.4044940000000 1.0
C      1  0.5993060000000  0.6053910000000  0.4955820000000 1.0
C      1  0.3875770000000  0.5515700000000  0.4655010000000 1.0
C      1  0.5027900000000  0.3566150000000  0.5144270000000 1.0
C      1  0.5576730000000  0.4913860000000  0.4618000000000 1.0
C      1  0.5766250000000  0.4579600000000  0.6752700000000 1.0
C      1  0.4048230000000  0.4199740000000  0.4392650000000 1.0
C      1  0.4778340000000  0.5285000000000  0.4507260000000 1.0
C      1  0.3950200000000  0.4883660000000  0.5216730000000 1.0
C      1  0.4679670000000  0.4770920000000  0.5897800000000 1.0
C      1  0.3718820000000  0.5052670000000  0.4804360000000 1.0
C      1  0.5605550000000  0.4834960000000  0.3892050000000 1.0
C      1  0.5678990000000  0.5149280000000  0.4476650000000 1.0
C      1  0.5553290000000  0.5457360000000  0.5427650000000 1.0
C      1  0.4916570000000  0.4549530000000  0.4487200000000 1.0
C      1  0.4573740000000  0.5386890000000  0.4681300000000 1.0
C      1  0.4622870000000  0.5113610000000  0.5492570000000 1.0
C      1  0.5206830000000  0.5796330000000  0.5216640000000 1.0
C      1  0.5454240000000  0.6247400000000  0.4712260000000 1.0
END
