TITL C-599892-9790-759 13.6969746494233 125000 -175.207146206928 0 0 31 (C1) n - 1
REM
REM in /home/nfs/bkarasulu/CARBON/AIRSS/Generating-Clusters/TERSOFF/Only-C1/FIRE-HFTN
REM
REM
REM
REM
REM
REM ./C.cell (11c1c37f851c82e70ff6c80c92926a4b)
REM AIRSS Version 0.9.1 bugfix July 2018 build 013d7b7c2542+ Fri, 06 Jul 2018 19:26:36 +0100
REM compiler GCC version 9.2.1 20190827 (Red Hat 9.2.1-1)
REM options -cpp -mtune=generic -march=x86-64 -g -O0 -fpre-include=/usr/include/finclude/math-vector-fortran.h
REM seed -972972943 -1178233794 -1839632238 397938787 -11734436 1002751858 987091151 432804348 -87187880 -156129388 1042912192 -1262667432 -182134387 -1205100849 580745659 -309149089 -402346832 366414190 -1675541254 -887337216 2130246304 614236291 1498776346 2029499220 -1811516933 2011205217 -568954781 -85332730 -299786129 -1024373288 1290738500 74966060 -94038519
REM
CELL 1.54180   50.00000   50.00000   50.00000   90.00000   90.00000   90.00000
LATT -1
SFAC C  
C      1  0.4901700000000  0.5026080000000  0.5499020000000 1.0
C      1  0.4367710000000  0.4103960000000  0.4266320000000 1.0
C      1  0.4821460000000  0.5708380000000  0.5809340000000 1.0
C      1  0.4510370000000  0.4681380000000  0.5652550000000 1.0
C      1  0.5085500000000  0.5058480000000  0.5041680000000 1.0
C      1  0.4649460000000  0.4471180000000  0.4393250000000 1.0
C      1  0.4773140000000  0.4869890000000  0.4719370000000 1.0
C      1  0.4417490000000  0.5722460000000  0.5092900000000 1.0
C      1  0.5412640000000  0.5700100000000  0.5360490000000 1.0
C      1  0.4586680000000  0.4261110000000  0.4219720000000 1.0
C      1  0.4321670000000  0.4514120000000  0.5718710000000 1.0
C      1  0.5926550000000  0.5512680000000  0.4847220000000 1.0
C      1  0.5060840000000  0.4127950000000  0.3582640000000 1.0
C      1  0.4540580000000  0.5510980000000  0.5002990000000 1.0
C      1  0.5598780000000  0.5633540000000  0.5182890000000 1.0
C      1  0.4710900000000  0.4670720000000  0.4556260000000 1.0
C      1  0.5327170000000  0.5158590000000  0.4937260000000 1.0
C      1  0.5579560000000  0.4803710000000  0.5315310000000 1.0
C      1  0.4701950000000  0.4850930000000  0.5583730000000 1.0
C      1  0.4977490000000  0.5556140000000  0.5644340000000 1.0
C      1  0.4906750000000  0.4170290000000  0.3788620000000 1.0
C      1  0.5710160000000  0.4974820000000  0.5152510000000 1.0
C      1  0.4843920000000  0.5074820000000  0.4895140000000 1.0
C      1  0.5091260000000  0.4944340000000  0.5304770000000 1.0
C      1  0.4916830000000  0.5286320000000  0.5600560000000 1.0
C      1  0.5199740000000  0.5667930000000  0.5515650000000 1.0
C      1  0.5715490000000  0.5448220000000  0.5007490000000 1.0
C      1  0.5317530000000  0.4791500000000  0.5375960000000 1.0
C      1  0.5599360000000  0.5189700000000  0.5005960000000 1.0
C      1  0.4677030000000  0.5296160000000  0.4929310000000 1.0
C      1  0.4750290000000  0.4213510000000  0.3998020000000 1.0
END
