TITL C-599890-3321-558 0.237709140769354 125000 -503.724283390743 0 0 84 (C1) n - 1
REM
REM in /home/nfs/bkarasulu/CARBON/AIRSS/Generating-Clusters/TERSOFF/Only-C1/FIRE-HFTN
REM
REM
REM
REM
REM
REM ./C.cell (11c1c37f851c82e70ff6c80c92926a4b)
REM AIRSS Version 0.9.1 bugfix July 2018 build 013d7b7c2542+ Fri, 06 Jul 2018 19:26:36 +0100
REM compiler GCC version 9.2.1 20190827 (Red Hat 9.2.1-1)
REM options -cpp -mtune=generic -march=x86-64 -g -O0 -fpre-include=/usr/include/finclude/math-vector-fortran.h
REM seed 1962283046 1834711917 -525164803 -383286266 -1491852789 295413165 -1494344003 671258908 1712434675 -48722345 -830891872 828217994 1677496399 -182806455 -2055737029 1076543016 -35992100 246818194 699940803 414257454 -1528362651 -1427354159 -255161843 1796236501 -2093267919 721117172 249327413 821787845 146457234 1507900781 1628734064 -363657476 1050483796
REM
CELL 1.54180   50.00000   50.00000   50.00000   90.00000   90.00000   90.00000
LATT -1
SFAC C  
C      1  0.4649850000000  0.4490090000000  0.4432400000000 1.0
C      1  0.5049470000000  0.4196750000000  0.4913810000000 1.0
C      1  0.5207920000000  0.5286980000000  0.5126150000000 1.0
C      1  0.5251480000000  0.4957640000000  0.4282890000000 1.0
C      1  0.4951380000000  0.5311220000000  0.4593860000000 1.0
C      1  0.4820430000000  0.4154600000000  0.5340070000000 1.0
C      1  0.5232130000000  0.5917230000000  0.5130260000000 1.0
C      1  0.5794120000000  0.4724460000000  0.4670640000000 1.0
C      1  0.5738750000000  0.4841010000000  0.4910320000000 1.0
C      1  0.5776290000000  0.5094930000000  0.5336350000000 1.0
C      1  0.4557590000000  0.4175330000000  0.6021150000000 1.0
C      1  0.4808330000000  0.4161830000000  0.5051400000000 1.0
C      1  0.4511850000000  0.4949680000000  0.4343810000000 1.0
C      1  0.5148600000000  0.4919820000000  0.5408080000000 1.0
C      1  0.5858650000000  0.5562570000000  0.5133880000000 1.0
C      1  0.5462130000000  0.5044330000000  0.5701480000000 1.0
C      1  0.4589400000000  0.5801950000000  0.5194450000000 1.0
C      1  0.4839300000000  0.4758480000000  0.5095180000000 1.0
C      1  0.5794140000000  0.5279360000000  0.5098630000000 1.0
C      1  0.4495610000000  0.5144760000000  0.4137560000000 1.0
C      1  0.5215170000000  0.4346030000000  0.5593570000000 1.0
C      1  0.5515100000000  0.5907630000000  0.5099260000000 1.0
C      1  0.4553630000000  0.5620420000000  0.4043400000000 1.0
C      1  0.4211940000000  0.5336470000000  0.4888980000000 1.0
C      1  0.5443510000000  0.4452260000000  0.4783730000000 1.0
C      1  0.4609460000000  0.5223740000000  0.5200140000000 1.0
C      1  0.5336390000000  0.5292680000000  0.4338310000000 1.0
C      1  0.5139850000000  0.5123260000000  0.4698800000000 1.0
C      1  0.4783040000000  0.5414520000000  0.4415020000000 1.0
C      1  0.5069650000000  0.4129570000000  0.5481930000000 1.0
C      1  0.5666950000000  0.5218960000000  0.5585700000000 1.0
C      1  0.4374110000000  0.5386740000000  0.5115120000000 1.0
C      1  0.5032780000000  0.4862700000000  0.4667660000000 1.0
C      1  0.4351410000000  0.5652110000000  0.5220660000000 1.0
C      1  0.5376670000000  0.5566360000000  0.4553860000000 1.0
C      1  0.4204120000000  0.5216400000000  0.4647300000000 1.0
C      1  0.4566900000000  0.4182500000000  0.6281580000000 1.0
C      1  0.5727210000000  0.4551990000000  0.5230420000000 1.0
C      1  0.5042970000000  0.5354490000000  0.5569760000000 1.0
C      1  0.5694560000000  0.5733610000000  0.4964280000000 1.0
C      1  0.5648910000000  0.5295630000000  0.4827050000000 1.0
C      1  0.4343180000000  0.4178010000000  0.5313310000000 1.0
C      1  0.5615990000000  0.5566960000000  0.4726620000000 1.0
C      1  0.5449520000000  0.4750010000000  0.4337010000000 1.0
C      1  0.4262370000000  0.5030750000000  0.3665190000000 1.0
C      1  0.4570830000000  0.4166340000000  0.5479000000000 1.0
C      1  0.4988650000000  0.4841810000000  0.4381480000000 1.0
C      1  0.5545900000000  0.4769680000000  0.5629260000000 1.0
C      1  0.4633590000000  0.5997760000000  0.4997590000000 1.0
C      1  0.5184110000000  0.5105070000000  0.5624590000000 1.0
C      1  0.4851580000000  0.6041200000000  0.4844760000000 1.0
C      1  0.4590170000000  0.4320810000000  0.4633000000000 1.0
C      1  0.4125330000000  0.5747100000000  0.5339100000000 1.0
C      1  0.4610390000000  0.5399960000000  0.4194200000000 1.0
C      1  0.4552960000000  0.4168690000000  0.5756350000000 1.0
C      1  0.5472080000000  0.4925110000000  0.4987320000000 1.0
C      1  0.5084260000000  0.5785520000000  0.5346690000000 1.0
C      1  0.5612390000000  0.4419250000000  0.5020550000000 1.0
C      1  0.5446920000000  0.5648020000000  0.5666520000000 1.0
C      1  0.3850440000000  0.4189450000000  0.4771370000000 1.0
C      1  0.5001800000000  0.4674250000000  0.4870040000000 1.0
C      1  0.4374830000000  0.5087000000000  0.3893440000000 1.0
C      1  0.5289440000000  0.5018800000000  0.5184330000000 1.0
C      1  0.5662340000000  0.5487760000000  0.5661810000000 1.0
C      1  0.5192420000000  0.5613360000000  0.5556240000000 1.0
C      1  0.5173400000000  0.3876550000000  0.5512050000000 1.0
C      1  0.4802010000000  0.5381040000000  0.5376690000000 1.0
C      1  0.4321000000000  0.4193190000000  0.5032840000000 1.0
C      1  0.5101750000000  0.5915950000000  0.4866260000000 1.0
C      1  0.4815680000000  0.5675050000000  0.5307000000000 1.0
C      1  0.5563760000000  0.4599550000000  0.4552890000000 1.0
C      1  0.4638900000000  0.4960970000000  0.5058740000000 1.0
C      1  0.5165050000000  0.4439790000000  0.4840760000000 1.0
C      1  0.5420530000000  0.5124650000000  0.4778430000000 1.0
C      1  0.4720220000000  0.4749390000000  0.4336090000000 1.0
C      1  0.5127880000000  0.5475040000000  0.4956490000000 1.0
C      1  0.5725960000000  0.4790650000000  0.5392300000000 1.0
C      1  0.4946110000000  0.4740690000000  0.5352340000000 1.0
C      1  0.4480260000000  0.4900720000000  0.4832730000000 1.0
C      1  0.4570110000000  0.4215080000000  0.4895810000000 1.0
C      1  0.5391750000000  0.4535150000000  0.5667140000000 1.0
C      1  0.4076240000000  0.4187410000000  0.4901470000000 1.0
C      1  0.4377730000000  0.5001080000000  0.4591290000000 1.0
C      1  0.5168420000000  0.5664300000000  0.4740020000000 1.0
END
