TITL C-599892-9790-1012 0.114696065219102 125000 -243.888309195747 0 0 42 (C1) n - 1
REM
REM in /home/nfs/bkarasulu/CARBON/AIRSS/Generating-Clusters/TERSOFF/Only-C1/FIRE-HFTN
REM
REM
REM
REM
REM
REM ./C.cell (11c1c37f851c82e70ff6c80c92926a4b)
REM AIRSS Version 0.9.1 bugfix July 2018 build 013d7b7c2542+ Fri, 06 Jul 2018 19:26:36 +0100
REM compiler GCC version 9.2.1 20190827 (Red Hat 9.2.1-1)
REM options -cpp -mtune=generic -march=x86-64 -g -O0 -fpre-include=/usr/include/finclude/math-vector-fortran.h
REM seed 1136276201 -568703563 -1770441588 187537135 881337790 -1587284652 -222175849 -2045961418 -1987141809 -1809574668 -561388335 -384465582 27471818 -274661194 1216274380 -782140977 307153820 1069574907 1047035262 -654785523 -754366766 237956534 -1551236640 -1815922479 936979604 -1355534031 2127286234 -446177912 -1813156565 -316088922 -1773197448 -1212469573 -414814293
REM
CELL 1.54180   50.00000   50.00000   50.00000   90.00000   90.00000   90.00000
LATT -1
SFAC C  
C      1  0.5186120000000  0.4826800000000  0.5602660000000 1.0
C      1  0.5010110000000  0.5036140000000  0.5547600000000 1.0
C      1  0.4173790000000  0.5510600000000  0.5039750000000 1.0
C      1  0.4665240000000  0.4984960000000  0.4995290000000 1.0
C      1  0.6372960000000  0.4531530000000  0.5134880000000 1.0
C      1  0.5494130000000  0.5151660000000  0.4645850000000 1.0
C      1  0.4490100000000  0.6062290000000  0.5305120000000 1.0
C      1  0.4685680000000  0.5961260000000  0.5157720000000 1.0
C      1  0.5023530000000  0.4187460000000  0.5164560000000 1.0
C      1  0.5306630000000  0.4718000000000  0.4698830000000 1.0
C      1  0.6117760000000  0.4568830000000  0.5097470000000 1.0
C      1  0.5416180000000  0.4417010000000  0.5348170000000 1.0
C      1  0.5844660000000  0.4608420000000  0.5058070000000 1.0
C      1  0.4425030000000  0.4404470000000  0.4727180000000 1.0
C      1  0.5270800000000  0.4177480000000  0.5296910000000 1.0
C      1  0.4834350000000  0.4791200000000  0.4883280000000 1.0
C      1  0.4604600000000  0.5228710000000  0.4826610000000 1.0
C      1  0.5302380000000  0.5330380000000  0.4594630000000 1.0
C      1  0.5655510000000  0.4471570000000  0.5213330000000 1.0
C      1  0.4894340000000  0.5847990000000  0.5010230000000 1.0
C      1  0.4640750000000  0.5242420000000  0.4327380000000 1.0
C      1  0.5028710000000  0.5384060000000  0.4576350000000 1.0
C      1  0.4600300000000  0.4970590000000  0.5267710000000 1.0
C      1  0.4293780000000  0.6155920000000  0.5448830000000 1.0
C      1  0.5065210000000  0.5461030000000  0.5254300000000 1.0
C      1  0.5372360000000  0.3936840000000  0.5379340000000 1.0
C      1  0.4345490000000  0.4626490000000  0.4603070000000 1.0
C      1  0.5051200000000  0.4693700000000  0.4766440000000 1.0
C      1  0.4370770000000  0.4883880000000  0.4538200000000 1.0
C      1  0.5531710000000  0.4884300000000  0.4721620000000 1.0
C      1  0.5100110000000  0.5283250000000  0.5449490000000 1.0
C      1  0.4384460000000  0.5390240000000  0.4945060000000 1.0
C      1  0.4515130000000  0.5124520000000  0.4551540000000 1.0
C      1  0.5314780000000  0.4607170000000  0.5526860000000 1.0
C      1  0.4862790000000  0.5398630000000  0.4811120000000 1.0
C      1  0.4940360000000  0.5568090000000  0.5027620000000 1.0
C      1  0.4884580000000  0.5358330000000  0.4335180000000 1.0
C      1  0.4738980000000  0.4978310000000  0.5496850000000 1.0
C      1  0.4585120000000  0.4255700000000  0.4879420000000 1.0
C      1  0.4793720000000  0.4189160000000  0.5030800000000 1.0
C      1  0.5751670000000  0.4786200000000  0.4862170000000 1.0
C      1  0.5054130000000  0.6004410000000  0.4852510000000 1.0
END
