TITL C-599896-8500-675 276.920460111361 125000 -982.675388976654 0 0 158 (C1) n - 1
REM
REM in /home/nfs/bkarasulu/CARBON/AIRSS/Generating-Clusters/TERSOFF/Only-C1/FIRE-HFTN
REM
REM
REM
REM
REM
REM ./C.cell (11c1c37f851c82e70ff6c80c92926a4b)
REM AIRSS Version 0.9.1 bugfix July 2018 build 013d7b7c2542+ Fri, 06 Jul 2018 19:26:36 +0100
REM compiler GCC version 9.2.1 20190827 (Red Hat 9.2.1-1)
REM options -cpp -mtune=generic -march=x86-64 -g -O0 -fpre-include=/usr/include/finclude/math-vector-fortran.h
REM seed 1578165666 -1288700264 -1147683452 1791034652 -1766426974 2024215164 -1879416624 1887985063 1349590893 796055412 -1057374119 -410932183 -887008269 1093062978 724997653 1593891577 -685288434 -1198046580 -1720431407 528112138 -364192702 1656096243 2072944444 -1608614609 605637396 -590566084 1754903229 -349933658 880287818 -1227272440 1994657481 -825653474 19949958
REM
CELL 1.54180   50.00000   50.00000   50.00000   90.00000   90.00000   90.00000
LATT -1
SFAC C  
C      1  0.4879520000000  0.4040290000000  0.4359970000000 1.0
C      1  0.5011790000000  0.6348660000000  0.4477590000000 1.0
C      1  0.5034630000000  0.5049670000000  0.5474880000000 1.0
C      1  0.4627850000000  0.4242240000000  0.5595890000000 1.0
C      1  0.5965760000000  0.4155960000000  0.4448810000000 1.0
C      1  0.5231360000000  0.5198600000000  0.4373860000000 1.0
C      1  0.5176870000000  0.5256160000000  0.4801740000000 1.0
C      1  0.4283330000000  0.4279950000000  0.4550350000000 1.0
C      1  0.3929420000000  0.4958440000000  0.4950900000000 1.0
C      1  0.4793730000000  0.5007760000000  0.4410150000000 1.0
C      1  0.4483280000000  0.4636210000000  0.5139310000000 1.0
C      1  0.4687870000000  0.3965020000000  0.4560200000000 1.0
C      1  0.5526880000000  0.4361350000000  0.4421740000000 1.0
C      1  0.5381430000000  0.5274720000000  0.3932510000000 1.0
C      1  0.4381440000000  0.4768720000000  0.5851760000000 1.0
C      1  0.4681600000000  0.5875040000000  0.4770890000000 1.0
C      1  0.4633830000000  0.6132960000000  0.4163990000000 1.0
C      1  0.5851790000000  0.5261420000000  0.4594090000000 1.0
C      1  0.6568530000000  0.5210840000000  0.4440150000000 1.0
C      1  0.4495780000000  0.5307150000000  0.5463340000000 1.0
C      1  0.5046240000000  0.4258490000000  0.4278340000000 1.0
C      1  0.5528630000000  0.5403150000000  0.5048550000000 1.0
C      1  0.4907660000000  0.3781080000000  0.5023510000000 1.0
C      1  0.4819170000000  0.4896970000000  0.6023370000000 1.0
C      1  0.4914220000000  0.5891280000000  0.4583020000000 1.0
C      1  0.4547470000000  0.5045810000000  0.5008560000000 1.0
C      1  0.5937640000000  0.4568740000000  0.5272890000000 1.0
C      1  0.4553950000000  0.6096020000000  0.5218470000000 1.0
C      1  0.4181320000000  0.5000040000000  0.4307760000000 1.0
C      1  0.5600540000000  0.5288190000000  0.5589890000000 1.0
C      1  0.5349350000000  0.4184490000000  0.5463660000000 1.0
C      1  0.5187340000000  0.4393240000000  0.5565370000000 1.0
C      1  0.4637720000000  0.5612370000000  0.4871220000000 1.0
C      1  0.6110100000000  0.5253670000000  0.4729760000000 1.0
C      1  0.4687360000000  0.5285100000000  0.4430770000000 1.0
C      1  0.4783100000000  0.5586110000000  0.5134100000000 1.0
C      1  0.5622730000000  0.5178450000000  0.4771130000000 1.0
C      1  0.4838650000000  0.5252100000000  0.3969090000000 1.0
C      1  0.5615520000000  0.5561830000000  0.5583400000000 1.0
C      1  0.4775820000000  0.4936210000000  0.5415470000000 1.0
C      1  0.4223370000000  0.4537250000000  0.5132260000000 1.0
C      1  0.4428020000000  0.5161900000000  0.5943770000000 1.0
C      1  0.6076740000000  0.4774180000000  0.5105310000000 1.0
C      1  0.5731270000000  0.5577640000000  0.5142890000000 1.0
C      1  0.5146400000000  0.4324670000000  0.4727860000000 1.0
C      1  0.4692020000000  0.5165690000000  0.6039360000000 1.0
C      1  0.4815750000000  0.6293640000000  0.4278640000000 1.0
C      1  0.4644300000000  0.4683500000000  0.5905540000000 1.0
C      1  0.4979280000000  0.4499860000000  0.4135710000000 1.0
C      1  0.5622010000000  0.5742000000000  0.5356940000000 1.0
C      1  0.5608520000000  0.4210130000000  0.5580350000000 1.0
C      1  0.5793860000000  0.4375680000000  0.5111330000000 1.0
C      1  0.5268320000000  0.5052130000000  0.6141200000000 1.0
C      1  0.5272240000000  0.5441130000000  0.5199720000000 1.0
C      1  0.5635120000000  0.4584350000000  0.4566280000000 1.0
C      1  0.4987440000000  0.3523760000000  0.4983640000000 1.0
C      1  0.5154470000000  0.6580580000000  0.4483460000000 1.0
C      1  0.5696240000000  0.4458520000000  0.5707200000000 1.0
C      1  0.5374320000000  0.5181410000000  0.4619980000000 1.0
C      1  0.5256480000000  0.4298060000000  0.4467420000000 1.0
C      1  0.4690540000000  0.5526090000000  0.5409840000000 1.0
C      1  0.5508140000000  0.4558510000000  0.5912140000000 1.0
C      1  0.5422700000000  0.5934090000000  0.5274680000000 1.0
C      1  0.5524130000000  0.5047070000000  0.5455310000000 1.0
C      1  0.4720640000000  0.6072990000000  0.4990970000000 1.0
C      1  0.4755580000000  0.4559060000000  0.3975620000000 1.0
C      1  0.4727880000000  0.3924060000000  0.4848900000000 1.0
C      1  0.4164200000000  0.4066290000000  0.4991970000000 1.0
C      1  0.4338400000000  0.5180600000000  0.5679410000000 1.0
C      1  0.5241060000000  0.4092790000000  0.5212990000000 1.0
C      1  0.6121480000000  0.5261570000000  0.5023900000000 1.0
C      1  0.4755120000000  0.4436580000000  0.5790590000000 1.0
C      1  0.4813240000000  0.4042060000000  0.5465470000000 1.0
C      1  0.6161040000000  0.5032050000000  0.5206210000000 1.0
C      1  0.4234390000000  0.4903050000000  0.5653480000000 1.0
C      1  0.4426580000000  0.4047740000000  0.4485470000000 1.0
C      1  0.4526960000000  0.6004090000000  0.5486220000000 1.0
C      1  0.5301950000000  0.4260240000000  0.4976160000000 1.0
C      1  0.5123380000000  0.5302650000000  0.5392670000000 1.0
C      1  0.4356670000000  0.5684600000000  0.4082390000000 1.0
C      1  0.4745260000000  0.5453410000000  0.6035020000000 1.0
C      1  0.5018560000000  0.6122170000000  0.4966880000000 1.0
C      1  0.3976970000000  0.5497590000000  0.5402430000000 1.0
C      1  0.5090550000000  0.5465900000000  0.4329980000000 1.0
C      1  0.3786240000000  0.5164080000000  0.4817830000000 1.0
C      1  0.5045700000000  0.6141420000000  0.4667940000000 1.0
C      1  0.5773440000000  0.5295770000000  0.4313690000000 1.0
C      1  0.4071140000000  0.4775320000000  0.5463570000000 1.0
C      1  0.5089300000000  0.5641270000000  0.5068810000000 1.0
C      1  0.5045020000000  0.4424060000000  0.5809120000000 1.0
C      1  0.3788840000000  0.5231270000000  0.4557220000000 1.0
C      1  0.5392870000000  0.4731850000000  0.4045490000000 1.0
C      1  0.4944410000000  0.6143060000000  0.5713840000000 1.0
C      1  0.5072850000000  0.5657530000000  0.4545300000000 1.0
C      1  0.4639420000000  0.4788810000000  0.3897460000000 1.0
C      1  0.6346810000000  0.5239710000000  0.4582210000000 1.0
C      1  0.6786290000000  0.5180520000000  0.4300080000000 1.0
C      1  0.5964280000000  0.4227700000000  0.4933730000000 1.0
C      1  0.6162730000000  0.5031320000000  0.5492000000000 1.0
C      1  0.5182750000000  0.5928250000000  0.5113300000000 1.0
C      1  0.4831600000000  0.5413060000000  0.4210960000000 1.0
C      1  0.4309540000000  0.5861860000000  0.5619170000000 1.0
C      1  0.4605440000000  0.5061840000000  0.3962440000000 1.0
C      1  0.5673380000000  0.4916900000000  0.4913650000000 1.0
C      1  0.4943580000000  0.5550280000000  0.5854520000000 1.0
C      1  0.4739760000000  0.5169450000000  0.4862060000000 1.0
C      1  0.6041990000000  0.4841620000000  0.5649180000000 1.0
C      1  0.4806640000000  0.4360770000000  0.5012930000000 1.0
C      1  0.4395830000000  0.4550420000000  0.4508610000000 1.0
C      1  0.5113660000000  0.5241800000000  0.3865220000000 1.0
C      1  0.5897100000000  0.4611700000000  0.5559210000000 1.0
C      1  0.4630560000000  0.4610810000000  0.4673210000000 1.0
C      1  0.4833830000000  0.5669960000000  0.5619600000000 1.0
C      1  0.5266690000000  0.4638600000000  0.5463260000000 1.0
C      1  0.4359170000000  0.5140320000000  0.4108570000000 1.0
C      1  0.4713640000000  0.4675540000000  0.5321200000000 1.0
C      1  0.5046970000000  0.4805380000000  0.5006700000000 1.0
C      1  0.5926440000000  0.4595290000000  0.4636100000000 1.0
C      1  0.4993770000000  0.3944300000000  0.5249260000000 1.0
C      1  0.5064350000000  0.4961160000000  0.4321800000000 1.0
C      1  0.4040480000000  0.4762250000000  0.4765010000000 1.0
C      1  0.4632110000000  0.4139190000000  0.5026960000000 1.0
C      1  0.4780830000000  0.5950370000000  0.5613130000000 1.0
C      1  0.4106680000000  0.5719570000000  0.5481470000000 1.0
C      1  0.3961020000000  0.4968690000000  0.5249640000000 1.0
C      1  0.4574700000000  0.5099420000000  0.5286950000000 1.0
C      1  0.4201890000000  0.4777110000000  0.4505450000000 1.0
C      1  0.4363170000000  0.5781290000000  0.5890820000000 1.0
C      1  0.5605480000000  0.5294850000000  0.4094250000000 1.0
C      1  0.4162650000000  0.4496580000000  0.5406770000000 1.0
C      1  0.5151410000000  0.4730650000000  0.4177030000000 1.0
C      1  0.4383410000000  0.4113190000000  0.5176490000000 1.0
C      1  0.5279480000000  0.4907850000000  0.5507350000000 1.0
C      1  0.5123770000000  0.5535960000000  0.4792660000000 1.0
C      1  0.5321120000000  0.5306520000000  0.6077470000000 1.0
C      1  0.3938150000000  0.5147800000000  0.4350250000000 1.0
C      1  0.4868540000000  0.4432880000000  0.4738470000000 1.0
C      1  0.4539780000000  0.4779240000000  0.4902250000000 1.0
C      1  0.5517210000000  0.4668480000000  0.4823640000000 1.0
C      1  0.5206320000000  0.5505000000000  0.5937830000000 1.0
C      1  0.4652210000000  0.5381150000000  0.4698320000000 1.0
C      1  0.4922590000000  0.4582650000000  0.5152860000000 1.0
C      1  0.4999520000000  0.5066350000000  0.4895830000000 1.0
C      1  0.4112900000000  0.4259710000000  0.4782360000000 1.0
C      1  0.5100240000000  0.4838060000000  0.6069770000000 1.0
C      1  0.4302160000000  0.5421960000000  0.4078100000000 1.0
C      1  0.5721390000000  0.4175990000000  0.4329380000000 1.0
C      1  0.5219870000000  0.4592120000000  0.5975770000000 1.0
C      1  0.5526240000000  0.4439780000000  0.5007420000000 1.0
C      1  0.4478150000000  0.5922000000000  0.4108500000000 1.0
C      1  0.5639560000000  0.4970460000000  0.5208560000000 1.0
C      1  0.5955980000000  0.4796480000000  0.4845530000000 1.0
C      1  0.4521420000000  0.5634600000000  0.6055860000000 1.0
C      1  0.4361670000000  0.4262400000000  0.5452930000000 1.0
C      1  0.4073590000000  0.4513050000000  0.4899560000000 1.0
C      1  0.6023620000000  0.4323340000000  0.4671220000000 1.0
C      1  0.3923740000000  0.5239530000000  0.5348380000000 1.0
C      1  0.5998130000000  0.5494660000000  0.5128570000000 1.0
END
