TITL C-599891-72-971 43.4499954842722 125000 -1201.7731217929 0 0 196 (C1) n - 1
REM
REM in /home/nfs/bkarasulu/CARBON/AIRSS/Generating-Clusters/TERSOFF/Only-C1/FIRE-HFTN
REM
REM
REM
REM
REM
REM ./C.cell (11c1c37f851c82e70ff6c80c92926a4b)
REM AIRSS Version 0.9.1 bugfix July 2018 build 013d7b7c2542+ Fri, 06 Jul 2018 19:26:36 +0100
REM compiler GCC version 9.2.1 20190827 (Red Hat 9.2.1-1)
REM options -cpp -mtune=generic -march=x86-64 -g -O0 -fpre-include=/usr/include/finclude/math-vector-fortran.h
REM seed -1138374680 -849466248 1826325607 1528076538 -1750308623 -383193202 -800773371 1896200256 -472148036 -1469795813 512147678 274099971 1820141751 678291109 735297922 -501788403 777148621 -1314306823 -1193701312 -1760868417 -410967400 -793524777 1491892219 -1198885778 1786244801 -2062153247 1133234935 1813621571 2012831203 -91452648 -2018310014 -677403265 -1219706372
REM
CELL 1.54180   50.00000   50.00000   50.00000   90.00000   90.00000   90.00000
LATT -1
SFAC C  
C      1  0.5332720000000  0.5534340000000  0.4702870000000 1.0
C      1  0.5698970000000  0.5429380000000  0.5424090000000 1.0
C      1  0.5161760000000  0.5014910000000  0.4588150000000 1.0
C      1  0.5690350000000  0.4913840000000  0.4787320000000 1.0
C      1  0.4258420000000  0.5039140000000  0.4989730000000 1.0
C      1  0.5553810000000  0.5681320000000  0.4817770000000 1.0
C      1  0.6138990000000  0.5630800000000  0.4495070000000 1.0
C      1  0.4947330000000  0.4412480000000  0.6152940000000 1.0
C      1  0.5746590000000  0.4651540000000  0.5964310000000 1.0
C      1  0.6107470000000  0.4497940000000  0.4075100000000 1.0
C      1  0.4503270000000  0.5568770000000  0.4161760000000 1.0
C      1  0.5009890000000  0.4334090000000  0.4446300000000 1.0
C      1  0.5194710000000  0.5896750000000  0.4409460000000 1.0
C      1  0.6273060000000  0.5219890000000  0.5064760000000 1.0
C      1  0.4276760000000  0.5440380000000  0.4317350000000 1.0
C      1  0.5974780000000  0.4955950000000  0.4795810000000 1.0
C      1  0.4301990000000  0.4809020000000  0.5154480000000 1.0
C      1  0.5038880000000  0.5353630000000  0.5079020000000 1.0
C      1  0.5242520000000  0.5939980000000  0.5758360000000 1.0
C      1  0.4790880000000  0.5059300000000  0.4318820000000 1.0
C      1  0.6008790000000  0.4574150000000  0.4531780000000 1.0
C      1  0.4708620000000  0.5815640000000  0.6038390000000 1.0
C      1  0.5553040000000  0.4803050000000  0.4550490000000 1.0
C      1  0.5163820000000  0.5069030000000  0.6170520000000 1.0
C      1  0.5049940000000  0.4434880000000  0.5663720000000 1.0
C      1  0.5040870000000  0.3848930000000  0.4478860000000 1.0
C      1  0.5998190000000  0.4381290000000  0.5211150000000 1.0
C      1  0.5443850000000  0.3982560000000  0.5870070000000 1.0
C      1  0.4989440000000  0.6090360000000  0.4339400000000 1.0
C      1  0.5273270000000  0.5718500000000  0.5955360000000 1.0
C      1  0.4082990000000  0.4283410000000  0.5064210000000 1.0
C      1  0.4742260000000  0.4598170000000  0.5218540000000 1.0
C      1  0.5890710000000  0.5627020000000  0.5486950000000 1.0
C      1  0.5492510000000  0.4377150000000  0.5266510000000 1.0
C      1  0.5318870000000  0.4978090000000  0.5688250000000 1.0
C      1  0.4758510000000  0.4435400000000  0.5627320000000 1.0
C      1  0.4926060000000  0.5544920000000  0.5481170000000 1.0
C      1  0.4164950000000  0.4262950000000  0.5343900000000 1.0
C      1  0.5899720000000  0.5707200000000  0.4370720000000 1.0
C      1  0.4975300000000  0.6035190000000  0.5717850000000 1.0
C      1  0.4266290000000  0.4219310000000  0.4850250000000 1.0
C      1  0.5589770000000  0.4810240000000  0.5037170000000 1.0
C      1  0.5982840000000  0.4758100000000  0.5566610000000 1.0
C      1  0.6100140000000  0.4696980000000  0.4776710000000 1.0
C      1  0.4811210000000  0.4158460000000  0.5135440000000 1.0
C      1  0.4495790000000  0.5957850000000  0.5590070000000 1.0
C      1  0.5283160000000  0.4783620000000  0.4443290000000 1.0
C      1  0.4971160000000  0.4917670000000  0.4789940000000 1.0
C      1  0.4459510000000  0.4637720000000  0.3955550000000 1.0
C      1  0.4625380000000  0.5493990000000  0.5507330000000 1.0
C      1  0.3866810000000  0.5310240000000  0.5691890000000 1.0
C      1  0.4060800000000  0.5681940000000  0.4703460000000 1.0
C      1  0.4850100000000  0.4940630000000  0.4062970000000 1.0
C      1  0.3844370000000  0.5075830000000  0.5832310000000 1.0
C      1  0.6124890000000  0.5191140000000  0.4835850000000 1.0
C      1  0.5079890000000  0.4109910000000  0.3459380000000 1.0
C      1  0.4572670000000  0.4807230000000  0.5231930000000 1.0
C      1  0.4632390000000  0.6130070000000  0.4722430000000 1.0
C      1  0.4101960000000  0.5626840000000  0.5351770000000 1.0
C      1  0.4907940000000  0.4171950000000  0.3645120000000 1.0
C      1  0.4711950000000  0.5955710000000  0.5785190000000 1.0
C      1  0.4902900000000  0.6104290000000  0.4863810000000 1.0
C      1  0.5040800000000  0.4365050000000  0.4729070000000 1.0
C      1  0.5018990000000  0.4638880000000  0.5204180000000 1.0
C      1  0.4164820000000  0.5182920000000  0.4392200000000 1.0
C      1  0.5103290000000  0.5110030000000  0.5211560000000 1.0
C      1  0.5113790000000  0.4432100000000  0.5938780000000 1.0
C      1  0.5242800000000  0.3741610000000  0.4616970000000 1.0
C      1  0.4778040000000  0.3847950000000  0.5584550000000 1.0
C      1  0.3928370000000  0.5396660000000  0.5424460000000 1.0
C      1  0.5588780000000  0.5318620000000  0.4356130000000 1.0
C      1  0.4707530000000  0.4809780000000  0.4703660000000 1.0
C      1  0.4521040000000  0.3933150000000  0.5549450000000 1.0
C      1  0.5752330000000  0.4220970000000  0.5243940000000 1.0
C      1  0.4221460000000  0.4278670000000  0.4262350000000 1.0
C      1  0.5126630000000  0.5397700000000  0.4278890000000 1.0
C      1  0.4351700000000  0.5242740000000  0.5841730000000 1.0
C      1  0.6368300000000  0.5787810000000  0.4474910000000 1.0
C      1  0.5640640000000  0.5616280000000  0.4321560000000 1.0
C      1  0.5307910000000  0.5292700000000  0.4509460000000 1.0
C      1  0.4732120000000  0.4247240000000  0.3846430000000 1.0
C      1  0.5305390000000  0.5147270000000  0.5938990000000 1.0
C      1  0.5964150000000  0.5091600000000  0.5881370000000 1.0
C      1  0.5142240000000  0.6231780000000  0.4947970000000 1.0
C      1  0.5426730000000  0.5512770000000  0.5425610000000 1.0
C      1  0.4424900000000  0.4167770000000  0.5416020000000 1.0
C      1  0.5418070000000  0.4999740000000  0.3707670000000 1.0
C      1  0.6009920000000  0.4684700000000  0.4264120000000 1.0
C      1  0.4216830000000  0.4468540000000  0.4455690000000 1.0
C      1  0.4289550000000  0.5580830000000  0.4574820000000 1.0
C      1  0.5900580000000  0.5877010000000  0.5583680000000 1.0
C      1  0.5729690000000  0.4665800000000  0.5678000000000 1.0
C      1  0.4935710000000  0.5169100000000  0.6272680000000 1.0
C      1  0.5196070000000  0.4397960000000  0.5376170000000 1.0
C      1  0.5673300000000  0.5129460000000  0.4145990000000 1.0
C      1  0.5394010000000  0.5764850000000  0.4241360000000 1.0
C      1  0.5679000000000  0.4403620000000  0.6074350000000 1.0
C      1  0.4608640000000  0.4546390000000  0.4774410000000 1.0
C      1  0.5045900000000  0.3925030000000  0.5516930000000 1.0
C      1  0.4011640000000  0.5815290000000  0.5159450000000 1.0
C      1  0.6119480000000  0.4538440000000  0.5019800000000 1.0
C      1  0.4009830000000  0.4540930000000  0.5797930000000 1.0
C      1  0.5364350000000  0.5982690000000  0.5297230000000 1.0
C      1  0.4592640000000  0.4946870000000  0.4480460000000 1.0
C      1  0.5385510000000  0.6110500000000  0.5044320000000 1.0
C      1  0.4333500000000  0.4956980000000  0.4349750000000 1.0
C      1  0.4199240000000  0.4439160000000  0.5988970000000 1.0
C      1  0.3799770000000  0.5218170000000  0.5230950000000 1.0
C      1  0.4653800000000  0.5539270000000  0.6027090000000 1.0
C      1  0.5582440000000  0.4160420000000  0.6014610000000 1.0
C      1  0.5515250000000  0.4814500000000  0.5555520000000 1.0
C      1  0.5935820000000  0.3796090000000  0.4655320000000 1.0
C      1  0.6139780000000  0.5391520000000  0.4641100000000 1.0
C      1  0.5468160000000  0.3738370000000  0.4760170000000 1.0
C      1  0.5433660000000  0.6038140000000  0.5569040000000 1.0
C      1  0.4159160000000  0.6379780000000  0.5561790000000 1.0
C      1  0.6141310000000  0.4006150000000  0.4222920000000 1.0
C      1  0.4143010000000  0.4737790000000  0.5379870000000 1.0
C      1  0.4347030000000  0.4458480000000  0.4705680000000 1.0
C      1  0.5979060000000  0.5050480000000  0.5592600000000 1.0
C      1  0.4320560000000  0.6176060000000  0.5580650000000 1.0
C      1  0.5162380000000  0.5124580000000  0.5491190000000 1.0
C      1  0.3996860000000  0.4839710000000  0.5802140000000 1.0
C      1  0.4013950000000  0.5050240000000  0.4850620000000 1.0
C      1  0.5611440000000  0.4938090000000  0.5297380000000 1.0
C      1  0.5557950000000  0.5951080000000  0.4875920000000 1.0
C      1  0.4704080000000  0.3885850000000  0.5063090000000 1.0
C      1  0.4534180000000  0.5799580000000  0.5082250000000 1.0
C      1  0.5532240000000  0.5176820000000  0.3895470000000 1.0
C      1  0.4214130000000  0.4889310000000  0.5619710000000 1.0
C      1  0.5718620000000  0.3848710000000  0.4828450000000 1.0
C      1  0.5094160000000  0.4579670000000  0.4298980000000 1.0
C      1  0.5260730000000  0.5561080000000  0.4082320000000 1.0
C      1  0.4559650000000  0.5258380000000  0.5335670000000 1.0
C      1  0.4557900000000  0.5639690000000  0.4626010000000 1.0
C      1  0.4062510000000  0.4478660000000  0.5502900000000 1.0
C      1  0.5502330000000  0.4522450000000  0.4990240000000 1.0
C      1  0.5723810000000  0.4088390000000  0.4977820000000 1.0
C      1  0.4678730000000  0.4424960000000  0.6194270000000 1.0
C      1  0.4539400000000  0.5433160000000  0.5793180000000 1.0
C      1  0.4716110000000  0.4511410000000  0.3945450000000 1.0
C      1  0.5178080000000  0.5022750000000  0.3583660000000 1.0
C      1  0.4871350000000  0.4070510000000  0.4427230000000 1.0
C      1  0.4590090000000  0.4621650000000  0.5774440000000 1.0
C      1  0.5251740000000  0.4492230000000  0.4844580000000 1.0
C      1  0.5813640000000  0.4376880000000  0.4583560000000 1.0
C      1  0.5046560000000  0.6314450000000  0.4193070000000 1.0
C      1  0.5865970000000  0.4898240000000  0.6055460000000 1.0
C      1  0.5179360000000  0.5411000000000  0.5591190000000 1.0
C      1  0.4662270000000  0.4345490000000  0.5346600000000 1.0
C      1  0.5164310000000  0.5793360000000  0.6208300000000 1.0
C      1  0.5868330000000  0.4923110000000  0.4187590000000 1.0
C      1  0.6153700000000  0.4233120000000  0.4081740000000 1.0
C      1  0.6071300000000  0.3856220000000  0.4432760000000 1.0
C      1  0.4495510000000  0.4878530000000  0.5673060000000 1.0
C      1  0.6583170000000  0.5934350000000  0.4458180000000 1.0
C      1  0.3804530000000  0.5000810000000  0.5039290000000 1.0
C      1  0.4580770000000  0.4030670000000  0.4457510000000 1.0
C      1  0.4555010000000  0.4066520000000  0.3970920000000 1.0
C      1  0.3711030000000  0.4724940000000  0.5053780000000 1.0
C      1  0.3876470000000  0.4488330000000  0.5015380000000 1.0
C      1  0.4715910000000  0.6035630000000  0.4433460000000 1.0
C      1  0.4701000000000  0.5394210000000  0.4037960000000 1.0
C      1  0.3444070000000  0.4684340000000  0.5108680000000 1.0
C      1  0.4113910000000  0.5885710000000  0.4900090000000 1.0
C      1  0.5068590000000  0.4877550000000  0.5061130000000 1.0
C      1  0.4920180000000  0.4665650000000  0.4074970000000 1.0
C      1  0.4624600000000  0.5769230000000  0.4366640000000 1.0
C      1  0.4933440000000  0.5130090000000  0.3627780000000 1.0
C      1  0.4783700000000  0.5157180000000  0.3865440000000 1.0
C      1  0.4476430000000  0.4501970000000  0.6011420000000 1.0
C      1  0.4862880000000  0.5328450000000  0.4276200000000 1.0
C      1  0.5069080000000  0.4119280000000  0.5298300000000 1.0
C      1  0.4389240000000  0.6008130000000  0.4905900000000 1.0
C      1  0.4907360000000  0.5881730000000  0.6232540000000 1.0
C      1  0.5784910000000  0.5158540000000  0.5400990000000 1.0
C      1  0.4698610000000  0.5676000000000  0.4870970000000 1.0
C      1  0.3975620000000  0.5204110000000  0.4615760000000 1.0
C      1  0.4942880000000  0.5816080000000  0.4830170000000 1.0
C      1  0.5408900000000  0.5434900000000  0.3881420000000 1.0
C      1  0.5294070000000  0.5712460000000  0.5262060000000 1.0
C      1  0.4315080000000  0.4803370000000  0.4111500000000 1.0
C      1  0.4453270000000  0.5725960000000  0.5388240000000 1.0
C      1  0.4428170000000  0.4089810000000  0.4220170000000 1.0
C      1  0.4412680000000  0.5258330000000  0.5088820000000 1.0
C      1  0.5138420000000  0.5740590000000  0.4646960000000 1.0
C      1  0.5261830000000  0.3893400000000  0.5695130000000 1.0
C      1  0.5674350000000  0.4326680000000  0.4818580000000 1.0
C      1  0.4801130000000  0.4345380000000  0.4874710000000 1.0
C      1  0.3868630000000  0.5470710000000  0.4668790000000 1.0
C      1  0.5707170000000  0.6058290000000  0.5630400000000 1.0
C      1  0.5271970000000  0.5437520000000  0.5872110000000 1.0
C      1  0.4616390000000  0.4999760000000  0.5438000000000 1.0
C      1  0.4751930000000  0.5356410000000  0.6218550000000 1.0
C      1  0.4415530000000  0.4011780000000  0.4702200000000 1.0
C      1  0.5031920000000  0.5603660000000  0.5214120000000 1.0
END
