TITL C-599890-3321-680 5.35634645955036 125000 -511.830304826134 0 0 86 (C1) n - 1
REM
REM in /home/nfs/bkarasulu/CARBON/AIRSS/Generating-Clusters/TERSOFF/Only-C1/FIRE-HFTN
REM
REM
REM
REM
REM
REM ./C.cell (11c1c37f851c82e70ff6c80c92926a4b)
REM AIRSS Version 0.9.1 bugfix July 2018 build 013d7b7c2542+ Fri, 06 Jul 2018 19:26:36 +0100
REM compiler GCC version 9.2.1 20190827 (Red Hat 9.2.1-1)
REM options -cpp -mtune=generic -march=x86-64 -g -O0 -fpre-include=/usr/include/finclude/math-vector-fortran.h
REM seed 1140318310 -2052394592 471564576 -1267539855 -291332968 -2144169752 -846606908 -90433182 998820760 -729717874 -678631389 417759157 -1473046585 -141106675 704666801 -2029272300 305052437 1232695054 1039321892 117595051 1433157167 -1438608397 -1604795003 -695002557 -844460049 1433256487 23261826 -492472212 2088561730 -1004817010 1943545616 -1835280167 -1232203628
REM
CELL 1.54180   50.00000   50.00000   50.00000   90.00000   90.00000   90.00000
LATT -1
SFAC C  
C      1  0.4717870000000  0.5365620000000  0.5357490000000 1.0
C      1  0.5199970000000  0.5709370000000  0.4729280000000 1.0
C      1  0.5879200000000  0.5093470000000  0.5256980000000 1.0
C      1  0.4816200000000  0.4591470000000  0.4370280000000 1.0
C      1  0.4241400000000  0.5203120000000  0.4602840000000 1.0
C      1  0.5183140000000  0.5198200000000  0.4302400000000 1.0
C      1  0.4876860000000  0.4351680000000  0.5472470000000 1.0
C      1  0.4936850000000  0.5771840000000  0.4628370000000 1.0
C      1  0.4594850000000  0.4459110000000  0.4496260000000 1.0
C      1  0.5068240000000  0.4645690000000  0.4521050000000 1.0
C      1  0.5379480000000  0.5840280000000  0.4906450000000 1.0
C      1  0.3969590000000  0.4662990000000  0.5206690000000 1.0
C      1  0.5022600000000  0.4810210000000  0.4754620000000 1.0
C      1  0.4932770000000  0.5486880000000  0.5933840000000 1.0
C      1  0.5219290000000  0.4942660000000  0.4176460000000 1.0
C      1  0.4302440000000  0.4763070000000  0.4866650000000 1.0
C      1  0.4860180000000  0.5650540000000  0.6123190000000 1.0
C      1  0.2970260000000  0.4813990000000  0.5525980000000 1.0
C      1  0.4770930000000  0.4756260000000  0.4131940000000 1.0
C      1  0.4842650000000  0.5326550000000  0.4883820000000 1.0
C      1  0.5324650000000  0.4382420000000  0.5684160000000 1.0
C      1  0.4413110000000  0.4603090000000  0.4660090000000 1.0
C      1  0.5370850000000  0.4360930000000  0.4941510000000 1.0
C      1  0.5330940000000  0.5119990000000  0.5410020000000 1.0
C      1  0.4337620000000  0.5937550000000  0.4995190000000 1.0
C      1  0.5958170000000  0.4900080000000  0.4529930000000 1.0
C      1  0.5971600000000  0.5130960000000  0.4978880000000 1.0
C      1  0.4977980000000  0.4100020000000  0.5878370000000 1.0
C      1  0.4400630000000  0.5207940000000  0.5043120000000 1.0
C      1  0.5753100000000  0.4844210000000  0.5334420000000 1.0
C      1  0.4412060000000  0.4483450000000  0.5278630000000 1.0
C      1  0.4234080000000  0.4635630000000  0.5117360000000 1.0
C      1  0.5589900000000  0.5751660000000  0.5054030000000 1.0
C      1  0.5519550000000  0.4584830000000  0.5735750000000 1.0
C      1  0.5892260000000  0.5397060000000  0.4886880000000 1.0
C      1  0.5787370000000  0.5042320000000  0.4375600000000 1.0
C      1  0.5288240000000  0.4904170000000  0.5191520000000 1.0
C      1  0.5731610000000  0.5463460000000  0.5590580000000 1.0
C      1  0.4428030000000  0.5150470000000  0.4171760000000 1.0
C      1  0.6311270000000  0.4210280000000  0.4811510000000 1.0
C      1  0.6040500000000  0.4941550000000  0.4783730000000 1.0
C      1  0.5299300000000  0.5228470000000  0.5700120000000 1.0
C      1  0.5048390000000  0.4761360000000  0.5310750000000 1.0
C      1  0.5845410000000  0.4440830000000  0.4914170000000 1.0
C      1  0.5381720000000  0.5318130000000  0.4467530000000 1.0
C      1  0.5129460000000  0.4347620000000  0.5054380000000 1.0
C      1  0.5007690000000  0.4856840000000  0.4005860000000 1.0
C      1  0.4540660000000  0.4916660000000  0.4103750000000 1.0
C      1  0.4595820000000  0.4366720000000  0.5439030000000 1.0
C      1  0.5821690000000  0.5445190000000  0.4620120000000 1.0
C      1  0.6543380000000  0.4104240000000  0.4758170000000 1.0
C      1  0.5270930000000  0.5432120000000  0.4706510000000 1.0
C      1  0.3220180000000  0.4775890000000  0.5446290000000 1.0
C      1  0.5661900000000  0.5285570000000  0.4448330000000 1.0
C      1  0.4876690000000  0.4925050000000  0.5467350000000 1.0
C      1  0.2724460000000  0.4851470000000  0.5604360000000 1.0
C      1  0.5128240000000  0.5268350000000  0.4890390000000 1.0
C      1  0.5014700000000  0.5313300000000  0.5732500000000 1.0
C      1  0.5500710000000  0.5445090000000  0.5725850000000 1.0
C      1  0.5733490000000  0.4683200000000  0.5569930000000 1.0
C      1  0.4650730000000  0.5731590000000  0.4598300000000 1.0
C      1  0.5443670000000  0.4769960000000  0.5934200000000 1.0
C      1  0.4915360000000  0.5258640000000  0.4388890000000 1.0
C      1  0.4490560000000  0.5851450000000  0.4796750000000 1.0
C      1  0.3719870000000  0.4699730000000  0.5286950000000 1.0
C      1  0.5182080000000  0.4988370000000  0.4923880000000 1.0
C      1  0.5773980000000  0.5543500000000  0.5105190000000 1.0
C      1  0.4189220000000  0.6008390000000  0.5197450000000 1.0
C      1  0.4765420000000  0.4926920000000  0.4702760000000 1.0
C      1  0.5286440000000  0.4730720000000  0.4357890000000 1.0
C      1  0.4841190000000  0.5196340000000  0.5541940000000 1.0
C      1  0.5010380000000  0.4487150000000  0.5263800000000 1.0
C      1  0.4284030000000  0.5052290000000  0.4839510000000 1.0
C      1  0.6075900000000  0.4319800000000  0.4864940000000 1.0
C      1  0.4376550000000  0.5329740000000  0.4386870000000 1.0
C      1  0.4503180000000  0.5594650000000  0.4385270000000 1.0
C      1  0.5548500000000  0.4758350000000  0.5150350000000 1.0
C      1  0.4559950000000  0.4190020000000  0.4458580000000 1.0
C      1  0.5357020000000  0.5019940000000  0.5904050000000 1.0
C      1  0.5057350000000  0.4274080000000  0.5682660000000 1.0
C      1  0.3470030000000  0.4737800000000  0.5366630000000 1.0
C      1  0.5808130000000  0.5371500000000  0.5339230000000 1.0
C      1  0.4648890000000  0.5331650000000  0.5090430000000 1.0
C      1  0.5591250000000  0.4527080000000  0.4989320000000 1.0
C      1  0.4475590000000  0.5738480000000  0.4149980000000 1.0
C      1  0.4771580000000  0.5200730000000  0.4628710000000 1.0
END
