TITL C-599892-9790-65 -0.00732558217422805 125000 -406.516574032941 0 0 67 (C1) n - 1
REM
REM in /home/nfs/bkarasulu/CARBON/AIRSS/Generating-Clusters/TERSOFF/Only-C1/FIRE-HFTN
REM
REM
REM
REM
REM
REM ./C.cell (11c1c37f851c82e70ff6c80c92926a4b)
REM AIRSS Version 0.9.1 bugfix July 2018 build 013d7b7c2542+ Fri, 06 Jul 2018 19:26:36 +0100
REM compiler GCC version 9.2.1 20190827 (Red Hat 9.2.1-1)
REM options -cpp -mtune=generic -march=x86-64 -g -O0 -fpre-include=/usr/include/finclude/math-vector-fortran.h
REM seed -1392578305 -1538760161 899124343 1333565049 1890428919 -804976104 826404675 -2111503903 -335368822 640382779 78089616 -1864704205 -1447790274 -1734050124 -750635242 -477977019 941255908 1839490742 701236129 -477426876 132332217 352285407 -1614343302 -2085714986 334913569 -1060608781 581816063 1414792244 -264721578 1941549411 -649834960 -1963283169 858482644
REM
CELL 1.54180   50.00000   50.00000   50.00000   90.00000   90.00000   90.00000
LATT -1
SFAC C  
C      1  0.5536330000000  0.5512410000000  0.4918500000000 1.0
C      1  0.5439800000000  0.4746470000000  0.5009840000000 1.0
C      1  0.4991900000000  0.5761340000000  0.5713890000000 1.0
C      1  0.5011190000000  0.4179990000000  0.4873470000000 1.0
C      1  0.4989790000000  0.4485550000000  0.5436530000000 1.0
C      1  0.4896260000000  0.4795010000000  0.4624090000000 1.0
C      1  0.4727300000000  0.4555090000000  0.4226000000000 1.0
C      1  0.4784650000000  0.4682510000000  0.5466220000000 1.0
C      1  0.5430320000000  0.4782690000000  0.5490390000000 1.0
C      1  0.5124230000000  0.5644780000000  0.5912380000000 1.0
C      1  0.4793910000000  0.4930030000000  0.5318350000000 1.0
C      1  0.4284500000000  0.4386640000000  0.4263210000000 1.0
C      1  0.4558700000000  0.5408790000000  0.3940790000000 1.0
C      1  0.4866070000000  0.4787820000000  0.5945500000000 1.0
C      1  0.5022320000000  0.4086310000000  0.5137240000000 1.0
C      1  0.4823930000000  0.5514980000000  0.5085040000000 1.0
C      1  0.4956780000000  0.4220080000000  0.5359370000000 1.0
C      1  0.5680000000000  0.5252050000000  0.6205160000000 1.0
C      1  0.5920360000000  0.5137150000000  0.6165720000000 1.0
C      1  0.5021730000000  0.5364010000000  0.4448690000000 1.0
C      1  0.5980170000000  0.4956120000000  0.5974800000000 1.0
C      1  0.5152240000000  0.4800640000000  0.4499450000000 1.0
C      1  0.4751300000000  0.4219280000000  0.4775070000000 1.0
C      1  0.5050680000000  0.5426570000000  0.4933030000000 1.0
C      1  0.5238900000000  0.4304520000000  0.4751290000000 1.0
C      1  0.4715980000000  0.5040770000000  0.5060560000000 1.0
C      1  0.5167450000000  0.5241130000000  0.5454410000000 1.0
C      1  0.5543110000000  0.4065660000000  0.4458750000000 1.0
C      1  0.5440920000000  0.4919100000000  0.5235130000000 1.0
C      1  0.4398330000000  0.4696480000000  0.3890160000000 1.0
C      1  0.4614620000000  0.5315100000000  0.5096080000000 1.0
C      1  0.4391610000000  0.4943420000000  0.3791730000000 1.0
C      1  0.5004030000000  0.6083290000000  0.4489000000000 1.0
C      1  0.4803560000000  0.5768420000000  0.5207830000000 1.0
C      1  0.4886760000000  0.5799600000000  0.5473320000000 1.0
C      1  0.3844480000000  0.5508610000000  0.5215400000000 1.0
C      1  0.4967760000000  0.5266880000000  0.4710910000000 1.0
C      1  0.5290320000000  0.4970640000000  0.4344000000000 1.0
C      1  0.4961620000000  0.4421430000000  0.4146210000000 1.0
C      1  0.4842620000000  0.5014510000000  0.4797060000000 1.0
C      1  0.5344590000000  0.5190540000000  0.5239200000000 1.0
C      1  0.4092510000000  0.5439920000000  0.5173890000000 1.0
C      1  0.4469720000000  0.4531400000000  0.4102160000000 1.0
C      1  0.5810570000000  0.4852690000000  0.5793320000000 1.0
C      1  0.5433350000000  0.5237420000000  0.6069530000000 1.0
C      1  0.5535620000000  0.4877110000000  0.5736370000000 1.0
C      1  0.4715480000000  0.4610870000000  0.4510990000000 1.0
C      1  0.5250940000000  0.4567480000000  0.5499120000000 1.0
C      1  0.5225250000000  0.5229340000000  0.4307060000000 1.0
C      1  0.5319390000000  0.4220500000000  0.4489250000000 1.0
C      1  0.4701600000000  0.5534790000000  0.4125390000000 1.0
C      1  0.4882470000000  0.5581770000000  0.4333360000000 1.0
C      1  0.5167350000000  0.4296380000000  0.4264160000000 1.0
C      1  0.5361640000000  0.4991940000000  0.5938000000000 1.0
C      1  0.5272890000000  0.5463760000000  0.6037190000000 1.0
C      1  0.4580550000000  0.4398360000000  0.4647790000000 1.0
C      1  0.4334020000000  0.4328310000000  0.4525120000000 1.0
C      1  0.4708020000000  0.4713350000000  0.5739760000000 1.0
C      1  0.4345290000000  0.5372350000000  0.5132540000000 1.0
C      1  0.4932720000000  0.5842140000000  0.4420620000000 1.0
C      1  0.5371910000000  0.4520320000000  0.4880660000000 1.0
C      1  0.4700780000000  0.5980910000000  0.5069580000000 1.0
C      1  0.5732850000000  0.5634880000000  0.4798970000000 1.0
C      1  0.4923600000000  0.5131440000000  0.5477490000000 1.0
C      1  0.4449630000000  0.5201710000000  0.3815310000000 1.0
C      1  0.5317560000000  0.5379840000000  0.5027590000000 1.0
C      1  0.5113150000000  0.4874580000000  0.6001000000000 1.0
END
