TITL C-599897-7526-701 -2.52055918446018e-05 125000 -869.763783786448 0 0 140 (C1) n - 1
REM
REM in /home/nfs/bkarasulu/CARBON/AIRSS/Generating-Clusters/TERSOFF/Only-C1/FIRE-HFTN
REM
REM
REM
REM
REM
REM ./C.cell (11c1c37f851c82e70ff6c80c92926a4b)
REM AIRSS Version 0.9.1 bugfix July 2018 build 013d7b7c2542+ Fri, 06 Jul 2018 19:26:36 +0100
REM compiler GCC version 9.2.1 20190827 (Red Hat 9.2.1-1)
REM options -cpp -mtune=generic -march=x86-64 -g -O0 -fpre-include=/usr/include/finclude/math-vector-fortran.h
REM seed 1452280836 1176354795 866318796 649714130 -1051711094 981970565 -2089073880 -637507723 -1836733614 -611935356 1136671736 327452631 2093958886 -1519882450 -888398039 954062784 1922167752 -1824764829 228295092 435528574 -1199574980 -1980779426 -1387127522 1800640574 -1072248481 -1157399164 1213236658 267552818 -758869228 -1105616953 -1861570476 1159425266 181167081
REM
CELL 1.54180   50.00000   50.00000   50.00000   90.00000   90.00000   90.00000
LATT -1
SFAC C  
C      1  0.6280950000000  0.4663680000000  0.4202740000000 1.0
C      1  0.5073540000000  0.5520620000000  0.4990010000000 1.0
C      1  0.4890550000000  0.5593370000000  0.5553300000000 1.0
C      1  0.4431430000000  0.4122740000000  0.4784040000000 1.0
C      1  0.5246890000000  0.5997540000000  0.5194520000000 1.0
C      1  0.5040240000000  0.4719440000000  0.4510370000000 1.0
C      1  0.4995120000000  0.4993660000000  0.4513270000000 1.0
C      1  0.5660690000000  0.4680090000000  0.4758480000000 1.0
C      1  0.5423770000000  0.5161560000000  0.4301800000000 1.0
C      1  0.5755990000000  0.4794280000000  0.5563310000000 1.0
C      1  0.5354190000000  0.5717410000000  0.3847710000000 1.0
C      1  0.4890700000000  0.4696980000000  0.5386570000000 1.0
C      1  0.5320340000000  0.4224560000000  0.4808770000000 1.0
C      1  0.4900390000000  0.4902310000000  0.3984290000000 1.0
C      1  0.5144110000000  0.5491860000000  0.5509610000000 1.0
C      1  0.4792190000000  0.5889510000000  0.4617890000000 1.0
C      1  0.3983930000000  0.5016140000000  0.5541160000000 1.0
C      1  0.4522430000000  0.5866890000000  0.4528870000000 1.0
C      1  0.5939390000000  0.4811470000000  0.5324440000000 1.0
C      1  0.5026610000000  0.4139870000000  0.5378800000000 1.0
C      1  0.4643440000000  0.5488980000000  0.4752640000000 1.0
C      1  0.4901710000000  0.4544600000000  0.4683100000000 1.0
C      1  0.4916090000000  0.4619580000000  0.6109760000000 1.0
C      1  0.5549650000000  0.4945290000000  0.4795840000000 1.0
C      1  0.6301750000000  0.4709500000000  0.4464530000000 1.0
C      1  0.5277830000000  0.5403960000000  0.4228200000000 1.0
C      1  0.5437730000000  0.4762670000000  0.5235170000000 1.0
C      1  0.4602630000000  0.4271600000000  0.4267820000000 1.0
C      1  0.5199450000000  0.5248090000000  0.3789470000000 1.0
C      1  0.5058170000000  0.4314320000000  0.4737170000000 1.0
C      1  0.5844850000000  0.4508090000000  0.4002830000000 1.0
C      1  0.4883290000000  0.4198650000000  0.4222430000000 1.0
C      1  0.5514070000000  0.5104460000000  0.4564660000000 1.0
C      1  0.4983110000000  0.4562390000000  0.5639600000000 1.0
C      1  0.3864470000000  0.5277040000000  0.5531480000000 1.0
C      1  0.5533390000000  0.4329120000000  0.5359720000000 1.0
C      1  0.4311460000000  0.5470090000000  0.5880860000000 1.0
C      1  0.5479970000000  0.4991710000000  0.5076760000000 1.0
C      1  0.4818990000000  0.4620950000000  0.4003550000000 1.0
C      1  0.4650290000000  0.4038470000000  0.4969100000000 1.0
C      1  0.3928030000000  0.5365060000000  0.4653740000000 1.0
C      1  0.4522410000000  0.4372730000000  0.5465260000000 1.0
C      1  0.5007510000000  0.4440750000000  0.4126520000000 1.0
C      1  0.6167730000000  0.4705210000000  0.4694090000000 1.0
C      1  0.4615180000000  0.5267160000000  0.4586490000000 1.0
C      1  0.4782910000000  0.5166850000000  0.5879740000000 1.0
C      1  0.4491190000000  0.5061290000000  0.4733300000000 1.0
C      1  0.5053590000000  0.4279170000000  0.5622710000000 1.0
C      1  0.4384900000000  0.4504550000000  0.5251980000000 1.0
C      1  0.5170790000000  0.5983740000000  0.4905880000000 1.0
C      1  0.4972540000000  0.6368910000000  0.5780100000000 1.0
C      1  0.5275980000000  0.4602190000000  0.5068790000000 1.0
C      1  0.4998980000000  0.6089480000000  0.5321680000000 1.0
C      1  0.5211200000000  0.4998470000000  0.5599780000000 1.0
C      1  0.4450240000000  0.5001190000000  0.4124450000000 1.0
C      1  0.4191320000000  0.4679750000000  0.4634270000000 1.0
C      1  0.5033680000000  0.5473000000000  0.4372750000000 1.0
C      1  0.4866440000000  0.6002020000000  0.4880120000000 1.0
C      1  0.4755630000000  0.4945810000000  0.5420050000000 1.0
C      1  0.4002090000000  0.4889320000000  0.5281390000000 1.0
C      1  0.5182590000000  0.5447040000000  0.6029190000000 1.0
C      1  0.5346640000000  0.4937500000000  0.6125260000000 1.0
C      1  0.4073980000000  0.4457520000000  0.4735020000000 1.0
C      1  0.5511030000000  0.4193780000000  0.4181990000000 1.0
C      1  0.4664040000000  0.5082800000000  0.5198140000000 1.0
C      1  0.4548100000000  0.4530760000000  0.5026730000000 1.0
C      1  0.4181720000000  0.4982810000000  0.5750230000000 1.0
C      1  0.5739800000000  0.5310160000000  0.5583240000000 1.0
C      1  0.5923680000000  0.4588300000000  0.5127200000000 1.0
C      1  0.4174480000000  0.4228560000000  0.4841770000000 1.0
C      1  0.5010950000000  0.4613070000000  0.5147130000000 1.0
C      1  0.4450370000000  0.4793040000000  0.4663660000000 1.0
C      1  0.5565400000000  0.5508600000000  0.5710360000000 1.0
C      1  0.5572550000000  0.5535290000000  0.4921510000000 1.0
C      1  0.6098880000000  0.4583920000000  0.4024990000000 1.0
C      1  0.5087470000000  0.5039000000000  0.6238880000000 1.0
C      1  0.4557130000000  0.4524690000000  0.4112920000000 1.0
C      1  0.4229260000000  0.5259560000000  0.5093420000000 1.0
C      1  0.4466590000000  0.5136100000000  0.5011190000000 1.0
C      1  0.4642990000000  0.4614340000000  0.4778400000000 1.0
C      1  0.5523260000000  0.5711390000000  0.4703290000000 1.0
C      1  0.5533690000000  0.5103840000000  0.5972590000000 1.0
C      1  0.5987480000000  0.5085430000000  0.5242050000000 1.0
C      1  0.5418280000000  0.4671520000000  0.4186320000000 1.0
C      1  0.5030220000000  0.5734310000000  0.4511500000000 1.0
C      1  0.5771040000000  0.5554020000000  0.5138160000000 1.0
C      1  0.5450480000000  0.5389150000000  0.5949140000000 1.0
C      1  0.4654700000000  0.5003140000000  0.5681810000000 1.0
C      1  0.4766780000000  0.6007780000000  0.5159340000000 1.0
C      1  0.4371210000000  0.4738930000000  0.4122500000000 1.0
C      1  0.5420870000000  0.5955060000000  0.3764110000000 1.0
C      1  0.5177500000000  0.4583250000000  0.4301330000000 1.0
C      1  0.5596490000000  0.4458920000000  0.4119110000000 1.0
C      1  0.4982510000000  0.5249230000000  0.6071140000000 1.0
C      1  0.4279240000000  0.5747680000000  0.4521460000000 1.0
C      1  0.4170190000000  0.5511940000000  0.5213290000000 1.0
C      1  0.4330300000000  0.5741140000000  0.5181150000000 1.0
C      1  0.4002890000000  0.5080730000000  0.5062480000000 1.0
C      1  0.4814440000000  0.5525280000000  0.4951350000000 1.0
C      1  0.4490870000000  0.4156520000000  0.4501280000000 1.0
C      1  0.3956640000000  0.5496850000000  0.5400940000000 1.0
C      1  0.5328150000000  0.5423210000000  0.5013190000000 1.0
C      1  0.5256990000000  0.4702490000000  0.5990770000000 1.0
C      1  0.5267640000000  0.5834700000000  0.4671590000000 1.0
C      1  0.4741000000000  0.4150360000000  0.5279290000000 1.0
C      1  0.4451700000000  0.5650490000000  0.5740630000000 1.0
C      1  0.5939950000000  0.4662140000000  0.4844420000000 1.0
C      1  0.4213430000000  0.5220820000000  0.5908020000000 1.0
C      1  0.3866010000000  0.5163760000000  0.4827210000000 1.0
C      1  0.4986350000000  0.6242880000000  0.5552450000000 1.0
C      1  0.5346150000000  0.5207580000000  0.5181110000000 1.0
C      1  0.4724650000000  0.5087080000000  0.4131800000000 1.0
C      1  0.5048760000000  0.3998610000000  0.4341800000000 1.0
C      1  0.4140570000000  0.4643710000000  0.5266640000000 1.0
C      1  0.5212850000000  0.5223390000000  0.5431150000000 1.0
C      1  0.5447600000000  0.5856850000000  0.5351970000000 1.0
C      1  0.5376180000000  0.5656030000000  0.5548630000000 1.0
C      1  0.5706960000000  0.4373980000000  0.5120700000000 1.0
C      1  0.5307140000000  0.4129180000000  0.5282450000000 1.0
C      1  0.5493260000000  0.4455820000000  0.4890290000000 1.0
C      1  0.5280780000000  0.5469860000000  0.3947990000000 1.0
C      1  0.5197330000000  0.4744640000000  0.5725790000000 1.0
C      1  0.5706560000000  0.5039310000000  0.5724590000000 1.0
C      1  0.5166700000000  0.4996880000000  0.3919740000000 1.0
C      1  0.5853650000000  0.5329850000000  0.5314930000000 1.0
C      1  0.4835760000000  0.5225360000000  0.4388120000000 1.0
C      1  0.5334250000000  0.4026860000000  0.5014310000000 1.0
C      1  0.5543450000000  0.4614230000000  0.5466710000000 1.0
C      1  0.4839660000000  0.3878340000000  0.4821120000000 1.0
C      1  0.4639600000000  0.5715230000000  0.5540270000000 1.0
C      1  0.4958020000000  0.3862640000000  0.4576350000000 1.0
C      1  0.5385460000000  0.4943480000000  0.4110280000000 1.0
C      1  0.4568240000000  0.5845220000000  0.5291650000000 1.0
C      1  0.4781060000000  0.4549010000000  0.5869850000000 1.0
C      1  0.4080280000000  0.5569420000000  0.4563110000000 1.0
C      1  0.4903490000000  0.4824150000000  0.6298320000000 1.0
C      1  0.5714890000000  0.5812050000000  0.5258350000000 1.0
C      1  0.4422540000000  0.4826320000000  0.5732340000000 1.0
C      1  0.5322970000000  0.4019150000000  0.4266040000000 1.0
C      1  0.4525080000000  0.4541780000000  0.5722730000000 1.0
END
