TITL C-599895-9959-565 1021.04770449182 125000 -595.286241316821 0 0 99 (C1) n - 1
REM
REM in /home/nfs/bkarasulu/CARBON/AIRSS/Generating-Clusters/TERSOFF/Only-C1/FIRE-HFTN
REM
REM
REM
REM
REM
REM ./C.cell (11c1c37f851c82e70ff6c80c92926a4b)
REM AIRSS Version 0.9.1 bugfix July 2018 build 013d7b7c2542+ Fri, 06 Jul 2018 19:26:36 +0100
REM compiler GCC version 9.2.1 20190827 (Red Hat 9.2.1-1)
REM options -cpp -mtune=generic -march=x86-64 -g -O0 -fpre-include=/usr/include/finclude/math-vector-fortran.h
REM seed 808389218 -300245364 -1516513024 -853227113 1816185906 -1186048041 1534605139 -577094883 -911588179 465807200 781538673 1432078132 1463136307 684858506 -1712519217 143013675 1998195696 242180607 -2140072248 445116788 -256378036 1584484231 -1381001729 -114845667 330005289 -1130259801 -729126330 -928152368 -1382058006 -1394688360 354322693 1801138583 -793302541
REM
CELL 1.54180   50.00000   50.00000   50.00000   90.00000   90.00000   90.00000
LATT -1
SFAC C  
C      1  0.6044460000000  0.5227320000000  0.5259290000000 1.0
C      1  0.4307270000000  0.5512200000000  0.5843360000000 1.0
C      1  0.5218460000000  0.5326810000000  0.6025200000000 1.0
C      1  0.5250550000000  0.4891180000000  0.4654530000000 1.0
C      1  0.5011390000000  0.4618040000000  0.4314050000000 1.0
C      1  0.5503940000000  0.5380940000000  0.4932090000000 1.0
C      1  0.4785630000000  0.4564690000000  0.4773180000000 1.0
C      1  0.5542090000000  0.5169260000000  0.5648410000000 1.0
C      1  0.5057040000000  0.5848760000000  0.5001100000000 1.0
C      1  0.4330580000000  0.5187740000000  0.5493080000000 1.0
C      1  0.4640140000000  0.4941360000000  0.4163040000000 1.0
C      1  0.4561480000000  0.4295020000000  0.4254480000000 1.0
C      1  0.5744710000000  0.4543250000000  0.5694000000000 1.0
C      1  0.4557430000000  0.5946010000000  0.4675860000000 1.0
C      1  0.5390890000000  0.5180860000000  0.5883230000000 1.0
C      1  0.4576730000000  0.5083160000000  0.4645830000000 1.0
C      1  0.5346440000000  0.4334970000000  0.5136700000000 1.0
C      1  0.5413170000000  0.5230270000000  0.5161780000000 1.0
C      1  0.5463150000000  0.5330650000000  0.5423330000000 1.0
C      1  0.5910610000000  0.5208560000000  0.4721200000000 1.0
C      1  0.5457870000000  0.4446160000000  0.4479180000000 1.0
C      1  0.4339270000000  0.4485990000000  0.4623280000000 1.0
C      1  0.6018670000000  0.4965870000000  0.5119600000000 1.0
C      1  0.4101710000000  0.4530800000000  0.4785570000000 1.0
C      1  0.5293870000000  0.4789000000000  0.4916640000000 1.0
C      1  0.4443130000000  0.5324140000000  0.4593230000000 1.0
C      1  0.4222900000000  0.5378560000000  0.4139390000000 1.0
C      1  0.4636590000000  0.5175180000000  0.4023470000000 1.0
C      1  0.4682600000000  0.4632120000000  0.5251970000000 1.0
C      1  0.5949380000000  0.4950700000000  0.4840110000000 1.0
C      1  0.4156040000000  0.5325720000000  0.4602790000000 1.0
C      1  0.5031150000000  0.5795960000000  0.5562570000000 1.0
C      1  0.3946850000000  0.4296940000000  0.4706170000000 1.0
C      1  0.5831260000000  0.4769380000000  0.5550870000000 1.0
C      1  0.5093250000000  0.5618120000000  0.4847840000000 1.0
C      1  0.4681120000000  0.4996140000000  0.4897410000000 1.0
C      1  0.5524000000000  0.5612910000000  0.5422560000000 1.0
C      1  0.5228730000000  0.4513790000000  0.4953370000000 1.0
C      1  0.5301840000000  0.5781720000000  0.5470740000000 1.0
C      1  0.5990080000000  0.5271950000000  0.4463140000000 1.0
C      1  0.4104120000000  0.5210560000000  0.4344080000000 1.0
C      1  0.5797000000000  0.5041240000000  0.5634400000000 1.0
C      1  0.4121070000000  0.5270600000000  0.4883300000000 1.0
C      1  0.4665010000000  0.5567400000000  0.4315100000000 1.0
C      1  0.5865610000000  0.4468310000000  0.5933470000000 1.0
C      1  0.4268380000000  0.3851750000000  0.4954970000000 1.0
C      1  0.4812610000000  0.5912320000000  0.5129720000000 1.0
C      1  0.4843780000000  0.4641690000000  0.5483690000000 1.0
C      1  0.4514800000000  0.4878670000000  0.4431590000000 1.0
C      1  0.4084880000000  0.4742140000000  0.4984690000000 1.0
C      1  0.4628360000000  0.5456210000000  0.4957450000000 1.0
C      1  0.5980930000000  0.4405200000000  0.6163490000000 1.0
C      1  0.6012910000000  0.5205040000000  0.5542380000000 1.0
C      1  0.5688390000000  0.4555860000000  0.4568700000000 1.0
C      1  0.4235700000000  0.4951250000000  0.5406890000000 1.0
C      1  0.6094180000000  0.4343890000000  0.6390160000000 1.0
C      1  0.4115270000000  0.4102410000000  0.4555410000000 1.0
C      1  0.4612030000000  0.5985400000000  0.4939540000000 1.0
C      1  0.5486530000000  0.4116160000000  0.5051390000000 1.0
C      1  0.4216900000000  0.4718880000000  0.5241090000000 1.0
C      1  0.5786440000000  0.5392900000000  0.4898420000000 1.0
C      1  0.5921940000000  0.5460310000000  0.5141310000000 1.0
C      1  0.4407800000000  0.5440280000000  0.5597790000000 1.0
C      1  0.4781090000000  0.4810040000000  0.5697270000000 1.0
C      1  0.4995260000000  0.5734930000000  0.5835980000000 1.0
C      1  0.5783440000000  0.5655050000000  0.5306170000000 1.0
C      1  0.4857020000000  0.5410820000000  0.4477160000000 1.0
C      1  0.4361410000000  0.5391490000000  0.5015210000000 1.0
C      1  0.4581200000000  0.5624040000000  0.5468030000000 1.0
C      1  0.4723530000000  0.4923730000000  0.5924640000000 1.0
C      1  0.6108750000000  0.5387820000000  0.3964400000000 1.0
C      1  0.4336530000000  0.4259580000000  0.4439020000000 1.0
C      1  0.4419510000000  0.4522600000000  0.5272500000000 1.0
C      1  0.4211380000000  0.4935770000000  0.4355270000000 1.0
C      1  0.5081550000000  0.4902110000000  0.4418610000000 1.0
C      1  0.4794570000000  0.5797130000000  0.5393470000000 1.0
C      1  0.4583430000000  0.5811730000000  0.4441410000000 1.0
C      1  0.5335380000000  0.4967670000000  0.5122380000000 1.0
C      1  0.6051640000000  0.5329900000000  0.4212080000000 1.0
C      1  0.4571130000000  0.4631770000000  0.4589940000000 1.0
C      1  0.4988810000000  0.5172660000000  0.4379690000000 1.0
C      1  0.4782200000000  0.4461160000000  0.4208590000000 1.0
C      1  0.4335170000000  0.4006580000000  0.5162860000000 1.0
C      1  0.4012310000000  0.5013210000000  0.4933150000000 1.0
C      1  0.4748100000000  0.4741260000000  0.4999480000000 1.0
C      1  0.5313740000000  0.4386770000000  0.5413860000000 1.0
C      1  0.5066160000000  0.5545850000000  0.6011270000000 1.0
C      1  0.5435960000000  0.5609610000000  0.4511590000000 1.0
C      1  0.4510240000000  0.5414340000000  0.4116920000000 1.0
C      1  0.4178460000000  0.3869270000000  0.4701610000000 1.0
C      1  0.5853110000000  0.4720540000000  0.4704650000000 1.0
C      1  0.4374820000000  0.4246610000000  0.5272530000000 1.0
C      1  0.4857540000000  0.5479210000000  0.4766970000000 1.0
C      1  0.5172930000000  0.4444280000000  0.4489420000000 1.0
C      1  0.5957260000000  0.4750360000000  0.5295850000000 1.0
C      1  0.5064280000000  0.4473000000000  0.5501880000000 1.0
C      1  0.5043350000000  0.4436560000000  0.4749060000000 1.0
C      1  0.5532540000000  0.4397570000000  0.5585850000000 1.0
C      1  0.5345090000000  0.5534390000000  0.4758620000000 1.0
END
