TITL C-599896-8500-1208 51576.3274320829 125000 -954.536505658063 0 0 156 (C1) n - 1
REM
REM in /home/nfs/bkarasulu/CARBON/AIRSS/Generating-Clusters/TERSOFF/Only-C1/FIRE-HFTN
REM
REM
REM
REM
REM
REM ./C.cell (11c1c37f851c82e70ff6c80c92926a4b)
REM AIRSS Version 0.9.1 bugfix July 2018 build 013d7b7c2542+ Fri, 06 Jul 2018 19:26:36 +0100
REM compiler GCC version 9.2.1 20190827 (Red Hat 9.2.1-1)
REM options -cpp -mtune=generic -march=x86-64 -g -O0 -fpre-include=/usr/include/finclude/math-vector-fortran.h
REM seed -675886362 1748757008 -1142041819 1935202346 -689217500 -1768409827 -456278732 1862693861 1169506881 -1448705757 -254999837 -1732856780 -379067218 403484374 -185108761 -590231496 -1862364128 -593033602 979078923 -1399974863 -1678861752 -1659534669 -15518300 442329320 2017304417 1369286341 1228844064 1673638177 1273418452 -1179548553 1836910014 1776590265 1880039530
REM
CELL 1.54180   50.00000   50.00000   50.00000   90.00000   90.00000   90.00000
LATT -1
SFAC C  
C      1  0.5725520000000  0.4630260000000  0.5433060000000 1.0
C      1  0.4781450000000  0.6183950000000  0.4505140000000 1.0
C      1  0.5126000000000  0.5050830000000  0.5870770000000 1.0
C      1  0.5992220000000  0.4874130000000  0.4838530000000 1.0
C      1  0.5350150000000  0.6137240000000  0.4950380000000 1.0
C      1  0.5068470000000  0.5084260000000  0.4787910000000 1.0
C      1  0.5917350000000  0.4293820000000  0.3557870000000 1.0
C      1  0.5521860000000  0.4801390000000  0.5332960000000 1.0
C      1  0.5828850000000  0.4531230000000  0.3619660000000 1.0
C      1  0.5124130000000  0.4436050000000  0.5097840000000 1.0
C      1  0.5848020000000  0.5671090000000  0.4822970000000 1.0
C      1  0.4887400000000  0.6072410000000  0.5536100000000 1.0
C      1  0.6061200000000  0.5157110000000  0.4814010000000 1.0
C      1  0.6049300000000  0.4679580000000  0.5052770000000 1.0
C      1  0.4457610000000  0.5378780000000  0.5043480000000 1.0
C      1  0.5512600000000  0.4108630000000  0.5576080000000 1.0
C      1  0.5259880000000  0.5248860000000  0.5393460000000 1.0
C      1  0.5530590000000  0.4931250000000  0.5080130000000 1.0
C      1  0.4165230000000  0.4204550000000  0.4863920000000 1.0
C      1  0.5341920000000  0.5315880000000  0.3986900000000 1.0
C      1  0.5615000000000  0.4179650000000  0.5122120000000 1.0
C      1  0.5878730000000  0.4213780000000  0.5032770000000 1.0
C      1  0.4024230000000  0.4791780000000  0.4915650000000 1.0
C      1  0.6100260000000  0.4888480000000  0.5520310000000 1.0
C      1  0.4677540000000  0.5004640000000  0.3912200000000 1.0
C      1  0.4854810000000  0.3956780000000  0.5483530000000 1.0
C      1  0.4237670000000  0.6021770000000  0.5387460000000 1.0
C      1  0.4627400000000  0.5656650000000  0.5760490000000 1.0
C      1  0.4806380000000  0.5162550000000  0.5318020000000 1.0
C      1  0.4510000000000  0.6185870000000  0.4533430000000 1.0
C      1  0.4561150000000  0.4780850000000  0.4328590000000 1.0
C      1  0.5396520000000  0.4314270000000  0.4998800000000 1.0
C      1  0.5362640000000  0.3962260000000  0.6072720000000 1.0
C      1  0.3881380000000  0.4564300000000  0.4519900000000 1.0
C      1  0.4047790000000  0.5588820000000  0.5597260000000 1.0
C      1  0.4902430000000  0.3850130000000  0.4979790000000 1.0
C      1  0.5450680000000  0.4357790000000  0.4716680000000 1.0
C      1  0.5800330000000  0.4784130000000  0.4637210000000 1.0
C      1  0.4920780000000  0.3806520000000  0.5735740000000 1.0
C      1  0.4985050000000  0.5582720000000  0.4511200000000 1.0
C      1  0.5692720000000  0.5172530000000  0.5130990000000 1.0
C      1  0.5502990000000  0.5331800000000  0.4730380000000 1.0
C      1  0.5600090000000  0.5520370000000  0.5799110000000 1.0
C      1  0.4334560000000  0.4703390000000  0.5582540000000 1.0
C      1  0.4541550000000  0.5011150000000  0.4156730000000 1.0
C      1  0.5374570000000  0.3787000000000  0.5214090000000 1.0
C      1  0.4843540000000  0.4340700000000  0.5013790000000 1.0
C      1  0.5775630000000  0.4952780000000  0.4173720000000 1.0
C      1  0.4576430000000  0.5241650000000  0.6021450000000 1.0
C      1  0.4807990000000  0.5963490000000  0.4927320000000 1.0
C      1  0.4717130000000  0.5292330000000  0.5084340000000 1.0
C      1  0.4161600000000  0.4365130000000  0.5102990000000 1.0
C      1  0.4475880000000  0.4566130000000  0.5373380000000 1.0
C      1  0.5716840000000  0.4978360000000  0.4446220000000 1.0
C      1  0.5501320000000  0.5151000000000  0.4515200000000 1.0
C      1  0.4836020000000  0.3977680000000  0.4714440000000 1.0
C      1  0.4368710000000  0.5234590000000  0.4192350000000 1.0
C      1  0.4448010000000  0.5500630000000  0.4118610000000 1.0
C      1  0.4957420000000  0.5600930000000  0.3979290000000 1.0
C      1  0.5375010000000  0.5035450000000  0.3915940000000 1.0
C      1  0.5246540000000  0.4099160000000  0.5664330000000 1.0
C      1  0.4492350000000  0.4971420000000  0.5987710000000 1.0
C      1  0.5542100000000  0.3994740000000  0.5318470000000 1.0
C      1  0.4106080000000  0.5645830000000  0.4865520000000 1.0
C      1  0.5150970000000  0.4855560000000  0.3873560000000 1.0
C      1  0.4814790000000  0.4880810000000  0.5343330000000 1.0
C      1  0.5737360000000  0.5052410000000  0.5824270000000 1.0
C      1  0.5190930000000  0.4860970000000  0.5674740000000 1.0
C      1  0.5657240000000  0.5770050000000  0.4627490000000 1.0
C      1  0.4952560000000  0.6064370000000  0.4696080000000 1.0
C      1  0.4930690000000  0.4875600000000  0.4659500000000 1.0
C      1  0.4182510000000  0.5847950000000  0.4683610000000 1.0
C      1  0.5637100000000  0.4921890000000  0.3931180000000 1.0
C      1  0.6002110000000  0.5424620000000  0.4782900000000 1.0
C      1  0.4857890000000  0.4432900000000  0.4519890000000 1.0
C      1  0.5387450000000  0.5831880000000  0.4543080000000 1.0
C      1  0.5240200000000  0.6031620000000  0.4707300000000 1.0
C      1  0.4989850000000  0.5289780000000  0.5482900000000 1.0
C      1  0.4942740000000  0.5782600000000  0.5088250000000 1.0
C      1  0.5356520000000  0.4980340000000  0.5479270000000 1.0
C      1  0.5704510000000  0.4542340000000  0.5712280000000 1.0
C      1  0.5163710000000  0.5658810000000  0.5162060000000 1.0
C      1  0.4785110000000  0.4705070000000  0.4495460000000 1.0
C      1  0.4018110000000  0.5306680000000  0.5230150000000 1.0
C      1  0.5209840000000  0.5545360000000  0.4102230000000 1.0
C      1  0.5295350000000  0.5200210000000  0.6050990000000 1.0
C      1  0.5220660000000  0.5653220000000  0.4376930000000 1.0
C      1  0.4955110000000  0.5248540000000  0.5753780000000 1.0
C      1  0.4771360000000  0.4190300000000  0.4098130000000 1.0
C      1  0.4907500000000  0.5291200000000  0.4878730000000 1.0
C      1  0.5069990000000  0.4450890000000  0.5397660000000 1.0
C      1  0.4766000000000  0.4640870000000  0.5767230000000 1.0
C      1  0.5823870000000  0.5776230000000  0.5091420000000 1.0
C      1  0.4128730000000  0.5855480000000  0.5566620000000 1.0
C      1  0.5650420000000  0.4542960000000  0.4643310000000 1.0
C      1  0.5265660000000  0.5100190000000  0.4385920000000 1.0
C      1  0.4804440000000  0.5848130000000  0.5690680000000 1.0
C      1  0.5273300000000  0.4930290000000  0.4940220000000 1.0
C      1  0.5032060000000  0.4194130000000  0.5512120000000 1.0
C      1  0.4095120000000  0.4516300000000  0.4364460000000 1.0
C      1  0.5138650000000  0.4690000000000  0.4954210000000 1.0
C      1  0.5671430000000  0.5684950000000  0.5595920000000 1.0
C      1  0.4271230000000  0.5704180000000  0.4197850000000 1.0
C      1  0.4279650000000  0.4892200000000  0.4845950000000 1.0
C      1  0.4142300000000  0.5804480000000  0.4408750000000 1.0
C      1  0.5880290000000  0.5243400000000  0.5342650000000 1.0
C      1  0.5145260000000  0.6132200000000  0.5432930000000 1.0
C      1  0.4464100000000  0.6110320000000  0.5247820000000 1.0
C      1  0.5330360000000  0.5441620000000  0.5194020000000 1.0
C      1  0.5750910000000  0.5776240000000  0.5353150000000 1.0
C      1  0.4621750000000  0.4057350000000  0.4283970000000 1.0
C      1  0.5163340000000  0.3911870000000  0.5869310000000 1.0
C      1  0.4953930000000  0.4366010000000  0.3998700000000 1.0
C      1  0.4692880000000  0.5565420000000  0.3997720000000 1.0
C      1  0.5708000000000  0.4771000000000  0.5888760000000 1.0
C      1  0.5298450000000  0.6172440000000  0.5213770000000 1.0
C      1  0.4911760000000  0.4977250000000  0.3790240000000 1.0
C      1  0.4972020000000  0.4699020000000  0.5549950000000 1.0
C      1  0.4512660000000  0.4830010000000  0.4961610000000 1.0
C      1  0.5575000000000  0.4140040000000  0.6032510000000 1.0
C      1  0.4472320000000  0.5421590000000  0.5815480000000 1.0
C      1  0.3749460000000  0.5017430000000  0.4589120000000 1.0
C      1  0.5556750000000  0.5264340000000  0.5924530000000 1.0
C      1  0.4746080000000  0.3941370000000  0.5216750000000 1.0
C      1  0.4342680000000  0.4601980000000  0.4314480000000 1.0
C      1  0.5113660000000  0.4579820000000  0.3945860000000 1.0
C      1  0.4130820000000  0.4843280000000  0.5433610000000 1.0
C      1  0.4182150000000  0.5428280000000  0.5028820000000 1.0
C      1  0.4102200000000  0.5202110000000  0.4273950000000 1.0
C      1  0.4578520000000  0.3997120000000  0.4565360000000 1.0
C      1  0.5087460000000  0.5319510000000  0.6223720000000 1.0
C      1  0.6095880000000  0.5408630000000  0.5289510000000 1.0
C      1  0.4616700000000  0.4745990000000  0.5205930000000 1.0
C      1  0.4040760000000  0.4638980000000  0.5156210000000 1.0
C      1  0.4534820000000  0.6037520000000  0.4981930000000 1.0
C      1  0.5651060000000  0.4266930000000  0.5778280000000 1.0
C      1  0.3837370000000  0.4775400000000  0.4703430000000 1.0
C      1  0.4234880000000  0.5357890000000  0.5653940000000 1.0
C      1  0.4407960000000  0.4329470000000  0.5246080000000 1.0
C      1  0.5160660000000  0.3749930000000  0.5051190000000 1.0
C      1  0.5736250000000  0.4751890000000  0.3733880000000 1.0
C      1  0.5527040000000  0.5369160000000  0.5008510000000 1.0
C      1  0.5991100000000  0.4704140000000  0.5334350000000 1.0
C      1  0.4144940000000  0.5135580000000  0.5445220000000 1.0
C      1  0.3867960000000  0.5494940000000  0.5390890000000 1.0
C      1  0.4998120000000  0.4193010000000  0.4590180000000 1.0
C      1  0.4505550000000  0.4756150000000  0.5805640000000 1.0
C      1  0.4809840000000  0.5309840000000  0.6188100000000 1.0
C      1  0.4374180000000  0.6049940000000  0.4746650000000 1.0
C      1  0.6058450000000  0.4405790000000  0.4976680000000 1.0
C      1  0.4333950000000  0.4068310000000  0.4697990000000 1.0
C      1  0.3875770000000  0.5172400000000  0.4410550000000 1.0
C      1  0.5276400000000  0.4208620000000  0.4555410000000 1.0
C      1  0.4673550000000  0.6208640000000  0.5410000000000 1.0
C      1  0.5912270000000  0.5097630000000  0.5593030000000 1.0
C      1  0.4631120000000  0.4192550000000  0.5140530000000 1.0
END
