TITL C-599893-4344-545 -0.0752465186424277 125000 -675.15132141425 0 0 110 (C1) n - 1
REM
REM in /home/nfs/bkarasulu/CARBON/AIRSS/Generating-Clusters/TERSOFF/Only-C1/FIRE-HFTN
REM
REM
REM
REM
REM
REM ./C.cell (11c1c37f851c82e70ff6c80c92926a4b)
REM AIRSS Version 0.9.1 bugfix July 2018 build 013d7b7c2542+ Fri, 06 Jul 2018 19:26:36 +0100
REM compiler GCC version 9.2.1 20190827 (Red Hat 9.2.1-1)
REM options -cpp -mtune=generic -march=x86-64 -g -O0 -fpre-include=/usr/include/finclude/math-vector-fortran.h
REM seed 737689180 547975471 -1600706774 397345602 -1478808083 -912155463 -631295330 218216208 -1535499138 -886826431 -1716628979 -1325959361 -871926710 -801681245 158317714 1967562664 521541115 -1141409030 16913152 909366219 1661810573 -560082279 388658034 -1738296893 639974045 1491589111 464829272 2004002136 1895947951 213505562 189572908 -2046736580 141903336
REM
CELL 1.54180   50.00000   50.00000   50.00000   90.00000   90.00000   90.00000
LATT -1
SFAC C  
C      1  0.5724970000000  0.4900450000000  0.5999170000000 1.0
C      1  0.5136730000000  0.5526940000000  0.5562480000000 1.0
C      1  0.5513350000000  0.4583810000000  0.4948700000000 1.0
C      1  0.4117590000000  0.5421600000000  0.5181320000000 1.0
C      1  0.5216330000000  0.4125200000000  0.4890470000000 1.0
C      1  0.4117430000000  0.4651690000000  0.5055550000000 1.0
C      1  0.5184310000000  0.5513850000000  0.5277010000000 1.0
C      1  0.4642530000000  0.4514950000000  0.4239170000000 1.0
C      1  0.6162290000000  0.5153920000000  0.4977550000000 1.0
C      1  0.6251970000000  0.5151430000000  0.4494380000000 1.0
C      1  0.4269430000000  0.5800590000000  0.4634880000000 1.0
C      1  0.4531920000000  0.5722640000000  0.5339570000000 1.0
C      1  0.5517470000000  0.5403050000000  0.4637650000000 1.0
C      1  0.4734730000000  0.5439900000000  0.4223760000000 1.0
C      1  0.5355150000000  0.5165810000000  0.5832160000000 1.0
C      1  0.5133620000000  0.4088120000000  0.5365130000000 1.0
C      1  0.4908810000000  0.5015680000000  0.5444390000000 1.0
C      1  0.5580840000000  0.5116970000000  0.4636470000000 1.0
C      1  0.3800800000000  0.5025140000000  0.4920450000000 1.0
C      1  0.3845700000000  0.5208470000000  0.4731630000000 1.0
C      1  0.5590440000000  0.4804340000000  0.5542240000000 1.0
C      1  0.4786570000000  0.4983090000000  0.4427690000000 1.0
C      1  0.5213350000000  0.6476500000000  0.5102260000000 1.0
C      1  0.5591030000000  0.5481040000000  0.5501090000000 1.0
C      1  0.5743580000000  0.5514390000000  0.4498960000000 1.0
C      1  0.4352870000000  0.5146490000000  0.4313120000000 1.0
C      1  0.4011000000000  0.5406750000000  0.4626210000000 1.0
C      1  0.5383720000000  0.5415040000000  0.5693120000000 1.0
C      1  0.4868730000000  0.6189170000000  0.4828620000000 1.0
C      1  0.3903270000000  0.4833010000000  0.5076670000000 1.0
C      1  0.5353540000000  0.4967770000000  0.4526280000000 1.0
C      1  0.5984300000000  0.5506440000000  0.4654890000000 1.0
C      1  0.4344320000000  0.5258260000000  0.5184880000000 1.0
C      1  0.5321030000000  0.4281070000000  0.5744200000000 1.0
C      1  0.4129570000000  0.5666980000000  0.5051440000000 1.0
C      1  0.4318870000000  0.4465390000000  0.4580560000000 1.0
C      1  0.5241090000000  0.5439700000000  0.4716590000000 1.0
C      1  0.4961210000000  0.5543090000000  0.4719220000000 1.0
C      1  0.5474380000000  0.5541580000000  0.5256890000000 1.0
C      1  0.4817210000000  0.4344570000000  0.4365150000000 1.0
C      1  0.4579080000000  0.4298910000000  0.5552820000000 1.0
C      1  0.4388780000000  0.5808280000000  0.5099740000000 1.0
C      1  0.5710510000000  0.4094290000000  0.4995670000000 1.0
C      1  0.5859450000000  0.5158170000000  0.4172520000000 1.0
C      1  0.4060160000000  0.5655190000000  0.4772770000000 1.0
C      1  0.4873870000000  0.5319560000000  0.5888510000000 1.0
C      1  0.5013160000000  0.4626700000000  0.5072690000000 1.0
C      1  0.4750790000000  0.4878290000000  0.4690970000000 1.0
C      1  0.5555870000000  0.4957310000000  0.5788850000000 1.0
C      1  0.5476030000000  0.5441430000000  0.4093140000000 1.0
C      1  0.5097560000000  0.5131350000000  0.5956620000000 1.0
C      1  0.4395660000000  0.4613430000000  0.4348520000000 1.0
C      1  0.4978550000000  0.4779780000000  0.4832590000000 1.0
C      1  0.4698990000000  0.6007010000000  0.4706070000000 1.0
C      1  0.4495230000000  0.4123860000000  0.5111600000000 1.0
C      1  0.4921130000000  0.4105100000000  0.4824650000000 1.0
C      1  0.4764740000000  0.4023640000000  0.5067670000000 1.0
C      1  0.6157950000000  0.5288290000000  0.4725610000000 1.0
C      1  0.4419980000000  0.4323740000000  0.5313260000000 1.0
C      1  0.5083760000000  0.4244660000000  0.5598040000000 1.0
C      1  0.4950730000000  0.4897300000000  0.6046390000000 1.0
C      1  0.5196560000000  0.5205240000000  0.4906350000000 1.0
C      1  0.4641130000000  0.5181540000000  0.4289360000000 1.0
C      1  0.4803280000000  0.5425630000000  0.4951900000000 1.0
C      1  0.4611540000000  0.5172220000000  0.5872930000000 1.0
C      1  0.5663440000000  0.4945900000000  0.4151090000000 1.0
C      1  0.5772960000000  0.4945600000000  0.4739470000000 1.0
C      1  0.5296610000000  0.5232940000000  0.4113890000000 1.0
C      1  0.5489710000000  0.4045380000000  0.4835670000000 1.0
C      1  0.4847550000000  0.4390410000000  0.5528770000000 1.0
C      1  0.4350970000000  0.5642300000000  0.4408120000000 1.0
C      1  0.4462400000000  0.5906730000000  0.4828950000000 1.0
C      1  0.4620100000000  0.5535450000000  0.5544240000000 1.0
C      1  0.6114370000000  0.4953660000000  0.5153620000000 1.0
C      1  0.5187220000000  0.4957400000000  0.4760550000000 1.0
C      1  0.4459930000000  0.4225190000000  0.4650680000000 1.0
C      1  0.5813910000000  0.4647740000000  0.5459970000000 1.0
C      1  0.5850250000000  0.4248590000000  0.5193360000000 1.0
C      1  0.5387600000000  0.4989300000000  0.4240160000000 1.0
C      1  0.4349320000000  0.4092830000000  0.4873800000000 1.0
C      1  0.4751170000000  0.4205810000000  0.4605650000000 1.0
C      1  0.4482110000000  0.5277310000000  0.5634930000000 1.0
C      1  0.5169470000000  0.4969870000000  0.5409980000000 1.0
C      1  0.6053780000000  0.4449110000000  0.5122110000000 1.0
C      1  0.5036590000000  0.5339820000000  0.5111560000000 1.0
C      1  0.5752850000000  0.4356250000000  0.5453540000000 1.0
C      1  0.4563070000000  0.5020290000000  0.4840190000000 1.0
C      1  0.4883550000000  0.5516520000000  0.5679720000000 1.0
C      1  0.4722210000000  0.4817840000000  0.5390100000000 1.0
C      1  0.4677490000000  0.4921760000000  0.6000000000000 1.0
C      1  0.4925710000000  0.3919670000000  0.5275750000000 1.0
C      1  0.5252520000000  0.4243590000000  0.5159130000000 1.0
C      1  0.4749550000000  0.5897830000000  0.4445410000000 1.0
C      1  0.5041250000000  0.6337390000000  0.4964460000000 1.0
C      1  0.4619150000000  0.5678690000000  0.4319580000000 1.0
C      1  0.5719230000000  0.4699950000000  0.4828750000000 1.0
C      1  0.4169520000000  0.4571950000000  0.4790910000000 1.0
C      1  0.4558550000000  0.5261550000000  0.4987480000000 1.0
C      1  0.4853030000000  0.4584550000000  0.5311170000000 1.0
C      1  0.4441500000000  0.4833750000000  0.5385190000000 1.0
C      1  0.4375520000000  0.5110940000000  0.5424320000000 1.0
C      1  0.4212330000000  0.5377950000000  0.4412720000000 1.0
C      1  0.5299110000000  0.4548360000000  0.5151900000000 1.0
C      1  0.4307060000000  0.4598560000000  0.5265600000000 1.0
C      1  0.6020140000000  0.4708300000000  0.5258180000000 1.0
C      1  0.4281940000000  0.4870600000000  0.4297160000000 1.0
C      1  0.6122660000000  0.5110680000000  0.4260660000000 1.0
C      1  0.5360430000000  0.4768230000000  0.5375820000000 1.0
C      1  0.5735020000000  0.5421870000000  0.4220130000000 1.0
C      1  0.5576610000000  0.4265770000000  0.5654380000000 1.0
END
