TITL C-599891-72-21 0.0652589808026883 125000 -421.82203406663 0 0 69 (C1) n - 1
REM
REM in /home/nfs/bkarasulu/CARBON/AIRSS/Generating-Clusters/TERSOFF/Only-C1/FIRE-HFTN
REM
REM
REM
REM
REM
REM ./C.cell (11c1c37f851c82e70ff6c80c92926a4b)
REM AIRSS Version 0.9.1 bugfix July 2018 build 013d7b7c2542+ Fri, 06 Jul 2018 19:26:36 +0100
REM compiler GCC version 9.2.1 20190827 (Red Hat 9.2.1-1)
REM options -cpp -mtune=generic -march=x86-64 -g -O0 -fpre-include=/usr/include/finclude/math-vector-fortran.h
REM seed 1591661982 1612173935 -1666141042 -37527888 -314274146 928889845 1944670350 -535840899 -1886482757 -521534543 -1027138849 1249476657 1737768720 1559448396 -1672059405 325689111 1103184532 -1612746398 -1708087086 712105423 1366213162 -33304684 1426893385 980096343 -1533255012 1912693387 1439287190 425340150 292560872 2016732064 1599813512 -1036247513 1966858368
REM
CELL 1.54180   50.00000   50.00000   50.00000   90.00000   90.00000   90.00000
LATT -1
SFAC C  
C      1  0.5427870000000  0.5779410000000  0.5024880000000 1.0
C      1  0.5581480000000  0.4372440000000  0.5024420000000 1.0
C      1  0.5793190000000  0.4256940000000  0.4578580000000 1.0
C      1  0.5086410000000  0.5472310000000  0.4865100000000 1.0
C      1  0.4728640000000  0.5864930000000  0.5171910000000 1.0
C      1  0.5459050000000  0.4948010000000  0.5539360000000 1.0
C      1  0.4937830000000  0.5373180000000  0.4178790000000 1.0
C      1  0.4769400000000  0.4941620000000  0.4727780000000 1.0
C      1  0.4331470000000  0.4619370000000  0.5564960000000 1.0
C      1  0.5136640000000  0.5302760000000  0.5322230000000 1.0
C      1  0.3783000000000  0.5117660000000  0.5422740000000 1.0
C      1  0.5460370000000  0.4624920000000  0.4943060000000 1.0
C      1  0.5597160000000  0.4476380000000  0.5521070000000 1.0
C      1  0.4432850000000  0.5761520000000  0.4778710000000 1.0
C      1  0.4745170000000  0.4339070000000  0.4696790000000 1.0
C      1  0.5307150000000  0.5093420000000  0.4229450000000 1.0
C      1  0.4539040000000  0.5144870000000  0.4353070000000 1.0
C      1  0.5717900000000  0.5571050000000  0.5405090000000 1.0
C      1  0.5246300000000  0.4591990000000  0.4245320000000 1.0
C      1  0.4763170000000  0.5819660000000  0.5449680000000 1.0
C      1  0.5812720000000  0.4496100000000  0.4454210000000 1.0
C      1  0.5609690000000  0.5720060000000  0.5211560000000 1.0
C      1  0.4949100000000  0.4783830000000  0.5137290000000 1.0
C      1  0.5257170000000  0.5138600000000  0.5493550000000 1.0
C      1  0.4957020000000  0.5909310000000  0.5010760000000 1.0
C      1  0.5181450000000  0.4243670000000  0.4634160000000 1.0
C      1  0.5391380000000  0.4665960000000  0.5561540000000 1.0
C      1  0.4755650000000  0.5153850000000  0.4155080000000 1.0
C      1  0.5197590000000  0.4710480000000  0.5010120000000 1.0
C      1  0.4718980000000  0.5199110000000  0.5111540000000 1.0
C      1  0.3523720000000  0.5134720000000  0.5443750000000 1.0
C      1  0.5164340000000  0.4851840000000  0.4164940000000 1.0
C      1  0.5018160000000  0.4211310000000  0.5121320000000 1.0
C      1  0.5086940000000  0.4309630000000  0.5365670000000 1.0
C      1  0.5122440000000  0.5314260000000  0.4626950000000 1.0
C      1  0.4781600000000  0.5641290000000  0.5648980000000 1.0
C      1  0.5739120000000  0.4735720000000  0.4555280000000 1.0
C      1  0.4382820000000  0.5531890000000  0.5191810000000 1.0
C      1  0.5718850000000  0.5059110000000  0.5478890000000 1.0
C      1  0.5690860000000  0.4207160000000  0.4823250000000 1.0
C      1  0.4967430000000  0.5344110000000  0.5101100000000 1.0
C      1  0.4402490000000  0.5372110000000  0.4436810000000 1.0
C      1  0.4875100000000  0.4880990000000  0.4142910000000 1.0
C      1  0.5820950000000  0.4934660000000  0.4993930000000 1.0
C      1  0.4471970000000  0.5269210000000  0.5231230000000 1.0
C      1  0.5107610000000  0.4408500000000  0.4408280000000 1.0
C      1  0.4323960000000  0.5076610000000  0.5380330000000 1.0
C      1  0.4216630000000  0.4390020000000  0.5610980000000 1.0
C      1  0.5652760000000  0.4342910000000  0.5294580000000 1.0
C      1  0.5124660000000  0.4560670000000  0.5504600000000 1.0
C      1  0.4750250000000  0.4937090000000  0.5004750000000 1.0
C      1  0.4929560000000  0.4750340000000  0.5422090000000 1.0
C      1  0.4598100000000  0.4902090000000  0.4505950000000 1.0
C      1  0.5167870000000  0.5740220000000  0.4924840000000 1.0
C      1  0.4791490000000  0.5393120000000  0.5749310000000 1.0
C      1  0.5172940000000  0.5328130000000  0.4338990000000 1.0
C      1  0.4975130000000  0.4229110000000  0.4842560000000 1.0
C      1  0.4818560000000  0.4465800000000  0.4443760000000 1.0
C      1  0.5021700000000  0.5049810000000  0.4660070000000 1.0
C      1  0.5652260000000  0.4799360000000  0.4816110000000 1.0
C      1  0.4736670000000  0.4896190000000  0.5573520000000 1.0
C      1  0.4387390000000  0.5603830000000  0.4567810000000 1.0
C      1  0.5757200000000  0.5335840000000  0.5527520000000 1.0
C      1  0.4495000000000  0.5750410000000  0.5052090000000 1.0
C      1  0.4794050000000  0.5125690000000  0.5728540000000 1.0
C      1  0.4460170000000  0.4860030000000  0.5508390000000 1.0
C      1  0.5859120000000  0.4960960000000  0.5256770000000 1.0
C      1  0.4046450000000  0.5099350000000  0.5401720000000 1.0
C      1  0.4718830000000  0.4703430000000  0.4326820000000 1.0
END
