TITL C-599890-3321-1185 79932.9127786116 125000 -584.746616925315 0 0 99 (C1) n - 1
REM
REM in /home/nfs/bkarasulu/CARBON/AIRSS/Generating-Clusters/TERSOFF/Only-C1/FIRE-HFTN
REM
REM
REM
REM
REM
REM ./C.cell (11c1c37f851c82e70ff6c80c92926a4b)
REM AIRSS Version 0.9.1 bugfix July 2018 build 013d7b7c2542+ Fri, 06 Jul 2018 19:26:36 +0100
REM compiler GCC version 9.2.1 20190827 (Red Hat 9.2.1-1)
REM options -cpp -mtune=generic -march=x86-64 -g -O0 -fpre-include=/usr/include/finclude/math-vector-fortran.h
REM seed -1370725252 -1438664193 1944344905 1925143921 2128242150 -915792615 658688437 602717210 1849304694 -1283576341 -245968043 -1293996302 -1864234604 -447935654 -1846116137 837133990 -1003048618 1452310906 -1586738285 -1063225541 835989282 -739295530 905187452 -1247350187 1922332255 668433645 1597830933 1421306506 -65533080 1780139939 9983824 -739487712 1612696198
REM
CELL 1.54180   50.00000   50.00000   50.00000   90.00000   90.00000   90.00000
LATT -1
SFAC C  
C      1  0.4476950000000  0.5175510000000  0.4842480000000 1.0
C      1  0.5322490000000  0.4164020000000  0.5087230000000 1.0
C      1  0.5165700000000  0.4944160000000  0.4807360000000 1.0
C      1  0.4217810000000  0.4994150000000  0.4473430000000 1.0
C      1  0.5445810000000  0.5647210000000  0.5532880000000 1.0
C      1  0.4574850000000  0.5100340000000  0.4108240000000 1.0
C      1  0.4962360000000  0.5156110000000  0.5189880000000 1.0
C      1  0.4640320000000  0.4956490000000  0.4910120000000 1.0
C      1  0.4804770000000  0.4812990000000  0.4389110000000 1.0
C      1  0.5448600000000  0.4689250000000  0.5126530000000 1.0
C      1  0.4568820000000  0.5596320000000  0.5054900000000 1.0
C      1  0.5083160000000  0.4668780000000  0.4733950000000 1.0
C      1  0.4146390000000  0.5303850000000  0.5258060000000 1.0
C      1  0.5572860000000  0.5597870000000  0.5278400000000 1.0
C      1  0.5116210000000  0.5084840000000  0.4130680000000 1.0
C      1  0.4870580000000  0.4213630000000  0.4489430000000 1.0
C      1  0.4366610000000  0.4913450000000  0.5542860000000 1.0
C      1  0.4761090000000  0.5752180000000  0.5223380000000 1.0
C      1  0.4666160000000  0.5862880000000  0.4411440000000 1.0
C      1  0.5526220000000  0.5312050000000  0.4219660000000 1.0
C      1  0.5466360000000  0.5160410000000  0.5830340000000 1.0
C      1  0.4925350000000  0.3941390000000  0.4840900000000 1.0
C      1  0.4188110000000  0.5150840000000  0.4755600000000 1.0
C      1  0.5393350000000  0.5431290000000  0.5127780000000 1.0
C      1  0.4844890000000  0.4212780000000  0.4779740000000 1.0
C      1  0.5364350000000  0.4321240000000  0.4558770000000 1.0
C      1  0.4374650000000  0.5465480000000  0.5250230000000 1.0
C      1  0.5732730000000  0.5297560000000  0.4763060000000 1.0
C      1  0.5592940000000  0.4689640000000  0.5709810000000 1.0
C      1  0.4640400000000  0.4823190000000  0.4160230000000 1.0
C      1  0.4496000000000  0.4384220000000  0.5601030000000 1.0
C      1  0.5901530000000  0.5402990000000  0.4971730000000 1.0
C      1  0.4505980000000  0.4671890000000  0.5677890000000 1.0
C      1  0.5258340000000  0.4830100000000  0.4090040000000 1.0
C      1  0.5679330000000  0.5056760000000  0.5401790000000 1.0
C      1  0.4900030000000  0.4090620000000  0.5443800000000 1.0
C      1  0.5679560000000  0.4716610000000  0.4706300000000 1.0
C      1  0.5424080000000  0.5716720000000  0.4561390000000 1.0
C      1  0.4762340000000  0.4694610000000  0.5253750000000 1.0
C      1  0.4610550000000  0.5434020000000  0.4817080000000 1.0
C      1  0.5178580000000  0.5759050000000  0.5497270000000 1.0
C      1  0.5388510000000  0.4512980000000  0.5607500000000 1.0
C      1  0.5006340000000  0.4500580000000  0.5208110000000 1.0
C      1  0.5406970000000  0.4967520000000  0.4993400000000 1.0
C      1  0.4842120000000  0.5458680000000  0.4296140000000 1.0
C      1  0.5295530000000  0.5208520000000  0.4327000000000 1.0
C      1  0.4535470000000  0.5415340000000  0.5486100000000 1.0
C      1  0.4137150000000  0.4684600000000  0.4839130000000 1.0
C      1  0.4970610000000  0.4461930000000  0.4902170000000 1.0
C      1  0.4930400000000  0.5905750000000  0.4463230000000 1.0
C      1  0.4346640000000  0.5192920000000  0.4276420000000 1.0
C      1  0.4848390000000  0.5234140000000  0.4110070000000 1.0
C      1  0.5099080000000  0.4364200000000  0.4409380000000 1.0
C      1  0.4445990000000  0.5708700000000  0.4364240000000 1.0
C      1  0.4290460000000  0.5469410000000  0.4387020000000 1.0
C      1  0.4162120000000  0.5013960000000  0.5267080000000 1.0
C      1  0.5433290000000  0.5153060000000  0.5238290000000 1.0
C      1  0.5200050000000  0.4388480000000  0.5784330000000 1.0
C      1  0.5086210000000  0.5397880000000  0.4730660000000 1.0
C      1  0.4749150000000  0.4239990000000  0.5633950000000 1.0
C      1  0.5227750000000  0.5173360000000  0.4601960000000 1.0
C      1  0.5032330000000  0.5863760000000  0.5257250000000 1.0
C      1  0.4357180000000  0.4549350000000  0.4953550000000 1.0
C      1  0.4972510000000  0.5599700000000  0.5622640000000 1.0
C      1  0.4829380000000  0.5156990000000  0.5754250000000 1.0
C      1  0.5836460000000  0.5570400000000  0.5178770000000 1.0
C      1  0.4816430000000  0.5379400000000  0.4589520000000 1.0
C      1  0.4603560000000  0.5122280000000  0.5548680000000 1.0
C      1  0.5356960000000  0.4122180000000  0.4792080000000 1.0
C      1  0.5236500000000  0.5024390000000  0.5956560000000 1.0
C      1  0.4790490000000  0.4679220000000  0.5815900000000 1.0
C      1  0.4092160000000  0.4941930000000  0.4979700000000 1.0
C      1  0.4577600000000  0.4701950000000  0.5030950000000 1.0
C      1  0.4913250000000  0.5031650000000  0.4935170000000 1.0
C      1  0.5621490000000  0.4974250000000  0.5672550000000 1.0
C      1  0.4768800000000  0.4980550000000  0.5341570000000 1.0
C      1  0.5192750000000  0.5849390000000  0.4507740000000 1.0
C      1  0.4719730000000  0.5634480000000  0.5498030000000 1.0
C      1  0.5904500000000  0.4926750000000  0.5283020000000 1.0
C      1  0.4130220000000  0.5426160000000  0.4632500000000 1.0
C      1  0.5132480000000  0.4878190000000  0.5515390000000 1.0
C      1  0.5485860000000  0.5443460000000  0.5746180000000 1.0
C      1  0.5249980000000  0.4641640000000  0.5363860000000 1.0
C      1  0.5596780000000  0.5515520000000  0.4624980000000 1.0
C      1  0.5184120000000  0.3888950000000  0.4757410000000 1.0
C      1  0.4143280000000  0.4727870000000  0.4552190000000 1.0
C      1  0.5006360000000  0.4635910000000  0.4461190000000 1.0
C      1  0.5089240000000  0.4208890000000  0.5266180000000 1.0
C      1  0.4797060000000  0.5061990000000  0.4531640000000 1.0
C      1  0.5923590000000  0.4697930000000  0.5135750000000 1.0
C      1  0.5533380000000  0.4567060000000  0.4497260000000 1.0
C      1  0.4993270000000  0.4903800000000  0.5797610000000 1.0
C      1  0.5637960000000  0.5013250000000  0.4777210000000 1.0
C      1  0.4916700000000  0.4412800000000  0.5800480000000 1.0
C      1  0.5025790000000  0.5334400000000  0.5657840000000 1.0
C      1  0.5179640000000  0.5139940000000  0.5398190000000 1.0
C      1  0.5448230000000  0.4698040000000  0.4245750000000 1.0
C      1  0.5697540000000  0.4605210000000  0.4987290000000 1.0
C      1  0.5146960000000  0.5440910000000  0.4998410000000 1.0
END
