TITL C-599891-72-509 0.000150183044773774 125000 -1152.90693196328 0 0 189 (C1) n - 1
REM
REM in /home/nfs/bkarasulu/CARBON/AIRSS/Generating-Clusters/TERSOFF/Only-C1/FIRE-HFTN
REM
REM
REM
REM
REM
REM ./C.cell (11c1c37f851c82e70ff6c80c92926a4b)
REM AIRSS Version 0.9.1 bugfix July 2018 build 013d7b7c2542+ Fri, 06 Jul 2018 19:26:36 +0100
REM compiler GCC version 9.2.1 20190827 (Red Hat 9.2.1-1)
REM options -cpp -mtune=generic -march=x86-64 -g -O0 -fpre-include=/usr/include/finclude/math-vector-fortran.h
REM seed -1777943279 1185047872 1508929009 -527273178 -420994414 -703628158 -1076598793 -1654618886 155380561 -681742465 -868287653 1211055499 777945737 -2096838100 535677497 -863053846 -1488496139 -1508261628 -2039228080 -1168833304 260892225 439998022 -714076171 1701841304 -68460539 -709637868 -1943334843 1982306219 735235955 -573923044 -1151125055 1436059506 -1020929913
REM
CELL 1.54180   50.00000   50.00000   50.00000   90.00000   90.00000   90.00000
LATT -1
SFAC C  
C      1  0.5454260000000  0.4603250000000  0.5767080000000 1.0
C      1  0.5868470000000  0.5385770000000  0.4709270000000 1.0
C      1  0.5296700000000  0.6290200000000  0.5322320000000 1.0
C      1  0.5935750000000  0.4624330000000  0.4821230000000 1.0
C      1  0.3980310000000  0.4453100000000  0.5189720000000 1.0
C      1  0.4759100000000  0.4882430000000  0.3923550000000 1.0
C      1  0.4515930000000  0.4781510000000  0.5747840000000 1.0
C      1  0.4020320000000  0.5788490000000  0.4845880000000 1.0
C      1  0.3848870000000  0.5267350000000  0.4849740000000 1.0
C      1  0.4164200000000  0.4604950000000  0.5033300000000 1.0
C      1  0.4907750000000  0.6078260000000  0.4509800000000 1.0
C      1  0.5114970000000  0.4815550000000  0.5259360000000 1.0
C      1  0.5756180000000  0.4958760000000  0.5669720000000 1.0
C      1  0.4534310000000  0.4372280000000  0.6212830000000 1.0
C      1  0.6166860000000  0.5396750000000  0.5155850000000 1.0
C      1  0.6268300000000  0.4652580000000  0.5168770000000 1.0
C      1  0.5664110000000  0.4147180000000  0.5214220000000 1.0
C      1  0.5088310000000  0.6333230000000  0.5515050000000 1.0
C      1  0.4956730000000  0.4599100000000  0.5660220000000 1.0
C      1  0.5351980000000  0.5318940000000  0.5998280000000 1.0
C      1  0.5432560000000  0.5874390000000  0.5091150000000 1.0
C      1  0.5869400000000  0.4594780000000  0.4258770000000 1.0
C      1  0.6296590000000  0.4927730000000  0.5235040000000 1.0
C      1  0.3777880000000  0.5212200000000  0.5604810000000 1.0
C      1  0.5884250000000  0.4327960000000  0.4338620000000 1.0
C      1  0.4482190000000  0.5020560000000  0.3976570000000 1.0
C      1  0.4994570000000  0.4460920000000  0.4989270000000 1.0
C      1  0.5304650000000  0.5803540000000  0.6003950000000 1.0
C      1  0.5360420000000  0.4973590000000  0.4610610000000 1.0
C      1  0.4671360000000  0.5547570000000  0.4607780000000 1.0
C      1  0.4458300000000  0.5239470000000  0.4161300000000 1.0
C      1  0.5361220000000  0.5422240000000  0.4349490000000 1.0
C      1  0.6046540000000  0.5521950000000  0.5405290000000 1.0
C      1  0.5465640000000  0.5923260000000  0.5589530000000 1.0
C      1  0.4252720000000  0.4627430000000  0.3823110000000 1.0
C      1  0.5211700000000  0.4509110000000  0.4609090000000 1.0
C      1  0.4174570000000  0.3748360000000  0.5171090000000 1.0
C      1  0.4447040000000  0.5140460000000  0.4426920000000 1.0
C      1  0.4459870000000  0.6037450000000  0.5063130000000 1.0
C      1  0.4735210000000  0.4631650000000  0.5859570000000 1.0
C      1  0.5190460000000  0.4822950000000  0.4203260000000 1.0
C      1  0.4740720000000  0.4527080000000  0.6121540000000 1.0
C      1  0.6283380000000  0.5199010000000  0.5651680000000 1.0
C      1  0.4897060000000  0.5468670000000  0.5714230000000 1.0
C      1  0.5756240000000  0.4029990000000  0.4744890000000 1.0
C      1  0.4018610000000  0.4054650000000  0.4852890000000 1.0
C      1  0.4906590000000  0.5803610000000  0.5099640000000 1.0
C      1  0.5530510000000  0.5183690000000  0.3974000000000 1.0
C      1  0.5527810000000  0.4878290000000  0.5808230000000 1.0
C      1  0.5509220000000  0.4211790000000  0.5464380000000 1.0
C      1  0.3965160000000  0.5558140000000  0.5311110000000 1.0
C      1  0.4385370000000  0.5428790000000  0.5473280000000 1.0
C      1  0.5100130000000  0.3771980000000  0.4536580000000 1.0
C      1  0.3875270000000  0.5027870000000  0.4357020000000 1.0
C      1  0.4439970000000  0.4971280000000  0.5240190000000 1.0
C      1  0.5392030000000  0.5446440000000  0.4636140000000 1.0
C      1  0.4681080000000  0.4481750000000  0.4487810000000 1.0
C      1  0.5650910000000  0.4646440000000  0.5338040000000 1.0
C      1  0.4799810000000  0.4477690000000  0.5421630000000 1.0
C      1  0.5067580000000  0.4846450000000  0.5528430000000 1.0
C      1  0.4943000000000  0.4600320000000  0.4531670000000 1.0
C      1  0.4484270000000  0.4677290000000  0.4473870000000 1.0
C      1  0.5567500000000  0.4689800000000  0.5092730000000 1.0
C      1  0.4600790000000  0.5400920000000  0.4844530000000 1.0
C      1  0.5157040000000  0.3842480000000  0.4808510000000 1.0
C      1  0.5929310000000  0.5742500000000  0.4141060000000 1.0
C      1  0.4697360000000  0.5162590000000  0.6349040000000 1.0
C      1  0.3797870000000  0.5333180000000  0.5345460000000 1.0
C      1  0.5132750000000  0.5310430000000  0.6182050000000 1.0
C      1  0.4001640000000  0.4945080000000  0.4126720000000 1.0
C      1  0.5172920000000  0.5598140000000  0.4751020000000 1.0
C      1  0.4949360000000  0.5327980000000  0.4056090000000 1.0
C      1  0.5581770000000  0.5393080000000  0.5316670000000 1.0
C      1  0.4226320000000  0.4874020000000  0.3958200000000 1.0
C      1  0.4598070000000  0.5064210000000  0.5708680000000 1.0
C      1  0.5251950000000  0.4190910000000  0.5623040000000 1.0
C      1  0.5169420000000  0.4634010000000  0.6432270000000 1.0
C      1  0.5919380000000  0.5065950000000  0.4286080000000 1.0
C      1  0.3871900000000  0.5559660000000  0.4836510000000 1.0
C      1  0.4541630000000  0.3687000000000  0.4834090000000 1.0
C      1  0.4489820000000  0.5642910000000  0.4407530000000 1.0
C      1  0.5043780000000  0.3725980000000  0.5036630000000 1.0
C      1  0.5114600000000  0.5026690000000  0.4427400000000 1.0
C      1  0.6306570000000  0.5668460000000  0.5802890000000 1.0
C      1  0.4098550000000  0.4629880000000  0.4764640000000 1.0
C      1  0.5757010000000  0.5554700000000  0.5473250000000 1.0
C      1  0.4879730000000  0.4958560000000  0.4875790000000 1.0
C      1  0.4884420000000  0.3800820000000  0.5238280000000 1.0
C      1  0.5189120000000  0.5702720000000  0.5039930000000 1.0
C      1  0.5426350000000  0.6034130000000  0.5328980000000 1.0
C      1  0.6265690000000  0.5138760000000  0.5036770000000 1.0
C      1  0.3961570000000  0.4912560000000  0.5252870000000 1.0
C      1  0.5729220000000  0.4998070000000  0.4065020000000 1.0
C      1  0.4955930000000  0.5577200000000  0.4522930000000 1.0
C      1  0.4459740000000  0.5617130000000  0.5670770000000 1.0
C      1  0.6169240000000  0.5016090000000  0.5467970000000 1.0
C      1  0.6086430000000  0.4807510000000  0.4661260000000 1.0
C      1  0.4538390000000  0.4071710000000  0.5495170000000 1.0
C      1  0.4488990000000  0.4498720000000  0.3791780000000 1.0
C      1  0.5648570000000  0.4652670000000  0.4828660000000 1.0
C      1  0.4793830000000  0.5714940000000  0.3717970000000 1.0
C      1  0.4444830000000  0.3735100000000  0.5099950000000 1.0
C      1  0.5069250000000  0.5332510000000  0.4335180000000 1.0
C      1  0.5884070000000  0.5034480000000  0.5431280000000 1.0
C      1  0.4229300000000  0.5947390000000  0.4918150000000 1.0
C      1  0.4553740000000  0.5178720000000  0.5427520000000 1.0
C      1  0.4823370000000  0.6143600000000  0.4753250000000 1.0
C      1  0.4432470000000  0.6137180000000  0.5325900000000 1.0
C      1  0.5277230000000  0.5414620000000  0.5247860000000 1.0
C      1  0.4744020000000  0.4568890000000  0.3913250000000 1.0
C      1  0.4871360000000  0.4323570000000  0.4039090000000 1.0
C      1  0.5155480000000  0.5092320000000  0.5620950000000 1.0
C      1  0.4434110000000  0.4046410000000  0.4531670000000 1.0
C      1  0.4761120000000  0.5605700000000  0.5236330000000 1.0
C      1  0.5665690000000  0.4714950000000  0.4090850000000 1.0
C      1  0.5056130000000  0.5335010000000  0.5470880000000 1.0
C      1  0.5002930000000  0.5851310000000  0.4375540000000 1.0
C      1  0.4730460000000  0.5702790000000  0.5714450000000 1.0
C      1  0.4886080000000  0.4905730000000  0.4581090000000 1.0
C      1  0.4770850000000  0.5242470000000  0.5871120000000 1.0
C      1  0.4991950000000  0.5077670000000  0.3909020000000 1.0
C      1  0.6218880000000  0.5475020000000  0.5633420000000 1.0
C      1  0.4982620000000  0.4742070000000  0.5031440000000 1.0
C      1  0.5260410000000  0.5984030000000  0.5789240000000 1.0
C      1  0.4757000000000  0.4052090000000  0.5683540000000 1.0
C      1  0.5282520000000  0.5093510000000  0.3844240000000 1.0
C      1  0.4053460000000  0.4812340000000  0.5523870000000 1.0
C      1  0.5027660000000  0.4025570000000  0.5667570000000 1.0
C      1  0.5611050000000  0.5684420000000  0.5678310000000 1.0
C      1  0.3838940000000  0.5143870000000  0.5122460000000 1.0
C      1  0.4854890000000  0.3862860000000  0.4421250000000 1.0
C      1  0.6009750000000  0.4814630000000  0.4392010000000 1.0
C      1  0.5850490000000  0.4130940000000  0.4515790000000 1.0
C      1  0.4779450000000  0.5207900000000  0.4982170000000 1.0
C      1  0.5568490000000  0.4059870000000  0.4956080000000 1.0
C      1  0.5369960000000  0.6481910000000  0.5141850000000 1.0
C      1  0.4429150000000  0.5520090000000  0.4171010000000 1.0
C      1  0.5466150000000  0.5572450000000  0.5921270000000 1.0
C      1  0.5543500000000  0.5421330000000  0.4139320000000 1.0
C      1  0.4096490000000  0.4221790000000  0.5304760000000 1.0
C      1  0.5740020000000  0.5173100000000  0.5200450000000 1.0
C      1  0.4409490000000  0.4704820000000  0.5146270000000 1.0
C      1  0.5665640000000  0.5823230000000  0.4933690000000 1.0
C      1  0.4218530000000  0.4630220000000  0.4528640000000 1.0
C      1  0.4958610000000  0.4582660000000  0.6287870000000 1.0
C      1  0.5925830000000  0.4279240000000  0.5183450000000 1.0
C      1  0.4310810000000  0.4283370000000  0.5497720000000 1.0
C      1  0.4804260000000  0.5305740000000  0.5279530000000 1.0
C      1  0.5388560000000  0.4667330000000  0.4103930000000 1.0
C      1  0.4602950000000  0.4233300000000  0.4402220000000 1.0
C      1  0.5177680000000  0.4324140000000  0.4824460000000 1.0
C      1  0.5206130000000  0.4455370000000  0.5749040000000 1.0
C      1  0.4051760000000  0.3996530000000  0.5130610000000 1.0
C      1  0.4237330000000  0.5513110000000  0.5248480000000 1.0
C      1  0.4778050000000  0.5982370000000  0.5679720000000 1.0
C      1  0.6228890000000  0.5025190000000  0.4779180000000 1.0
C      1  0.4368100000000  0.5472240000000  0.4997860000000 1.0
C      1  0.5301330000000  0.4079160000000  0.4866400000000 1.0
C      1  0.5164170000000  0.5883920000000  0.4158140000000 1.0
C      1  0.5605490000000  0.4477530000000  0.5552890000000 1.0
C      1  0.3703230000000  0.4486330000000  0.5189490000000 1.0
C      1  0.4960850000000  0.6573580000000  0.5540550000000 1.0
C      1  0.5907000000000  0.5322960000000  0.4420250000000 1.0
C      1  0.5269140000000  0.5206130000000  0.5029420000000 1.0
C      1  0.4286390000000  0.4627450000000  0.5611940000000 1.0
C      1  0.5275840000000  0.3621080000000  0.4391220000000 1.0
C      1  0.5433460000000  0.4697230000000  0.4644600000000 1.0
C      1  0.4607280000000  0.4928160000000  0.4484830000000 1.0
C      1  0.4861420000000  0.5231180000000  0.6142400000000 1.0
C      1  0.4232420000000  0.5192410000000  0.4592130000000 1.0
C      1  0.4607090000000  0.3818020000000  0.4590580000000 1.0
C      1  0.4736740000000  0.6005210000000  0.4979370000000 1.0
C      1  0.5801310000000  0.5512740000000  0.4226880000000 1.0
C      1  0.3955380000000  0.5145110000000  0.4608970000000 1.0
C      1  0.5347310000000  0.5093720000000  0.5826780000000 1.0
C      1  0.3908920000000  0.4990980000000  0.5701420000000 1.0
C      1  0.4564250000000  0.6124680000000  0.5558940000000 1.0
C      1  0.3443200000000  0.4502520000000  0.5182620000000 1.0
C      1  0.4614670000000  0.3875760000000  0.5280350000000 1.0
C      1  0.4866390000000  0.5548790000000  0.3905520000000 1.0
C      1  0.6062110000000  0.4495150000000  0.5050340000000 1.0
C      1  0.4176280000000  0.4068310000000  0.4635700000000 1.0
C      1  0.6045980000000  0.5963800000000  0.4068120000000 1.0
C      1  0.4610020000000  0.4527530000000  0.5236930000000 1.0
C      1  0.5031280000000  0.6111630000000  0.5689160000000 1.0
C      1  0.5445820000000  0.5190530000000  0.4790690000000 1.0
C      1  0.5733090000000  0.5197640000000  0.4899160000000 1.0
C      1  0.4813170000000  0.4107320000000  0.4244600000000 1.0
C      1  0.5831170000000  0.5659390000000  0.4794720000000 1.0
END
