TITL C-599895-9959-186 13626.6527295928 125000 -979.837029719513 0 0 163 (C1) n - 1
REM
REM in /home/nfs/bkarasulu/CARBON/AIRSS/Generating-Clusters/TERSOFF/Only-C1/FIRE-HFTN
REM
REM
REM
REM
REM
REM ./C.cell (11c1c37f851c82e70ff6c80c92926a4b)
REM AIRSS Version 0.9.1 bugfix July 2018 build 013d7b7c2542+ Fri, 06 Jul 2018 19:26:36 +0100
REM compiler GCC version 9.2.1 20190827 (Red Hat 9.2.1-1)
REM options -cpp -mtune=generic -march=x86-64 -g -O0 -fpre-include=/usr/include/finclude/math-vector-fortran.h
REM seed -561052067 1599592035 -156371231 1412651826 -1522683897 -1411665815 -372243984 -2010065563 2127421615 -2103671632 -1458561286 -1951344838 2116204157 -1208291284 973845493 -987187370 1251112878 1893869719 -62273374 2133269652 1066253520 -1287165794 780849094 -1820038957 1617837250 1916820858 -1127798644 210987114 325169030 10445762 1423984900 -1844533920 -416450926
REM
CELL 1.54180   50.00000   50.00000   50.00000   90.00000   90.00000   90.00000
LATT -1
SFAC C  
C      1  0.5057400000000  0.5048590000000  0.4667360000000 1.0
C      1  0.4563070000000  0.4388050000000  0.4216110000000 1.0
C      1  0.5057060000000  0.5217780000000  0.5479740000000 1.0
C      1  0.4926960000000  0.4693320000000  0.5522840000000 1.0
C      1  0.5388660000000  0.4143840000000  0.4595610000000 1.0
C      1  0.5517450000000  0.4128990000000  0.5635460000000 1.0
C      1  0.4786290000000  0.5116390000000  0.4654900000000 1.0
C      1  0.4249430000000  0.5677010000000  0.4543160000000 1.0
C      1  0.5922620000000  0.4347550000000  0.4594410000000 1.0
C      1  0.4366030000000  0.4832760000000  0.5852870000000 1.0
C      1  0.5004880000000  0.6058730000000  0.4379150000000 1.0
C      1  0.5464580000000  0.4662600000000  0.5146070000000 1.0
C      1  0.6179650000000  0.5003720000000  0.4413940000000 1.0
C      1  0.5900650000000  0.5799970000000  0.4965190000000 1.0
C      1  0.5136330000000  0.4500520000000  0.4011790000000 1.0
C      1  0.4472770000000  0.5101550000000  0.5254840000000 1.0
C      1  0.5337570000000  0.4099260000000  0.5413530000000 1.0
C      1  0.4385820000000  0.4102840000000  0.4998330000000 1.0
C      1  0.5354900000000  0.5319070000000  0.5037540000000 1.0
C      1  0.5753200000000  0.5870150000000  0.5180560000000 1.0
C      1  0.5604900000000  0.5827850000000  0.5416780000000 1.0
C      1  0.5036880000000  0.6218600000000  0.4623360000000 1.0
C      1  0.5219640000000  0.5666410000000  0.4125740000000 1.0
C      1  0.4761160000000  0.4380430000000  0.5223500000000 1.0
C      1  0.5064990000000  0.5470930000000  0.6115580000000 1.0
C      1  0.4826880000000  0.4102810000000  0.5162870000000 1.0
C      1  0.4873990000000  0.4001010000000  0.4741180000000 1.0
C      1  0.4700520000000  0.5136730000000  0.6112430000000 1.0
C      1  0.4684710000000  0.3989000000000  0.5737230000000 1.0
C      1  0.5747230000000  0.4947340000000  0.4185910000000 1.0
C      1  0.5990730000000  0.4462180000000  0.5560730000000 1.0
C      1  0.4817640000000  0.5368090000000  0.5563590000000 1.0
C      1  0.4038690000000  0.4949320000000  0.4634030000000 1.0
C      1  0.5502280000000  0.4955330000000  0.3971800000000 1.0
C      1  0.5329080000000  0.5799840000000  0.5819080000000 1.0
C      1  0.4549440000000  0.3927870000000  0.5496990000000 1.0
C      1  0.5033870000000  0.4951780000000  0.5091160000000 1.0
C      1  0.5022600000000  0.6175660000000  0.5167390000000 1.0
C      1  0.5096530000000  0.5648890000000  0.5900770000000 1.0
C      1  0.5182010000000  0.5111810000000  0.4914520000000 1.0
C      1  0.4048810000000  0.5464010000000  0.4625570000000 1.0
C      1  0.4069080000000  0.4892050000000  0.4938820000000 1.0
C      1  0.5337970000000  0.4764200000000  0.4370820000000 1.0
C      1  0.4368010000000  0.5225610000000  0.4819200000000 1.0
C      1  0.5106430000000  0.4279150000000  0.3855650000000 1.0
C      1  0.5684560000000  0.5802160000000  0.4542430000000 1.0
C      1  0.4725980000000  0.4847410000000  0.3960500000000 1.0
C      1  0.4599940000000  0.4949480000000  0.4504580000000 1.0
C      1  0.4282580000000  0.5090000000000  0.5033540000000 1.0
C      1  0.6057170000000  0.5271610000000  0.4414780000000 1.0
C      1  0.5810880000000  0.4473800000000  0.5760550000000 1.0
C      1  0.5661550000000  0.3914400000000  0.5727130000000 1.0
C      1  0.4831970000000  0.4684190000000  0.5973530000000 1.0
C      1  0.5790790000000  0.5228890000000  0.5282160000000 1.0
C      1  0.5703720000000  0.5614240000000  0.5596070000000 1.0
C      1  0.4366070000000  0.5748410000000  0.4805040000000 1.0
C      1  0.5250300000000  0.4480060000000  0.5149310000000 1.0
C      1  0.4027040000000  0.4707940000000  0.5161000000000 1.0
C      1  0.5445190000000  0.5108370000000  0.5963990000000 1.0
C      1  0.4251570000000  0.5315220000000  0.5931110000000 1.0
C      1  0.5211300000000  0.4979270000000  0.3924350000000 1.0
C      1  0.4595920000000  0.5574120000000  0.5190280000000 1.0
C      1  0.5056140000000  0.5433430000000  0.4099530000000 1.0
C      1  0.5943340000000  0.4337680000000  0.5084010000000 1.0
C      1  0.4190660000000  0.5207060000000  0.4580710000000 1.0
C      1  0.5033170000000  0.4065130000000  0.4973170000000 1.0
C      1  0.4600520000000  0.5339920000000  0.5358290000000 1.0
C      1  0.5193920000000  0.5008010000000  0.6068290000000 1.0
C      1  0.4548020000000  0.4198860000000  0.4426090000000 1.0
C      1  0.4879790000000  0.5873780000000  0.5545780000000 1.0
C      1  0.3756500000000  0.5939440000000  0.5849100000000 1.0
C      1  0.4444670000000  0.4829250000000  0.5341970000000 1.0
C      1  0.4810480000000  0.4811340000000  0.5069640000000 1.0
C      1  0.4143460000000  0.4380110000000  0.4708480000000 1.0
C      1  0.5951860000000  0.5412140000000  0.4648350000000 1.0
C      1  0.4739620000000  0.4592270000000  0.5713410000000 1.0
C      1  0.6084920000000  0.4788960000000  0.5230220000000 1.0
C      1  0.4616390000000  0.4873940000000  0.6036680000000 1.0
C      1  0.5617180000000  0.5178190000000  0.5764880000000 1.0
C      1  0.5216260000000  0.4344740000000  0.4490700000000 1.0
C      1  0.4781350000000  0.5781390000000  0.5281420000000 1.0
C      1  0.4149960000000  0.4834960000000  0.5387830000000 1.0
C      1  0.4512700000000  0.4660710000000  0.4086010000000 1.0
C      1  0.5555190000000  0.5171580000000  0.4563320000000 1.0
C      1  0.4631960000000  0.5308560000000  0.4796110000000 1.0
C      1  0.5591430000000  0.5684500000000  0.5854010000000 1.0
C      1  0.4983770000000  0.5199000000000  0.6129550000000 1.0
C      1  0.4163870000000  0.5734380000000  0.5014890000000 1.0
C      1  0.4765800000000  0.4529370000000  0.4680020000000 1.0
C      1  0.4852740000000  0.5432960000000  0.4312590000000 1.0
C      1  0.4375650000000  0.4104550000000  0.5365520000000 1.0
C      1  0.4492730000000  0.5325890000000  0.6080810000000 1.0
C      1  0.5042370000000  0.5213740000000  0.3925480000000 1.0
C      1  0.4006570000000  0.5502350000000  0.4998280000000 1.0
C      1  0.5521440000000  0.4175280000000  0.4854960000000 1.0
C      1  0.5619540000000  0.4712350000000  0.4925020000000 1.0
C      1  0.5186500000000  0.5398820000000  0.5280920000000 1.0
C      1  0.4276310000000  0.4367160000000  0.5444880000000 1.0
C      1  0.5025320000000  0.4467000000000  0.5357750000000 1.0
C      1  0.5339010000000  0.4609700000000  0.5817380000000 1.0
C      1  0.5018690000000  0.4752830000000  0.3945820000000 1.0
C      1  0.5592120000000  0.3927070000000  0.4214930000000 1.0
C      1  0.5536860000000  0.4391720000000  0.5770830000000 1.0
C      1  0.5131470000000  0.4802590000000  0.4558900000000 1.0
C      1  0.5738950000000  0.5257840000000  0.4767300000000 1.0
C      1  0.3986650000000  0.5310980000000  0.5289940000000 1.0
C      1  0.4281930000000  0.4579210000000  0.4576100000000 1.0
C      1  0.4546450000000  0.4683050000000  0.4600100000000 1.0
C      1  0.4206510000000  0.5078720000000  0.5772820000000 1.0
C      1  0.4735770000000  0.3868990000000  0.5291180000000 1.0
C      1  0.4746720000000  0.5160730000000  0.3888540000000 1.0
C      1  0.5398140000000  0.5338320000000  0.4419790000000 1.0
C      1  0.4622190000000  0.4641180000000  0.5199320000000 1.0
C      1  0.4565460000000  0.5386890000000  0.4316380000000 1.0
C      1  0.6013690000000  0.4786970000000  0.4285690000000 1.0
C      1  0.5332410000000  0.5633710000000  0.4832500000000 1.0
C      1  0.4755460000000  0.6047870000000  0.5145560000000 1.0
C      1  0.4438410000000  0.4572280000000  0.5688400000000 1.0
C      1  0.6028810000000  0.4517750000000  0.5286690000000 1.0
C      1  0.6001770000000  0.5041170000000  0.5264000000000 1.0
C      1  0.5125210000000  0.4728460000000  0.6002540000000 1.0
C      1  0.5716410000000  0.5334630000000  0.5543090000000 1.0
C      1  0.5442910000000  0.3908900000000  0.4444020000000 1.0
C      1  0.5090640000000  0.4217230000000  0.5525840000000 1.0
C      1  0.5408480000000  0.5762840000000  0.4589440000000 1.0
C      1  0.4070260000000  0.5526300000000  0.5932360000000 1.0
C      1  0.4872830000000  0.5691930000000  0.4763820000000 1.0
C      1  0.4173980000000  0.4279240000000  0.4962610000000 1.0
C      1  0.5585180000000  0.4899920000000  0.4444520000000 1.0
C      1  0.4242070000000  0.4763160000000  0.4158070000000 1.0
C      1  0.5318880000000  0.4177460000000  0.5091590000000 1.0
C      1  0.5696390000000  0.4755940000000  0.4676510000000 1.0
C      1  0.5093990000000  0.5714850000000  0.4933070000000 1.0
C      1  0.5291340000000  0.4501930000000  0.4250630000000 1.0
C      1  0.5094180000000  0.4934500000000  0.5541640000000 1.0
C      1  0.4594870000000  0.4078020000000  0.4700960000000 1.0
C      1  0.5998600000000  0.4523600000000  0.4399920000000 1.0
C      1  0.4578530000000  0.5772470000000  0.4101950000000 1.0
C      1  0.5092850000000  0.6251110000000  0.4893360000000 1.0
C      1  0.5348190000000  0.3666630000000  0.4529800000000 1.0
C      1  0.4621060000000  0.5595010000000  0.4881070000000 1.0
C      1  0.4929680000000  0.4106360000000  0.5730030000000 1.0
C      1  0.5643540000000  0.5273060000000  0.5037480000000 1.0
C      1  0.5350380000000  0.4813720000000  0.5602830000000 1.0
C      1  0.5358910000000  0.5941340000000  0.5548550000000 1.0
C      1  0.4948440000000  0.5619100000000  0.4506360000000 1.0
C      1  0.4117490000000  0.4758170000000  0.4423870000000 1.0
C      1  0.5044720000000  0.5640330000000  0.5197380000000 1.0
C      1  0.4623850000000  0.5487950000000  0.3888810000000 1.0
C      1  0.4422580000000  0.5641750000000  0.4313190000000 1.0
C      1  0.5867630000000  0.5236460000000  0.4190290000000 1.0
C      1  0.5037080000000  0.4536230000000  0.4625350000000 1.0
C      1  0.4419670000000  0.5152450000000  0.4383200000000 1.0
C      1  0.5177870000000  0.5803810000000  0.4391830000000 1.0
C      1  0.4070440000000  0.5092750000000  0.5503440000000 1.0
C      1  0.4891830000000  0.5630950000000  0.5701510000000 1.0
C      1  0.4109360000000  0.4436850000000  0.5196720000000 1.0
C      1  0.3909410000000  0.5733880000000  0.5897290000000 1.0
C      1  0.5112030000000  0.6053800000000  0.5444530000000 1.0
C      1  0.5898430000000  0.5694110000000  0.4699540000000 1.0
C      1  0.5802110000000  0.4265030000000  0.4846420000000 1.0
C      1  0.4768510000000  0.5985060000000  0.4196610000000 1.0
C      1  0.5523760000000  0.4785190000000  0.5388580000000 1.0
END
