TITL C-599896-8500-1050 0.050590118547591 125000 -79.7989428159514 0 0 15 (C1) n - 1
REM
REM in /home/nfs/bkarasulu/CARBON/AIRSS/Generating-Clusters/TERSOFF/Only-C1/FIRE-HFTN
REM
REM
REM
REM
REM
REM ./C.cell (11c1c37f851c82e70ff6c80c92926a4b)
REM AIRSS Version 0.9.1 bugfix July 2018 build 013d7b7c2542+ Fri, 06 Jul 2018 19:26:36 +0100
REM compiler GCC version 9.2.1 20190827 (Red Hat 9.2.1-1)
REM options -cpp -mtune=generic -march=x86-64 -g -O0 -fpre-include=/usr/include/finclude/math-vector-fortran.h
REM seed -1877427017 1195727538 369807326 631601149 488194500 1577659028 -655700046 1887097239 1492777519 -246570100 -25976588 -166696007 822269015 -997616231 302212535 226420364 -349600704 -888107233 -543692229 609666444 -403563146 576855319 354607742 -1436972532 1031001951 -100518910 -1929213778 -1071211652 -789479942 1369577495 1463173909 2119592163 -2114110339
REM
CELL 1.54180   50.00000   50.00000   50.00000   90.00000   90.00000   90.00000
LATT -1
SFAC C  
C      1  0.3956050000000  0.4728110000000  0.4901200000000 1.0
C      1  0.5132700000000  0.5078660000000  0.4967310000000 1.0
C      1  0.5131680000000  0.4720000000000  0.5297150000000 1.0
C      1  0.5255400000000  0.5022520000000  0.4722950000000 1.0
C      1  0.4995240000000  0.4874080000000  0.5108400000000 1.0
C      1  0.4724450000000  0.4828540000000  0.5057890000000 1.0
C      1  0.5265890000000  0.4584050000000  0.5474410000000 1.0
C      1  0.4467070000000  0.4794170000000  0.5005720000000 1.0
C      1  0.5548780000000  0.5452980000000  0.5417460000000 1.0
C      1  0.4955500000000  0.5526510000000  0.5011020000000 1.0
C      1  0.5353330000000  0.5404710000000  0.5251960000000 1.0
C      1  0.4209440000000  0.4760860000000  0.4953030000000 1.0
C      1  0.5487110000000  0.4915560000000  0.4263450000000 1.0
C      1  0.5372160000000  0.4968630000000  0.4491340000000 1.0
C      1  0.5145180000000  0.5340620000000  0.5076690000000 1.0
END
