TITL C-599890-3321-402 0.574078144602882 125000 -401.276651448002 0 0 67 (C1) n - 1
REM
REM in /home/nfs/bkarasulu/CARBON/AIRSS/Generating-Clusters/TERSOFF/Only-C1/FIRE-HFTN
REM
REM
REM
REM
REM
REM ./C.cell (11c1c37f851c82e70ff6c80c92926a4b)
REM AIRSS Version 0.9.1 bugfix July 2018 build 013d7b7c2542+ Fri, 06 Jul 2018 19:26:36 +0100
REM compiler GCC version 9.2.1 20190827 (Red Hat 9.2.1-1)
REM options -cpp -mtune=generic -march=x86-64 -g -O0 -fpre-include=/usr/include/finclude/math-vector-fortran.h
REM seed 1441813901 1268503030 1344787214 -129792906 -1702303567 1402597838 2073501623 -2124760831 -2113010105 1593644877 -875125834 -1923139421 1394140771 1240101354 962539068 165663447 1147925244 1310814829 -1437299475 1543450256 -146126639 -1941198543 752787659 1218572886 -655747138 886978937 -275531770 -1244346593 1629131229 -451785863 1912337017 961238688 411919665
REM
CELL 1.54180   50.00000   50.00000   50.00000   90.00000   90.00000   90.00000
LATT -1
SFAC C  
C      1  0.4484130000000  0.4777490000000  0.5190730000000 1.0
C      1  0.5073910000000  0.5540530000000  0.5500550000000 1.0
C      1  0.4397960000000  0.5454470000000  0.5272930000000 1.0
C      1  0.5220770000000  0.4782620000000  0.5599700000000 1.0
C      1  0.4463460000000  0.5388240000000  0.4462290000000 1.0
C      1  0.5052600000000  0.3865760000000  0.4508130000000 1.0
C      1  0.4729280000000  0.4344700000000  0.5120090000000 1.0
C      1  0.4682960000000  0.5567640000000  0.4483090000000 1.0
C      1  0.5766050000000  0.4384710000000  0.5486720000000 1.0
C      1  0.5137910000000  0.5029980000000  0.5741400000000 1.0
C      1  0.4485080000000  0.5330880000000  0.5041870000000 1.0
C      1  0.4209760000000  0.4832300000000  0.5173340000000 1.0
C      1  0.4263130000000  0.4898820000000  0.4536740000000 1.0
C      1  0.5204910000000  0.3651470000000  0.4474440000000 1.0
C      1  0.5967860000000  0.4819360000000  0.5653840000000 1.0
C      1  0.4688000000000  0.5845260000000  0.4973740000000 1.0
C      1  0.5106520000000  0.5318230000000  0.5318610000000 1.0
C      1  0.4345570000000  0.4458530000000  0.4777850000000 1.0
C      1  0.4688330000000  0.5184480000000  0.5516480000000 1.0
C      1  0.5316400000000  0.5510630000000  0.5660480000000 1.0
C      1  0.5170860000000  0.5092030000000  0.4775120000000 1.0
C      1  0.5509830000000  0.4799550000000  0.5625190000000 1.0
C      1  0.4603660000000  0.4343890000000  0.4838870000000 1.0
C      1  0.5085780000000  0.4656980000000  0.5378530000000 1.0
C      1  0.4584740000000  0.5457910000000  0.5495540000000 1.0
C      1  0.5003800000000  0.5249190000000  0.4216290000000 1.0
C      1  0.4760040000000  0.5694010000000  0.4743720000000 1.0
C      1  0.4605710000000  0.4706610000000  0.5441440000000 1.0
C      1  0.4751300000000  0.4311040000000  0.4588660000000 1.0
C      1  0.5289730000000  0.5218360000000  0.4200880000000 1.0
C      1  0.5749530000000  0.4643550000000  0.5580730000000 1.0
C      1  0.5615860000000  0.5367030000000  0.4569400000000 1.0
C      1  0.4059180000000  0.4790390000000  0.4953570000000 1.0
C      1  0.4864820000000  0.5177860000000  0.5283550000000 1.0
C      1  0.5290810000000  0.5002670000000  0.5028620000000 1.0
C      1  0.5354740000000  0.3440710000000  0.4441310000000 1.0
C      1  0.4845070000000  0.5011120000000  0.4206280000000 1.0
C      1  0.5156540000000  0.5674650000000  0.4399690000000 1.0
C      1  0.4947990000000  0.4692000000000  0.4921440000000 1.0
C      1  0.5003880000000  0.5548760000000  0.4799730000000 1.0
C      1  0.5350060000000  0.5238030000000  0.5761880000000 1.0
C      1  0.4820130000000  0.4518730000000  0.5364290000000 1.0
C      1  0.5149010000000  0.4767040000000  0.5120590000000 1.0
C      1  0.4924260000000  0.5512970000000  0.4316510000000 1.0
C      1  0.4805510000000  0.5656780000000  0.5461320000000 1.0
C      1  0.5768880000000  0.4141720000000  0.5392600000000 1.0
C      1  0.5064900000000  0.4662840000000  0.4665350000000 1.0
C      1  0.5541410000000  0.5634120000000  0.5531840000000 1.0
C      1  0.4732590000000  0.4517830000000  0.4386520000000 1.0
C      1  0.4901300000000  0.4080350000000  0.4542840000000 1.0
C      1  0.4194980000000  0.4695900000000  0.4723150000000 1.0
C      1  0.4756000000000  0.5836480000000  0.5239470000000 1.0
C      1  0.5614130000000  0.5618660000000  0.5268750000000 1.0
C      1  0.5518520000000  0.5261330000000  0.4338960000000 1.0
C      1  0.4619530000000  0.4929610000000  0.5616080000000 1.0
C      1  0.4339730000000  0.5149430000000  0.4474420000000 1.0
C      1  0.5874710000000  0.5066420000000  0.5736980000000 1.0
C      1  0.4749700000000  0.5220740000000  0.5023710000000 1.0
C      1  0.5335700000000  0.5245580000000  0.5168330000000 1.0
C      1  0.5587880000000  0.5076980000000  0.5726330000000 1.0
C      1  0.5485320000000  0.5516070000000  0.4774540000000 1.0
C      1  0.4955030000000  0.5272850000000  0.4830010000000 1.0
C      1  0.5243240000000  0.5636750000000  0.4674920000000 1.0
C      1  0.5504700000000  0.5457140000000  0.5061130000000 1.0
C      1  0.4765540000000  0.4757650000000  0.4262830000000 1.0
C      1  0.4677060000000  0.4772670000000  0.4976300000000 1.0
C      1  0.5181680000000  0.4890930000000  0.4578750000000 1.0
END
