TITL C-599897-7526-492 14.5743443604045 125000 -250.446456705959 0 0 43 (C1) n - 1
REM
REM in /home/nfs/bkarasulu/CARBON/AIRSS/Generating-Clusters/TERSOFF/Only-C1/FIRE-HFTN
REM
REM
REM
REM
REM
REM ./C.cell (11c1c37f851c82e70ff6c80c92926a4b)
REM AIRSS Version 0.9.1 bugfix July 2018 build 013d7b7c2542+ Fri, 06 Jul 2018 19:26:36 +0100
REM compiler GCC version 9.2.1 20190827 (Red Hat 9.2.1-1)
REM options -cpp -mtune=generic -march=x86-64 -g -O0 -fpre-include=/usr/include/finclude/math-vector-fortran.h
REM seed -341490388 -551507783 -945772474 -1572667092 1086655290 -143655606 46227945 894065510 -1808416864 601063580 836490271 27867666 1888736644 -1266779830 619506892 -1060020382 -1766547268 596814801 -2013583378 1119991795 1297049965 -171071219 1589764305 343496872 -61393608 2122475898 -1887845755 -1738275797 -1074778312 1694347659 -2106183928 1740413653 -1654600426
REM
CELL 1.54180   50.00000   50.00000   50.00000   90.00000   90.00000   90.00000
LATT -1
SFAC C  
C      1  0.5749740000000  0.5653600000000  0.5142360000000 1.0
C      1  0.4384960000000  0.4875500000000  0.4627400000000 1.0
C      1  0.5820750000000  0.4983020000000  0.5864470000000 1.0
C      1  0.5502860000000  0.5339690000000  0.5910430000000 1.0
C      1  0.5456690000000  0.5018080000000  0.5553880000000 1.0
C      1  0.3941570000000  0.4666900000000  0.4580740000000 1.0
C      1  0.5000370000000  0.5247640000000  0.4543370000000 1.0
C      1  0.4152960000000  0.4825220000000  0.4477720000000 1.0
C      1  0.5899790000000  0.5666270000000  0.5360410000000 1.0
C      1  0.5582810000000  0.5614150000000  0.4940360000000 1.0
C      1  0.3799170000000  0.4751470000000  0.4805500000000 1.0
C      1  0.5595850000000  0.5112010000000  0.5777320000000 1.0
C      1  0.5327120000000  0.4942270000000  0.5323130000000 1.0
C      1  0.5133820000000  0.5091750000000  0.5167260000000 1.0
C      1  0.6286110000000  0.5523600000000  0.6328830000000 1.0
C      1  0.6217420000000  0.5581170000000  0.6079460000000 1.0
C      1  0.5188500000000  0.4693200000000  0.4935160000000 1.0
C      1  0.5354560000000  0.4696650000000  0.5171560000000 1.0
C      1  0.5149170000000  0.4482190000000  0.4761300000000 1.0
C      1  0.4906560000000  0.5270790000000  0.4281030000000 1.0
C      1  0.6352890000000  0.5464380000000  0.6578410000000 1.0
C      1  0.4830260000000  0.4165860000000  0.4495560000000 1.0
C      1  0.3876400000000  0.4420570000000  0.4454040000000 1.0
C      1  0.4077970000000  0.4231820000000  0.4411470000000 1.0
C      1  0.4890990000000  0.5052730000000  0.4721170000000 1.0
C      1  0.5203420000000  0.5417940000000  0.4632630000000 1.0
C      1  0.4583230000000  0.4103060000000  0.4422310000000 1.0
C      1  0.4627090000000  0.4962760000000  0.4693240000000 1.0
C      1  0.4139300000000  0.4931780000000  0.4218850000000 1.0
C      1  0.5398770000000  0.5537820000000  0.4765570000000 1.0
C      1  0.5427300000000  0.5559260000000  0.6028760000000 1.0
C      1  0.4500280000000  0.5190100000000  0.3977170000000 1.0
C      1  0.5026700000000  0.4300300000000  0.4612430000000 1.0
C      1  0.4320250000000  0.4125350000000  0.4396410000000 1.0
C      1  0.6136930000000  0.5629260000000  0.5831620000000 1.0
C      1  0.5051830000000  0.4951350000000  0.4927680000000 1.0
C      1  0.3664970000000  0.4829540000000  0.5014810000000 1.0
C      1  0.3615050000000  0.4370530000000  0.4369820000000 1.0
C      1  0.4270380000000  0.5066350000000  0.4030090000000 1.0
C      1  0.6031240000000  0.5658320000000  0.5590360000000 1.0
C      1  0.4736390000000  0.5260670000000  0.4077480000000 1.0
C      1  0.6418550000000  0.5406110000000  0.6823890000000 1.0
C      1  0.3369030000000  0.4329010000000  0.4294560000000 1.0
END
