TITL C-599893-4344-1021 1.33809843011175e-05 125000 -862.803890053958 0 0 143 (C1) n - 1
REM
REM in /home/nfs/bkarasulu/CARBON/AIRSS/Generating-Clusters/TERSOFF/Only-C1/FIRE-HFTN
REM
REM
REM
REM
REM
REM ./C.cell (11c1c37f851c82e70ff6c80c92926a4b)
REM AIRSS Version 0.9.1 bugfix July 2018 build 013d7b7c2542+ Fri, 06 Jul 2018 19:26:36 +0100
REM compiler GCC version 9.2.1 20190827 (Red Hat 9.2.1-1)
REM options -cpp -mtune=generic -march=x86-64 -g -O0 -fpre-include=/usr/include/finclude/math-vector-fortran.h
REM seed 937978937 -126786980 1595327772 -724507925 1265794359 -1069793864 -623442988 -1326365039 453100275 -1074986014 1784741321 1953937237 -81017389 -2002436544 -619673736 1289923505 1018684226 -2027571571 217751758 -2125635237 -313714606 1113341029 -1230862361 1684938626 1355007338 1824288454 496988017 -1626596315 -1213254259 -529451699 -533355732 191347462 2045449200
REM
CELL 1.54180   50.00000   50.00000   50.00000   90.00000   90.00000   90.00000
LATT -1
SFAC C  
C      1  0.5020860000000  0.4390290000000  0.5699150000000 1.0
C      1  0.5767040000000  0.4707350000000  0.5617890000000 1.0
C      1  0.4082900000000  0.4838180000000  0.4575320000000 1.0
C      1  0.5910390000000  0.4863330000000  0.4545800000000 1.0
C      1  0.4234600000000  0.4359330000000  0.5343950000000 1.0
C      1  0.4908710000000  0.5666450000000  0.4018210000000 1.0
C      1  0.5315950000000  0.5559860000000  0.4439240000000 1.0
C      1  0.4073160000000  0.4634500000000  0.4771340000000 1.0
C      1  0.5095520000000  0.5020180000000  0.5185260000000 1.0
C      1  0.3639510000000  0.5531570000000  0.5074570000000 1.0
C      1  0.5052580000000  0.4708680000000  0.3977680000000 1.0
C      1  0.5965810000000  0.4486480000000  0.4882930000000 1.0
C      1  0.5482980000000  0.5999800000000  0.4811030000000 1.0
C      1  0.5869190000000  0.5628950000000  0.4770280000000 1.0
C      1  0.5221200000000  0.5497090000000  0.5887550000000 1.0
C      1  0.4043280000000  0.4859710000000  0.5424690000000 1.0
C      1  0.5767480000000  0.5158020000000  0.5724330000000 1.0
C      1  0.5496960000000  0.4818290000000  0.5618120000000 1.0
C      1  0.4680940000000  0.4805770000000  0.4268940000000 1.0
C      1  0.4080420000000  0.5216570000000  0.5770850000000 1.0
C      1  0.5957680000000  0.5344040000000  0.4796040000000 1.0
C      1  0.4926480000000  0.6072960000000  0.4851240000000 1.0
C      1  0.4056760000000  0.5122570000000  0.4614670000000 1.0
C      1  0.4162030000000  0.4604310000000  0.5490130000000 1.0
C      1  0.4893520000000  0.5192490000000  0.4106070000000 1.0
C      1  0.5851810000000  0.5492260000000  0.5245680000000 1.0
C      1  0.5907400000000  0.5239180000000  0.5090990000000 1.0
C      1  0.4192310000000  0.4757920000000  0.4326820000000 1.0
C      1  0.4879790000000  0.4612670000000  0.5585950000000 1.0
C      1  0.5986920000000  0.4273840000000  0.5674920000000 1.0
C      1  0.5252630000000  0.5210580000000  0.4751740000000 1.0
C      1  0.4795150000000  0.4051730000000  0.5115120000000 1.0
C      1  0.5426610000000  0.5254570000000  0.4978560000000 1.0
C      1  0.3865340000000  0.5376790000000  0.5072550000000 1.0
C      1  0.5370580000000  0.4406420000000  0.4181870000000 1.0
C      1  0.4727470000000  0.5794050000000  0.5258260000000 1.0
C      1  0.4717370000000  0.5997050000000  0.4659880000000 1.0
C      1  0.5926450000000  0.4959340000000  0.5567010000000 1.0
C      1  0.5112050000000  0.4444340000000  0.4066790000000 1.0
C      1  0.4504970000000  0.5839720000000  0.4761180000000 1.0
C      1  0.5470740000000  0.3718730000000  0.5199740000000 1.0
C      1  0.4257940000000  0.5321060000000  0.5949300000000 1.0
C      1  0.5593020000000  0.5573870000000  0.5322450000000 1.0
C      1  0.5382020000000  0.5472410000000  0.5159780000000 1.0
C      1  0.4527060000000  0.5333620000000  0.6047710000000 1.0
C      1  0.5352130000000  0.4084700000000  0.5549470000000 1.0
C      1  0.5337140000000  0.5282410000000  0.4492680000000 1.0
C      1  0.6029400000000  0.5055800000000  0.5314130000000 1.0
C      1  0.5132440000000  0.4759850000000  0.5253350000000 1.0
C      1  0.5441570000000  0.5656560000000  0.5810130000000 1.0
C      1  0.5201800000000  0.5366510000000  0.3769850000000 1.0
C      1  0.5688760000000  0.4374550000000  0.4517050000000 1.0
C      1  0.4968450000000  0.5905960000000  0.5813470000000 1.0
C      1  0.5122500000000  0.4395050000000  0.4792350000000 1.0
C      1  0.4635150000000  0.5080960000000  0.6112560000000 1.0
C      1  0.4439800000000  0.5756080000000  0.5268530000000 1.0
C      1  0.5204810000000  0.6085820000000  0.4753460000000 1.0
C      1  0.4327270000000  0.4325760000000  0.5071200000000 1.0
C      1  0.4637760000000  0.4220220000000  0.4182140000000 1.0
C      1  0.4343220000000  0.4148840000000  0.5511120000000 1.0
C      1  0.5700390000000  0.4405060000000  0.4799580000000 1.0
C      1  0.5333180000000  0.4008060000000  0.4555360000000 1.0
C      1  0.5203550000000  0.3863110000000  0.4783440000000 1.0
C      1  0.5076400000000  0.6124830000000  0.5340420000000 1.0
C      1  0.4814370000000  0.4056440000000  0.4643300000000 1.0
C      1  0.5365650000000  0.3709530000000  0.4954860000000 1.0
C      1  0.5008000000000  0.5406230000000  0.3957620000000 1.0
C      1  0.6169010000000  0.4342640000000  0.4986740000000 1.0
C      1  0.5458100000000  0.4225340000000  0.4402450000000 1.0
C      1  0.4449070000000  0.5579250000000  0.4783740000000 1.0
C      1  0.4669110000000  0.4861320000000  0.5943720000000 1.0
C      1  0.4420740000000  0.5383490000000  0.5518590000000 1.0
C      1  0.4262620000000  0.4601040000000  0.5756610000000 1.0
C      1  0.4926230000000  0.4301040000000  0.4611410000000 1.0
C      1  0.4257900000000  0.5546090000000  0.5351500000000 1.0
C      1  0.4628840000000  0.5109060000000  0.5166910000000 1.0
C      1  0.5759830000000  0.5551950000000  0.4261020000000 1.0
C      1  0.4457610000000  0.4678540000000  0.5920330000000 1.0
C      1  0.4922070000000  0.3925090000000  0.4874660000000 1.0
C      1  0.4970450000000  0.5643640000000  0.5925020000000 1.0
C      1  0.5496760000000  0.4295340000000  0.5701880000000 1.0
C      1  0.3931980000000  0.5229160000000  0.4842410000000 1.0
C      1  0.4190660000000  0.5298400000000  0.4431830000000 1.0
C      1  0.4742090000000  0.5972720000000  0.4375470000000 1.0
C      1  0.4833590000000  0.4026350000000  0.5402750000000 1.0
C      1  0.4369020000000  0.5104100000000  0.4046530000000 1.0
C      1  0.4625120000000  0.5233830000000  0.5417130000000 1.0
C      1  0.4723140000000  0.5536370000000  0.6015800000000 1.0
C      1  0.5467950000000  0.3866780000000  0.5421010000000 1.0
C      1  0.5211160000000  0.4273510000000  0.5021660000000 1.0
C      1  0.5112710000000  0.5669810000000  0.4599900000000 1.0
C      1  0.5945120000000  0.4768500000000  0.4824760000000 1.0
C      1  0.5648130000000  0.5094530000000  0.5034700000000 1.0
C      1  0.4921290000000  0.5575000000000  0.5330370000000 1.0
C      1  0.4879390000000  0.6027990000000  0.5146350000000 1.0
C      1  0.4616710000000  0.4288460000000  0.5062220000000 1.0
C      1  0.5273480000000  0.4426050000000  0.5839360000000 1.0
C      1  0.5531890000000  0.6094630000000  0.5076980000000 1.0
C      1  0.4744170000000  0.5163570000000  0.4595580000000 1.0
C      1  0.5682360000000  0.4838420000000  0.4945000000000 1.0
C      1  0.5001490000000  0.5129010000000  0.5672870000000 1.0
C      1  0.4430640000000  0.4214820000000  0.4354480000000 1.0
C      1  0.4888340000000  0.4622040000000  0.5294350000000 1.0
C      1  0.4020600000000  0.5140400000000  0.5496900000000 1.0
C      1  0.4693560000000  0.4696900000000  0.4813910000000 1.0
C      1  0.4292000000000  0.4249720000000  0.4582720000000 1.0
C      1  0.5485540000000  0.5082030000000  0.5741770000000 1.0
C      1  0.5016850000000  0.6078450000000  0.5613820000000 1.0
C      1  0.5345560000000  0.4710850000000  0.5415320000000 1.0
C      1  0.4886930000000  0.4273530000000  0.4094060000000 1.0
C      1  0.5345430000000  0.6164480000000  0.5260760000000 1.0
C      1  0.4452480000000  0.5632940000000  0.4153140000000 1.0
C      1  0.4528930000000  0.5328250000000  0.4738800000000 1.0
C      1  0.5059530000000  0.5648580000000  0.4863830000000 1.0
C      1  0.5059540000000  0.4138540000000  0.5542630000000 1.0
C      1  0.5890770000000  0.5319270000000  0.4310140000000 1.0
C      1  0.4696250000000  0.5785130000000  0.4165070000000 1.0
C      1  0.5567450000000  0.4628730000000  0.4160210000000 1.0
C      1  0.5090990000000  0.4799400000000  0.4571100000000 1.0
C      1  0.4879760000000  0.5328890000000  0.5495110000000 1.0
C      1  0.4886120000000  0.4906760000000  0.4083220000000 1.0
C      1  0.5254720000000  0.4634520000000  0.4732510000000 1.0
C      1  0.4581290000000  0.4021370000000  0.5540250000000 1.0
C      1  0.5757070000000  0.4422320000000  0.5664780000000 1.0
C      1  0.4416990000000  0.5344270000000  0.4229350000000 1.0
C      1  0.4711720000000  0.5273970000000  0.4318000000000 1.0
C      1  0.4206650000000  0.4387900000000  0.4818090000000 1.0
C      1  0.4775160000000  0.4848570000000  0.4559790000000 1.0
C      1  0.5556570000000  0.5693750000000  0.5571650000000 1.0
C      1  0.4884650000000  0.5125440000000  0.5044470000000 1.0
C      1  0.4030680000000  0.5366810000000  0.5302680000000 1.0
C      1  0.4410790000000  0.4849170000000  0.4177670000000 1.0
C      1  0.5127830000000  0.5582070000000  0.5131400000000 1.0
C      1  0.5759820000000  0.4640930000000  0.4379450000000 1.0
C      1  0.5938420000000  0.5165020000000  0.4546980000000 1.0
C      1  0.4968010000000  0.5200090000000  0.4788230000000 1.0
C      1  0.4863800000000  0.4868380000000  0.5732540000000 1.0
C      1  0.5509900000000  0.4630700000000  0.4857240000000 1.0
C      1  0.5565490000000  0.5691490000000  0.4416480000000 1.0
C      1  0.5241100000000  0.5220810000000  0.5798520000000 1.0
C      1  0.4740160000000  0.4548170000000  0.5059450000000 1.0
C      1  0.4408690000000  0.4981110000000  0.5073760000000 1.0
C      1  0.5656020000000  0.5803180000000  0.4670500000000 1.0
END
