TITL C-599896-8500-805 26459.1810880063 125000 -1213.52032006635 0 0 198 (C1) n - 1
REM
REM in /home/nfs/bkarasulu/CARBON/AIRSS/Generating-Clusters/TERSOFF/Only-C1/FIRE-HFTN
REM
REM
REM
REM
REM
REM ./C.cell (11c1c37f851c82e70ff6c80c92926a4b)
REM AIRSS Version 0.9.1 bugfix July 2018 build 013d7b7c2542+ Fri, 06 Jul 2018 19:26:36 +0100
REM compiler GCC version 9.2.1 20190827 (Red Hat 9.2.1-1)
REM options -cpp -mtune=generic -march=x86-64 -g -O0 -fpre-include=/usr/include/finclude/math-vector-fortran.h
REM seed 679600542 1853226383 63299032 -515525170 1538980162 -961038750 150951460 -422117988 -916436363 -908562320 1583745363 -562665839 -727266699 1114390682 -1312258062 1120971604 -1895391642 -500373165 -1595720088 -405311575 152977261 -990699388 -1459069471 1714754476 -729095967 2027711612 472693330 -1487014296 1013751176 876018151 803986689 1034998948 -1691282215
REM
CELL 1.54180   50.00000   50.00000   50.00000   90.00000   90.00000   90.00000
LATT -1
SFAC C  
C      1  0.4658700000000  0.4786950000000  0.4295210000000 1.0
C      1  0.5604730000000  0.5875790000000  0.4269710000000 1.0
C      1  0.4109030000000  0.4004200000000  0.5283070000000 1.0
C      1  0.5726290000000  0.5293140000000  0.5918180000000 1.0
C      1  0.4195960000000  0.5975250000000  0.5394530000000 1.0
C      1  0.5523530000000  0.5400710000000  0.4016360000000 1.0
C      1  0.5358900000000  0.3771140000000  0.5151030000000 1.0
C      1  0.5163300000000  0.4598210000000  0.4288050000000 1.0
C      1  0.5121660000000  0.6062740000000  0.5215920000000 1.0
C      1  0.5566070000000  0.3886340000000  0.5285280000000 1.0
C      1  0.4308000000000  0.4746480000000  0.4878290000000 1.0
C      1  0.4522820000000  0.5838760000000  0.5754850000000 1.0
C      1  0.4456920000000  0.4591840000000  0.4229660000000 1.0
C      1  0.6206580000000  0.5377080000000  0.5442240000000 1.0
C      1  0.4033970000000  0.5741980000000  0.4918420000000 1.0
C      1  0.5126740000000  0.4800730000000  0.6195710000000 1.0
C      1  0.6140880000000  0.5448650000000  0.5178120000000 1.0
C      1  0.5889690000000  0.5131190000000  0.5748620000000 1.0
C      1  0.5287990000000  0.4552960000000  0.6174780000000 1.0
C      1  0.5963250000000  0.5323520000000  0.4367660000000 1.0
C      1  0.4935110000000  0.5697910000000  0.4020560000000 1.0
C      1  0.3914060000000  0.4584570000000  0.4214120000000 1.0
C      1  0.5320120000000  0.4656830000000  0.5039630000000 1.0
C      1  0.5144090000000  0.6259730000000  0.4534080000000 1.0
C      1  0.5564470000000  0.4849170000000  0.3860150000000 1.0
C      1  0.6321830000000  0.5313050000000  0.4706240000000 1.0
C      1  0.3950440000000  0.5875710000000  0.4693940000000 1.0
C      1  0.3888050000000  0.4531800000000  0.4668400000000 1.0
C      1  0.5552100000000  0.4647880000000  0.6082810000000 1.0
C      1  0.6379850000000  0.4713450000000  0.5301370000000 1.0
C      1  0.5734420000000  0.5709510000000  0.5576190000000 1.0
C      1  0.5230760000000  0.5372000000000  0.5539890000000 1.0
C      1  0.3678690000000  0.4725560000000  0.4615010000000 1.0
C      1  0.4532420000000  0.5846890000000  0.5049120000000 1.0
C      1  0.4080340000000  0.5451050000000  0.4908590000000 1.0
C      1  0.6004610000000  0.4571170000000  0.4350850000000 1.0
C      1  0.4745000000000  0.4216620000000  0.3919990000000 1.0
C      1  0.5423240000000  0.4064610000000  0.4758070000000 1.0
C      1  0.4850870000000  0.5447820000000  0.3922440000000 1.0
C      1  0.6099470000000  0.3901820000000  0.4605260000000 1.0
C      1  0.4429250000000  0.4314510000000  0.4303530000000 1.0
C      1  0.5055150000000  0.5833490000000  0.5048790000000 1.0
C      1  0.5422470000000  0.4488170000000  0.4382230000000 1.0
C      1  0.4193040000000  0.4656900000000  0.5301840000000 1.0
C      1  0.4545490000000  0.5472780000000  0.4746340000000 1.0
C      1  0.4808540000000  0.4896130000000  0.4048020000000 1.0
C      1  0.5373760000000  0.6176310000000  0.5164590000000 1.0
C      1  0.3681070000000  0.4957820000000  0.3886490000000 1.0
C      1  0.5226770000000  0.3930860000000  0.4949220000000 1.0
C      1  0.3695450000000  0.4759590000000  0.4327110000000 1.0
C      1  0.5346400000000  0.4434720000000  0.5729620000000 1.0
C      1  0.5695760000000  0.5379850000000  0.4450610000000 1.0
C      1  0.6156670000000  0.5460760000000  0.4530860000000 1.0
C      1  0.5322800000000  0.5705170000000  0.5926680000000 1.0
C      1  0.4978140000000  0.5850860000000  0.5624530000000 1.0
C      1  0.6007960000000  0.4732140000000  0.6350640000000 1.0
C      1  0.4575910000000  0.6330010000000  0.4932280000000 1.0
C      1  0.4641730000000  0.4397330000000  0.4759500000000 1.0
C      1  0.5140710000000  0.5068580000000  0.5595690000000 1.0
C      1  0.4134330000000  0.5053280000000  0.5917380000000 1.0
C      1  0.3750110000000  0.4858910000000  0.5107290000000 1.0
C      1  0.4804190000000  0.5837200000000  0.5851990000000 1.0
C      1  0.5605680000000  0.5190540000000  0.4892430000000 1.0
C      1  0.5106760000000  0.4420830000000  0.4696300000000 1.0
C      1  0.5971660000000  0.4547720000000  0.4652190000000 1.0
C      1  0.5123250000000  0.4848260000000  0.4126460000000 1.0
C      1  0.5312670000000  0.5447310000000  0.5830260000000 1.0
C      1  0.5183330000000  0.4486640000000  0.3804830000000 1.0
C      1  0.5900500000000  0.5775670000000  0.4872220000000 1.0
C      1  0.5276110000000  0.4430660000000  0.5462240000000 1.0
C      1  0.3939570000000  0.4631050000000  0.5151130000000 1.0
C      1  0.5909390000000  0.4814220000000  0.5388420000000 1.0
C      1  0.4733300000000  0.5313600000000  0.4887930000000 1.0
C      1  0.4420870000000  0.4448160000000  0.5322340000000 1.0
C      1  0.4864320000000  0.4116430000000  0.5520100000000 1.0
C      1  0.4965760000000  0.5511480000000  0.6258450000000 1.0
C      1  0.5747290000000  0.4369030000000  0.5165870000000 1.0
C      1  0.6029830000000  0.4428870000000  0.5116010000000 1.0
C      1  0.5269030000000  0.6031770000000  0.4617150000000 1.0
C      1  0.4588020000000  0.4788810000000  0.3837960000000 1.0
C      1  0.4651160000000  0.4945610000000  0.4522290000000 1.0
C      1  0.5443720000000  0.5237200000000  0.5991440000000 1.0
C      1  0.4739530000000  0.5864590000000  0.4134490000000 1.0
C      1  0.4942040000000  0.6076620000000  0.5443780000000 1.0
C      1  0.5142150000000  0.5828340000000  0.4776680000000 1.0
C      1  0.4213070000000  0.4236440000000  0.4484970000000 1.0
C      1  0.4057520000000  0.4596360000000  0.4877690000000 1.0
C      1  0.4660220000000  0.6135980000000  0.5387820000000 1.0
C      1  0.4058650000000  0.4674540000000  0.3974940000000 1.0
C      1  0.4452680000000  0.5552630000000  0.5768590000000 1.0
C      1  0.4607740000000  0.4092470000000  0.5891220000000 1.0
C      1  0.3825530000000  0.5119420000000  0.5195870000000 1.0
C      1  0.4580190000000  0.5697110000000  0.4585230000000 1.0
C      1  0.5865380000000  0.4819420000000  0.4315600000000 1.0
C      1  0.5783450000000  0.4685850000000  0.6226700000000 1.0
C      1  0.5479750000000  0.4907730000000  0.5653440000000 1.0
C      1  0.3582550000000  0.4933770000000  0.4137650000000 1.0
C      1  0.4649990000000  0.4578500000000  0.6072470000000 1.0
C      1  0.4344360000000  0.4671770000000  0.3972170000000 1.0
C      1  0.5131990000000  0.4668480000000  0.4820850000000 1.0
C      1  0.5025970000000  0.5599580000000  0.5474090000000 1.0
C      1  0.4200720000000  0.4037110000000  0.5544090000000 1.0
C      1  0.4785260000000  0.4082340000000  0.5248840000000 1.0
C      1  0.5594970000000  0.4564480000000  0.5014900000000 1.0
C      1  0.3971530000000  0.4828690000000  0.3516330000000 1.0
C      1  0.4530940000000  0.4208800000000  0.5169750000000 1.0
C      1  0.5226800000000  0.4320940000000  0.5976030000000 1.0
C      1  0.5248820000000  0.5084150000000  0.6174260000000 1.0
C      1  0.5680760000000  0.5576770000000  0.5322110000000 1.0
C      1  0.5191930000000  0.5705460000000  0.4133710000000 1.0
C      1  0.5768310000000  0.5564600000000  0.5819700000000 1.0
C      1  0.4200630000000  0.5461870000000  0.5663110000000 1.0
C      1  0.6115410000000  0.4653900000000  0.5269080000000 1.0
C      1  0.4070260000000  0.5884860000000  0.5168780000000 1.0
C      1  0.5900880000000  0.5608020000000  0.5120730000000 1.0
C      1  0.5763180000000  0.5982530000000  0.5581500000000 1.0
C      1  0.5961490000000  0.4082750000000  0.4754640000000 1.0
C      1  0.4051240000000  0.5291130000000  0.5827150000000 1.0
C      1  0.5109600000000  0.5134150000000  0.4601020000000 1.0
C      1  0.5164390000000  0.5578360000000  0.4655230000000 1.0
C      1  0.5950030000000  0.4468100000000  0.4074280000000 1.0
C      1  0.5371580000000  0.5288940000000  0.5030570000000 1.0
C      1  0.4865110000000  0.4312860000000  0.4607540000000 1.0
C      1  0.4327050000000  0.4143440000000  0.5788750000000 1.0
C      1  0.4857860000000  0.3968940000000  0.5780710000000 1.0
C      1  0.5588430000000  0.5149690000000  0.3873150000000 1.0
C      1  0.5352970000000  0.4299460000000  0.4601870000000 1.0
C      1  0.5035050000000  0.4267180000000  0.3917970000000 1.0
C      1  0.5494160000000  0.4670430000000  0.5803410000000 1.0
C      1  0.4718070000000  0.4370980000000  0.5898680000000 1.0
C      1  0.4919070000000  0.4939460000000  0.4681140000000 1.0
C      1  0.4840190000000  0.5607400000000  0.6027540000000 1.0
C      1  0.4595140000000  0.4994130000000  0.5737250000000 1.0
C      1  0.4914330000000  0.5625430000000  0.5209470000000 1.0
C      1  0.4241320000000  0.4120580000000  0.4766140000000 1.0
C      1  0.4178600000000  0.5441620000000  0.5380460000000 1.0
C      1  0.5103060000000  0.4146540000000  0.4178830000000 1.0
C      1  0.4443000000000  0.5394680000000  0.5262080000000 1.0
C      1  0.5548280000000  0.5970090000000  0.4548860000000 1.0
C      1  0.4804780000000  0.4389230000000  0.5622980000000 1.0
C      1  0.5432610000000  0.5330440000000  0.4302260000000 1.0
C      1  0.4624530000000  0.5609720000000  0.5183460000000 1.0
C      1  0.4379780000000  0.4638840000000  0.5991810000000 1.0
C      1  0.5223870000000  0.4656920000000  0.5302870000000 1.0
C      1  0.5697480000000  0.4040490000000  0.4855590000000 1.0
C      1  0.4299830000000  0.4891160000000  0.5140850000000 1.0
C      1  0.5757140000000  0.4702490000000  0.4813980000000 1.0
C      1  0.4876270000000  0.4155160000000  0.4367580000000 1.0
C      1  0.5051520000000  0.4856150000000  0.5410310000000 1.0
C      1  0.6295980000000  0.5330870000000  0.4973700000000 1.0
C      1  0.5701500000000  0.5970540000000  0.4802810000000 1.0
C      1  0.4089470000000  0.4020820000000  0.5003870000000 1.0
C      1  0.6067110000000  0.4342310000000  0.4831280000000 1.0
C      1  0.5590920000000  0.6130960000000  0.5011380000000 1.0
C      1  0.5992590000000  0.5062750000000  0.4270250000000 1.0
C      1  0.5433530000000  0.5405830000000  0.5294720000000 1.0
C      1  0.4393000000000  0.5086150000000  0.4586760000000 1.0
C      1  0.5683730000000  0.5403480000000  0.4727530000000 1.0
C      1  0.6073660000000  0.5705190000000  0.4654370000000 1.0
C      1  0.4488610000000  0.4201700000000  0.4887740000000 1.0
C      1  0.5098230000000  0.5284430000000  0.6322100000000 1.0
C      1  0.4594090000000  0.4990400000000  0.5459910000000 1.0
C      1  0.4825200000000  0.5156120000000  0.5791760000000 1.0
C      1  0.4845680000000  0.4744930000000  0.6189370000000 1.0
C      1  0.6135290000000  0.5235290000000  0.5657910000000 1.0
C      1  0.4697690000000  0.5404980000000  0.5873550000000 1.0
C      1  0.5594610000000  0.4721160000000  0.4359540000000 1.0
C      1  0.5285500000000  0.4754010000000  0.3877570000000 1.0
C      1  0.4803170000000  0.5192520000000  0.3980050000000 1.0
C      1  0.5091020000000  0.4064360000000  0.5943860000000 1.0
C      1  0.5478250000000  0.5708180000000  0.4044180000000 1.0
C      1  0.5746910000000  0.4965550000000  0.5566450000000 1.0
C      1  0.3987870000000  0.4405600000000  0.4435050000000 1.0
C      1  0.3598730000000  0.4847390000000  0.4858600000000 1.0
C      1  0.5779960000000  0.4632790000000  0.3903160000000 1.0
C      1  0.4442110000000  0.6014130000000  0.5544680000000 1.0
C      1  0.4578570000000  0.4650320000000  0.4871440000000 1.0
C      1  0.4969360000000  0.4009900000000  0.5042230000000 1.0
C      1  0.4234900000000  0.4403760000000  0.5896820000000 1.0
C      1  0.4774490000000  0.4795220000000  0.5343660000000 1.0
C      1  0.3998970000000  0.5340980000000  0.5170480000000 1.0
C      1  0.4365380000000  0.4899620000000  0.5885190000000 1.0
C      1  0.4293500000000  0.5329280000000  0.4729030000000 1.0
C      1  0.5223060000000  0.5550090000000  0.4379240000000 1.0
C      1  0.3906850000000  0.4822160000000  0.3781090000000 1.0
C      1  0.4441820000000  0.5107000000000  0.5261160000000 1.0
C      1  0.5692690000000  0.4093100000000  0.5145350000000 1.0
C      1  0.5627860000000  0.4948060000000  0.4755860000000 1.0
C      1  0.5490140000000  0.4928150000000  0.4510370000000 1.0
C      1  0.4547060000000  0.6521850000000  0.4758300000000 1.0
C      1  0.4641310000000  0.4165920000000  0.4192750000000 1.0
C      1  0.4662180000000  0.4548490000000  0.5448920000000 1.0
C      1  0.4590460000000  0.6117950000000  0.5109060000000 1.0
C      1  0.4736700000000  0.4808360000000  0.5053720000000 1.0
C      1  0.5185610000000  0.5335480000000  0.4801550000000 1.0
C      1  0.4610800000000  0.5847940000000  0.4368420000000 1.0
C      1  0.5282400000000  0.5079060000000  0.4368970000000 1.0
C      1  0.4817590000000  0.5049740000000  0.4934950000000 1.0
END
