TITL C-599897-7526-586 0.0709747135961418 125000 -768.652077924044 0 0 125 (C1) n - 1
REM
REM in /home/nfs/bkarasulu/CARBON/AIRSS/Generating-Clusters/TERSOFF/Only-C1/FIRE-HFTN
REM
REM
REM
REM
REM
REM ./C.cell (11c1c37f851c82e70ff6c80c92926a4b)
REM AIRSS Version 0.9.1 bugfix July 2018 build 013d7b7c2542+ Fri, 06 Jul 2018 19:26:36 +0100
REM compiler GCC version 9.2.1 20190827 (Red Hat 9.2.1-1)
REM options -cpp -mtune=generic -march=x86-64 -g -O0 -fpre-include=/usr/include/finclude/math-vector-fortran.h
REM seed -2088840413 -1944319943 -1790613057 -876515479 1408446047 -1407773011 1574100997 110472079 141216586 1885401490 -1100225534 -347966323 -1035404825 913136481 -916346863 -1171371161 -1722834800 667364420 359297478 -1968619467 2047066893 -282969296 154826996 -1985762328 -270204425 1499059626 669128347 921189372 211598195 207281640 224794802 2059150565 1124463990
REM
CELL 1.54180   50.00000   50.00000   50.00000   90.00000   90.00000   90.00000
LATT -1
SFAC C  
C      1  0.4698310000000  0.5901190000000  0.4629640000000 1.0
C      1  0.4632220000000  0.4994760000000  0.4193770000000 1.0
C      1  0.4580430000000  0.5649080000000  0.5995760000000 1.0
C      1  0.5359720000000  0.4936080000000  0.3994070000000 1.0
C      1  0.3717710000000  0.5137650000000  0.4921160000000 1.0
C      1  0.3980590000000  0.4801360000000  0.5820290000000 1.0
C      1  0.4517410000000  0.4164400000000  0.5303900000000 1.0
C      1  0.4137200000000  0.4855490000000  0.4514490000000 1.0
C      1  0.5544550000000  0.3825740000000  0.5268020000000 1.0
C      1  0.5583620000000  0.5762380000000  0.4307860000000 1.0
C      1  0.4464470000000  0.4449670000000  0.4351070000000 1.0
C      1  0.6161290000000  0.4624820000000  0.4988160000000 1.0
C      1  0.3966590000000  0.4023200000000  0.5482290000000 1.0
C      1  0.4405930000000  0.5987700000000  0.4977130000000 1.0
C      1  0.4986540000000  0.4577390000000  0.3909250000000 1.0
C      1  0.5581530000000  0.5337910000000  0.4114460000000 1.0
C      1  0.4620240000000  0.5244750000000  0.5118430000000 1.0
C      1  0.5799080000000  0.5360860000000  0.5414010000000 1.0
C      1  0.5570910000000  0.4968640000000  0.4462910000000 1.0
C      1  0.4466700000000  0.4399640000000  0.5444980000000 1.0
C      1  0.3757740000000  0.4393170000000  0.5739620000000 1.0
C      1  0.4879220000000  0.5620050000000  0.4241820000000 1.0
C      1  0.6168430000000  0.5125780000000  0.5191160000000 1.0
C      1  0.6367370000000  0.5090530000000  0.5388630000000 1.0
C      1  0.5028720000000  0.4223750000000  0.5529210000000 1.0
C      1  0.5330410000000  0.5761340000000  0.5383460000000 1.0
C      1  0.5903660000000  0.5484350000000  0.4958380000000 1.0
C      1  0.4688570000000  0.4894190000000  0.4434550000000 1.0
C      1  0.5891910000000  0.5352910000000  0.4689210000000 1.0
C      1  0.5575030000000  0.5231400000000  0.5814860000000 1.0
C      1  0.4261290000000  0.4962570000000  0.4749930000000 1.0
C      1  0.4325430000000  0.5238450000000  0.4737630000000 1.0
C      1  0.4805540000000  0.4026310000000  0.4778310000000 1.0
C      1  0.5099010000000  0.5897390000000  0.5278150000000 1.0
C      1  0.5557360000000  0.5049860000000  0.4185030000000 1.0
C      1  0.4097280000000  0.5565230000000  0.4414240000000 1.0
C      1  0.4537940000000  0.5362510000000  0.4864450000000 1.0
C      1  0.4448400000000  0.5333970000000  0.5650250000000 1.0
C      1  0.4217040000000  0.5770980000000  0.4542570000000 1.0
C      1  0.5146440000000  0.5613020000000  0.4128570000000 1.0
C      1  0.3729520000000  0.5069670000000  0.4661200000000 1.0
C      1  0.4973960000000  0.5454190000000  0.4937570000000 1.0
C      1  0.5682210000000  0.5147670000000  0.4673700000000 1.0
C      1  0.5943990000000  0.5471010000000  0.4437110000000 1.0
C      1  0.4939270000000  0.4557120000000  0.5930160000000 1.0
C      1  0.4578200000000  0.4964960000000  0.5111640000000 1.0
C      1  0.5070470000000  0.5318120000000  0.5421730000000 1.0
C      1  0.4896330000000  0.4823050000000  0.5966250000000 1.0
C      1  0.4810120000000  0.5916120000000  0.5337460000000 1.0
C      1  0.4408390000000  0.5913420000000  0.4695020000000 1.0
C      1  0.5973410000000  0.4389280000000  0.4541430000000 1.0
C      1  0.4824580000000  0.4824160000000  0.5092120000000 1.0
C      1  0.5596520000000  0.4974300000000  0.5887930000000 1.0
C      1  0.3998540000000  0.5287720000000  0.5343970000000 1.0
C      1  0.5980510000000  0.5335200000000  0.5194150000000 1.0
C      1  0.4207820000000  0.4444880000000  0.5571480000000 1.0
C      1  0.5559900000000  0.5368730000000  0.5569680000000 1.0
C      1  0.4801900000000  0.4724540000000  0.4630090000000 1.0
C      1  0.4775910000000  0.5651280000000  0.4508620000000 1.0
C      1  0.5109310000000  0.5890210000000  0.4977480000000 1.0
C      1  0.4134600000000  0.3872190000000  0.5336440000000 1.0
C      1  0.4667600000000  0.6002800000000  0.5099150000000 1.0
C      1  0.5342240000000  0.4806650000000  0.4552060000000 1.0
C      1  0.4843520000000  0.5053470000000  0.5801240000000 1.0
C      1  0.5032090000000  0.5086780000000  0.5587050000000 1.0
C      1  0.5329870000000  0.4702870000000  0.5580260000000 1.0
C      1  0.4465430000000  0.4833350000000  0.5628640000000 1.0
C      1  0.5294300000000  0.3916030000000  0.5269740000000 1.0
C      1  0.4929460000000  0.4456930000000  0.4560240000000 1.0
C      1  0.5155770000000  0.5237180000000  0.4588750000000 1.0
C      1  0.4383510000000  0.3936350000000  0.5255420000000 1.0
C      1  0.5196330000000  0.5620070000000  0.4924660000000 1.0
C      1  0.5227120000000  0.5166600000000  0.3874810000000 1.0
C      1  0.5308430000000  0.5485420000000  0.5476170000000 1.0
C      1  0.5584540000000  0.5813380000000  0.5243850000000 1.0
C      1  0.3929810000000  0.5057440000000  0.4458110000000 1.0
C      1  0.5454890000000  0.4718080000000  0.5081530000000 1.0
C      1  0.5221060000000  0.4552960000000  0.4487870000000 1.0
C      1  0.6197860000000  0.4205080000000  0.5239750000000 1.0
C      1  0.5268590000000  0.5471520000000  0.4529470000000 1.0
C      1  0.5316260000000  0.5690690000000  0.4355950000000 1.0
C      1  0.5328070000000  0.4490720000000  0.5025950000000 1.0
C      1  0.4211410000000  0.4716690000000  0.5684360000000 1.0
C      1  0.4204250000000  0.5334960000000  0.5507700000000 1.0
C      1  0.4767360000000  0.5466110000000  0.4731360000000 1.0
C      1  0.5668260000000  0.5647160000000  0.5025030000000 1.0
C      1  0.5120720000000  0.4299470000000  0.5031360000000 1.0
C      1  0.5157640000000  0.4979070000000  0.4695340000000 1.0
C      1  0.4796090000000  0.4756480000000  0.3798750000000 1.0
C      1  0.4594510000000  0.5698970000000  0.6251150000000 1.0
C      1  0.3974480000000  0.4278940000000  0.5596650000000 1.0
C      1  0.6274860000000  0.4470830000000  0.5202160000000 1.0
C      1  0.4352620000000  0.4848300000000  0.4988040000000 1.0
C      1  0.4653450000000  0.4942390000000  0.3931780000000 1.0
C      1  0.4945760000000  0.4852590000000  0.4840150000000 1.0
C      1  0.4571090000000  0.5583770000000  0.5723350000000 1.0
C      1  0.4746480000000  0.4377510000000  0.4326210000000 1.0
C      1  0.4877700000000  0.4709370000000  0.5343930000000 1.0
C      1  0.4008070000000  0.5315440000000  0.4357630000000 1.0
C      1  0.6076900000000  0.4502220000000  0.4752270000000 1.0
C      1  0.4681740000000  0.5767500000000  0.5538950000000 1.0
C      1  0.4878270000000  0.4374420000000  0.4074130000000 1.0
C      1  0.4256370000000  0.4621440000000  0.4399800000000 1.0
C      1  0.4571440000000  0.5082640000000  0.5714710000000 1.0
C      1  0.3761590000000  0.4643000000000  0.5845790000000 1.0
C      1  0.5246340000000  0.4683930000000  0.3947530000000 1.0
C      1  0.5121010000000  0.4138140000000  0.5273420000000 1.0
C      1  0.4949790000000  0.4260020000000  0.4798260000000 1.0
C      1  0.3825860000000  0.5216300000000  0.5152930000000 1.0
C      1  0.6132710000000  0.4902530000000  0.5022250000000 1.0
C      1  0.4857950000000  0.5983080000000  0.4864080000000 1.0
C      1  0.5444990000000  0.5485480000000  0.4941320000000 1.0
C      1  0.5098270000000  0.4825640000000  0.5481800000000 1.0
C      1  0.6439880000000  0.4605540000000  0.5386950000000 1.0
C      1  0.5515590000000  0.4748370000000  0.5767970000000 1.0
C      1  0.4984490000000  0.4347270000000  0.5765350000000 1.0
C      1  0.5746260000000  0.5536650000000  0.4244730000000 1.0
C      1  0.5808260000000  0.3858860000000  0.5265240000000 1.0
C      1  0.5512180000000  0.5203540000000  0.4906550000000 1.0
C      1  0.6036130000000  0.3995270000000  0.5257950000000 1.0
C      1  0.5479810000000  0.4983960000000  0.5077420000000 1.0
C      1  0.4889770000000  0.5342240000000  0.5191290000000 1.0
C      1  0.4632960000000  0.4634980000000  0.5480800000000 1.0
C      1  0.5312710000000  0.5417540000000  0.3987510000000 1.0
C      1  0.6479900000000  0.4858680000000  0.5468450000000 1.0
END
