TITL C-599893-4344-67 0.0909992595247283 125000 -907.588097361556 0 0 148 (C1) n - 1
REM
REM in /home/nfs/bkarasulu/CARBON/AIRSS/Generating-Clusters/TERSOFF/Only-C1/FIRE-HFTN
REM
REM
REM
REM
REM
REM ./C.cell (11c1c37f851c82e70ff6c80c92926a4b)
REM AIRSS Version 0.9.1 bugfix July 2018 build 013d7b7c2542+ Fri, 06 Jul 2018 19:26:36 +0100
REM compiler GCC version 9.2.1 20190827 (Red Hat 9.2.1-1)
REM options -cpp -mtune=generic -march=x86-64 -g -O0 -fpre-include=/usr/include/finclude/math-vector-fortran.h
REM seed 115579623 1160312377 1044448635 -742302748 -296522962 1669245114 -536789791 764273334 -1539292640 931813038 375774449 1402826064 1552440035 373174604 791380573 1381649947 -5541408 -796658777 -301797380 1683091762 1037421983 -705142262 1637863939 -308084972 -1548860399 1833266290 405039016 -1497689267 -165801441 224882441 1923365101 765663822 485244586
REM
CELL 1.54180   50.00000   50.00000   50.00000   90.00000   90.00000   90.00000
LATT -1
SFAC C  
C      1  0.5467980000000  0.5298920000000  0.5565660000000 1.0
C      1  0.6217570000000  0.5034030000000  0.5402190000000 1.0
C      1  0.5991670000000  0.4611150000000  0.4483450000000 1.0
C      1  0.5663890000000  0.5320080000000  0.5772740000000 1.0
C      1  0.4790390000000  0.5987030000000  0.5478450000000 1.0
C      1  0.4311240000000  0.4395780000000  0.5460530000000 1.0
C      1  0.4942220000000  0.5472670000000  0.6013790000000 1.0
C      1  0.4195680000000  0.4874050000000  0.5106520000000 1.0
C      1  0.4373310000000  0.4101010000000  0.5872670000000 1.0
C      1  0.4867940000000  0.5022870000000  0.3798200000000 1.0
C      1  0.4809250000000  0.5047140000000  0.5795650000000 1.0
C      1  0.4138890000000  0.5324490000000  0.5615360000000 1.0
C      1  0.5600940000000  0.4882760000000  0.6085280000000 1.0
C      1  0.4944860000000  0.6001910000000  0.4713830000000 1.0
C      1  0.4797920000000  0.4317290000000  0.6039220000000 1.0
C      1  0.5489620000000  0.4156740000000  0.5458090000000 1.0
C      1  0.6321220000000  0.5099610000000  0.4723040000000 1.0
C      1  0.4908740000000  0.5233200000000  0.4701620000000 1.0
C      1  0.4100720000000  0.4203930000000  0.4814460000000 1.0
C      1  0.4636200000000  0.3778860000000  0.5392430000000 1.0
C      1  0.4971240000000  0.5581290000000  0.5047800000000 1.0
C      1  0.4536750000000  0.5952140000000  0.4964890000000 1.0
C      1  0.4014540000000  0.5925630000000  0.4913590000000 1.0
C      1  0.4391390000000  0.4341610000000  0.5188730000000 1.0
C      1  0.5364230000000  0.4800310000000  0.4679290000000 1.0
C      1  0.5255860000000  0.5783240000000  0.5491060000000 1.0
C      1  0.4049510000000  0.4819230000000  0.4657900000000 1.0
C      1  0.3983540000000  0.5103190000000  0.4684060000000 1.0
C      1  0.4211800000000  0.4410950000000  0.4968070000000 1.0
C      1  0.6241150000000  0.4546730000000  0.4938120000000 1.0
C      1  0.5177020000000  0.4168150000000  0.4564110000000 1.0
C      1  0.4793300000000  0.5220780000000  0.5357820000000 1.0
C      1  0.4755170000000  0.4025580000000  0.5357600000000 1.0
C      1  0.4962000000000  0.6097010000000  0.4974310000000 1.0
C      1  0.5824600000000  0.5058830000000  0.4897240000000 1.0
C      1  0.4268410000000  0.4182280000000  0.5639980000000 1.0
C      1  0.6122580000000  0.4767770000000  0.5385510000000 1.0
C      1  0.5303740000000  0.5535590000000  0.3093860000000 1.0
C      1  0.5580770000000  0.5516370000000  0.4780330000000 1.0
C      1  0.5686340000000  0.4671360000000  0.5931870000000 1.0
C      1  0.6219800000000  0.4638620000000  0.4664500000000 1.0
C      1  0.4399450000000  0.5352140000000  0.5727860000000 1.0
C      1  0.3892180000000  0.5207600000000  0.4938190000000 1.0
C      1  0.4960800000000  0.4487780000000  0.5915870000000 1.0
C      1  0.4947260000000  0.4144150000000  0.4701140000000 1.0
C      1  0.5452790000000  0.5678060000000  0.5978180000000 1.0
C      1  0.4500900000000  0.5282260000000  0.4076120000000 1.0
C      1  0.5634280000000  0.5884920000000  0.6043640000000 1.0
C      1  0.5027480000000  0.5304640000000  0.4945930000000 1.0
C      1  0.4284150000000  0.5494240000000  0.4473940000000 1.0
C      1  0.4306290000000  0.4833710000000  0.4240320000000 1.0
C      1  0.4091440000000  0.4798730000000  0.3284880000000 1.0
C      1  0.4526760000000  0.5095200000000  0.5788780000000 1.0
C      1  0.5904780000000  0.4355790000000  0.4392100000000 1.0
C      1  0.4779170000000  0.4971730000000  0.4688230000000 1.0
C      1  0.4402640000000  0.5390020000000  0.5133130000000 1.0
C      1  0.5055180000000  0.4642660000000  0.5704470000000 1.0
C      1  0.5935170000000  0.4337750000000  0.5255970000000 1.0
C      1  0.4373330000000  0.4861100000000  0.5735250000000 1.0
C      1  0.4314550000000  0.4651020000000  0.5580550000000 1.0
C      1  0.4987480000000  0.4077960000000  0.5515140000000 1.0
C      1  0.4779740000000  0.4894990000000  0.4413050000000 1.0
C      1  0.5010770000000  0.5235740000000  0.5871530000000 1.0
C      1  0.4764260000000  0.4180820000000  0.4893700000000 1.0
C      1  0.4890130000000  0.5122730000000  0.4263620000000 1.0
C      1  0.4280920000000  0.5898770000000  0.4828060000000 1.0
C      1  0.6154170000000  0.4534880000000  0.5213560000000 1.0
C      1  0.4973300000000  0.5239270000000  0.3375450000000 1.0
C      1  0.4707970000000  0.5704500000000  0.4983410000000 1.0
C      1  0.5802450000000  0.4829230000000  0.4432700000000 1.0
C      1  0.6386750000000  0.4862510000000  0.4611040000000 1.0
C      1  0.5174530000000  0.4635470000000  0.4020570000000 1.0
C      1  0.5664570000000  0.4229080000000  0.4380030000000 1.0
C      1  0.5743480000000  0.4804240000000  0.5010460000000 1.0
C      1  0.5188050000000  0.5290280000000  0.5640670000000 1.0
C      1  0.3997310000000  0.5199570000000  0.5424010000000 1.0
C      1  0.5223890000000  0.4331670000000  0.5091050000000 1.0
C      1  0.5396430000000  0.4343830000000  0.4460470000000 1.0
C      1  0.4637270000000  0.4862170000000  0.4901640000000 1.0
C      1  0.4580820000000  0.4162590000000  0.6029600000000 1.0
C      1  0.5591920000000  0.5353750000000  0.5316200000000 1.0
C      1  0.4952090000000  0.4976980000000  0.5329300000000 1.0
C      1  0.3786640000000  0.5468720000000  0.4957660000000 1.0
C      1  0.4001630000000  0.5077010000000  0.5170030000000 1.0
C      1  0.6093490000000  0.5136830000000  0.4859790000000 1.0
C      1  0.5284010000000  0.4496090000000  0.4220910000000 1.0
C      1  0.5533520000000  0.5141200000000  0.6158750000000 1.0
C      1  0.3607220000000  0.3934460000000  0.3993880000000 1.0
C      1  0.4539360000000  0.5180340000000  0.5247850000000 1.0
C      1  0.4500790000000  0.5496010000000  0.4282010000000 1.0
C      1  0.4568150000000  0.4745620000000  0.4306150000000 1.0
C      1  0.4332760000000  0.5634030000000  0.4711330000000 1.0
C      1  0.5100840000000  0.5047900000000  0.5077880000000 1.0
C      1  0.5090340000000  0.5627000000000  0.5309180000000 1.0
C      1  0.5800850000000  0.4298530000000  0.5000190000000 1.0
C      1  0.5409380000000  0.4132320000000  0.5175330000000 1.0
C      1  0.4801630000000  0.5082500000000  0.3530010000000 1.0
C      1  0.4969030000000  0.5722050000000  0.5873900000000 1.0
C      1  0.4856590000000  0.5833440000000  0.4513220000000 1.0
C      1  0.4747840000000  0.5795430000000  0.5695950000000 1.0
C      1  0.4924830000000  0.5350350000000  0.4443010000000 1.0
C      1  0.3949710000000  0.4500880000000  0.4297850000000 1.0
C      1  0.4502910000000  0.5515990000000  0.4909890000000 1.0
C      1  0.5241720000000  0.5761960000000  0.5784610000000 1.0
C      1  0.5863410000000  0.5366080000000  0.5278840000000 1.0
C      1  0.4086720000000  0.5292330000000  0.4498500000000 1.0
C      1  0.5747620000000  0.4308820000000  0.5504370000000 1.0
C      1  0.5548650000000  0.4926310000000  0.4492010000000 1.0
C      1  0.4891060000000  0.6092010000000  0.5242910000000 1.0
C      1  0.5752860000000  0.6140610000000  0.5175480000000 1.0
C      1  0.5252810000000  0.4610180000000  0.5112260000000 1.0
C      1  0.5773010000000  0.4553860000000  0.5682830000000 1.0
C      1  0.4132760000000  0.4682910000000  0.4903810000000 1.0
C      1  0.5666970000000  0.5992410000000  0.4972280000000 1.0
C      1  0.4299610000000  0.5077460000000  0.4090840000000 1.0
C      1  0.5774960000000  0.6075310000000  0.5919900000000 1.0
C      1  0.4996690000000  0.5398930000000  0.5450120000000 1.0
C      1  0.4529180000000  0.5607820000000  0.5709470000000 1.0
C      1  0.5598950000000  0.5776410000000  0.4833100000000 1.0
C      1  0.5139680000000  0.5388580000000  0.3233270000000 1.0
C      1  0.5622500000000  0.4081890000000  0.5000240000000 1.0
C      1  0.4641610000000  0.4194700000000  0.5149280000000 1.0
C      1  0.3885310000000  0.4232120000000  0.4346290000000 1.0
C      1  0.4472930000000  0.4935740000000  0.5119610000000 1.0
C      1  0.5836700000000  0.6190330000000  0.5687710000000 1.0
C      1  0.4763500000000  0.5173220000000  0.4014690000000 1.0
C      1  0.5217810000000  0.4831580000000  0.4929510000000 1.0
C      1  0.6052240000000  0.5258490000000  0.5465060000000 1.0
C      1  0.5703790000000  0.4539890000000  0.4875810000000 1.0
C      1  0.5941100000000  0.5286890000000  0.5726270000000 1.0
C      1  0.5658130000000  0.4798340000000  0.5286640000000 1.0
C      1  0.5640340000000  0.5260120000000  0.4822610000000 1.0
C      1  0.3741740000000  0.4078420000000  0.4164480000000 1.0
C      1  0.3976130000000  0.4129560000000  0.4591120000000 1.0
C      1  0.3829390000000  0.5733910000000  0.4957950000000 1.0
C      1  0.5305670000000  0.4622290000000  0.5590290000000 1.0
C      1  0.5403550000000  0.4691490000000  0.5339820000000 1.0
C      1  0.5246720000000  0.4094930000000  0.5598540000000 1.0
C      1  0.5483040000000  0.4532420000000  0.4688050000000 1.0
C      1  0.4911980000000  0.4857830000000  0.5596870000000 1.0
C      1  0.5820870000000  0.6209980000000  0.5422900000000 1.0
C      1  0.4091880000000  0.4722540000000  0.4391680000000 1.0
C      1  0.5544520000000  0.5398050000000  0.6020190000000 1.0
C      1  0.5853440000000  0.4754030000000  0.5487440000000 1.0
C      1  0.4326810000000  0.4891220000000  0.3348170000000 1.0
C      1  0.4563540000000  0.4984900000000  0.3421470000000 1.0
C      1  0.5039320000000  0.4806180000000  0.3864430000000 1.0
C      1  0.4766370000000  0.5585540000000  0.4389930000000 1.0
END
