TITL C-599892-9790-309 59590.412726239 125000 -1103.15729731632 0 0 183 (C1) n - 1
REM
REM in /home/nfs/bkarasulu/CARBON/AIRSS/Generating-Clusters/TERSOFF/Only-C1/FIRE-HFTN
REM
REM
REM
REM
REM
REM ./C.cell (11c1c37f851c82e70ff6c80c92926a4b)
REM AIRSS Version 0.9.1 bugfix July 2018 build 013d7b7c2542+ Fri, 06 Jul 2018 19:26:36 +0100
REM compiler GCC version 9.2.1 20190827 (Red Hat 9.2.1-1)
REM options -cpp -mtune=generic -march=x86-64 -g -O0 -fpre-include=/usr/include/finclude/math-vector-fortran.h
REM seed -1785679480 -1805899070 1164282462 372126884 117010408 296698368 586978414 -566682678 139444424 633889747 -1182025413 -625731531 -560060255 -1243156279 -2064775031 -642994396 174099686 613538678 1103705296 715034842 323552120 -1785236354 -710932391 1920951963 -1995499704 -2004305904 1218291991 1985226840 -965715421 -814498984 30118924 1836694209 -2136303338
REM
CELL 1.54180   50.00000   50.00000   50.00000   90.00000   90.00000   90.00000
LATT -1
SFAC C  
C      1  0.5030210000000  0.6135070000000  0.5192740000000 1.0
C      1  0.5748340000000  0.4429860000000  0.4326100000000 1.0
C      1  0.5496950000000  0.5695820000000  0.5690740000000 1.0
C      1  0.4038430000000  0.4564340000000  0.5812630000000 1.0
C      1  0.5530400000000  0.5504890000000  0.5920910000000 1.0
C      1  0.3975440000000  0.5736150000000  0.4985370000000 1.0
C      1  0.4167670000000  0.4330780000000  0.5826230000000 1.0
C      1  0.5333720000000  0.4426000000000  0.4527850000000 1.0
C      1  0.4421990000000  0.4509850000000  0.5234670000000 1.0
C      1  0.4113970000000  0.5244410000000  0.5554490000000 1.0
C      1  0.5976760000000  0.5632990000000  0.4539490000000 1.0
C      1  0.4497550000000  0.5669800000000  0.5132540000000 1.0
C      1  0.5692440000000  0.3919470000000  0.4835910000000 1.0
C      1  0.4016460000000  0.6130650000000  0.5596800000000 1.0
C      1  0.4712150000000  0.5097780000000  0.5652510000000 1.0
C      1  0.4499000000000  0.5585450000000  0.4640050000000 1.0
C      1  0.5707700000000  0.5317050000000  0.5800720000000 1.0
C      1  0.4712380000000  0.5209650000000  0.3732750000000 1.0
C      1  0.4557780000000  0.5558670000000  0.4082020000000 1.0
C      1  0.5230600000000  0.5935490000000  0.5261930000000 1.0
C      1  0.3769410000000  0.5149460000000  0.5137830000000 1.0
C      1  0.5796760000000  0.5311370000000  0.4227790000000 1.0
C      1  0.5412750000000  0.4695830000000  0.4639890000000 1.0
C      1  0.3956320000000  0.5010820000000  0.5587380000000 1.0
C      1  0.3992920000000  0.4233070000000  0.4892300000000 1.0
C      1  0.5343540000000  0.4824250000000  0.6039540000000 1.0
C      1  0.4761260000000  0.3750840000000  0.3916530000000 1.0
C      1  0.6169080000000  0.4671460000000  0.4602640000000 1.0
C      1  0.5924360000000  0.4477220000000  0.4561650000000 1.0
C      1  0.3809990000000  0.5304000000000  0.4915260000000 1.0
C      1  0.6334210000000  0.4595880000000  0.4851970000000 1.0
C      1  0.5268160000000  0.3943960000000  0.5255300000000 1.0
C      1  0.4671710000000  0.4190660000000  0.4886190000000 1.0
C      1  0.4495870000000  0.5778510000000  0.4852740000000 1.0
C      1  0.5275430000000  0.5847970000000  0.5549940000000 1.0
C      1  0.5342060000000  0.5072240000000  0.6204610000000 1.0
C      1  0.4976030000000  0.5523810000000  0.4696030000000 1.0
C      1  0.5995820000000  0.4366820000000  0.5573970000000 1.0
C      1  0.4925630000000  0.5006180000000  0.3764010000000 1.0
C      1  0.5159830000000  0.4099850000000  0.5710670000000 1.0
C      1  0.5014790000000  0.4508820000000  0.3913710000000 1.0
C      1  0.4069450000000  0.4844580000000  0.5804130000000 1.0
C      1  0.5242590000000  0.3718190000000  0.4681280000000 1.0
C      1  0.4841570000000  0.4736190000000  0.3839810000000 1.0
C      1  0.5798290000000  0.4922480000000  0.5559590000000 1.0
C      1  0.5114110000000  0.4294260000000  0.4665080000000 1.0
C      1  0.5330330000000  0.4837730000000  0.3989830000000 1.0
C      1  0.5166470000000  0.5976510000000  0.4605650000000 1.0
C      1  0.5535760000000  0.4878520000000  0.4452190000000 1.0
C      1  0.4709170000000  0.6187010000000  0.4645080000000 1.0
C      1  0.4579150000000  0.4762900000000  0.3938390000000 1.0
C      1  0.4245830000000  0.5096350000000  0.4871590000000 1.0
C      1  0.5723500000000  0.4143850000000  0.5280090000000 1.0
C      1  0.3988420000000  0.5794630000000  0.5250090000000 1.0
C      1  0.5020790000000  0.4977220000000  0.5363880000000 1.0
C      1  0.4618880000000  0.6041990000000  0.4863850000000 1.0
C      1  0.4097480000000  0.4687860000000  0.4336750000000 1.0
C      1  0.4770060000000  0.5819650000000  0.5524060000000 1.0
C      1  0.4670810000000  0.5135350000000  0.4260110000000 1.0
C      1  0.4326910000000  0.5250210000000  0.5977990000000 1.0
C      1  0.5111470000000  0.5373530000000  0.4472430000000 1.0
C      1  0.6016620000000  0.5899490000000  0.4501370000000 1.0
C      1  0.5181160000000  0.4890300000000  0.5584910000000 1.0
C      1  0.5935590000000  0.5083250000000  0.4377030000000 1.0
C      1  0.6181850000000  0.5447630000000  0.4636630000000 1.0
C      1  0.4394360000000  0.4190280000000  0.5835610000000 1.0
C      1  0.6192420000000  0.4550430000000  0.5109650000000 1.0
C      1  0.6038140000000  0.5123560000000  0.4990000000000 1.0
C      1  0.5722040000000  0.4248620000000  0.5565110000000 1.0
C      1  0.4477140000000  0.4967110000000  0.4107900000000 1.0
C      1  0.5119220000000  0.5754000000000  0.4789000000000 1.0
C      1  0.5185630000000  0.5079510000000  0.4858100000000 1.0
C      1  0.4495700000000  0.4419810000000  0.4316250000000 1.0
C      1  0.3945790000000  0.4454530000000  0.4747680000000 1.0
C      1  0.5837500000000  0.4393290000000  0.4840380000000 1.0
C      1  0.4759710000000  0.6077510000000  0.5117500000000 1.0
C      1  0.4230300000000  0.4445260000000  0.4265140000000 1.0
C      1  0.3941020000000  0.5530220000000  0.4784180000000 1.0
C      1  0.5848120000000  0.4872030000000  0.5006590000000 1.0
C      1  0.4352390000000  0.5576170000000  0.4389770000000 1.0
C      1  0.4962040000000  0.6165390000000  0.4562370000000 1.0
C      1  0.4351730000000  0.3944670000000  0.5141570000000 1.0
C      1  0.4761320000000  0.4654080000000  0.6089590000000 1.0
C      1  0.4625190000000  0.4014900000000  0.5122510000000 1.0
C      1  0.6181290000000  0.4451150000000  0.5381990000000 1.0
C      1  0.4030750000000  0.5859800000000  0.5525560000000 1.0
C      1  0.5702890000000  0.5495560000000  0.4479740000000 1.0
C      1  0.4992270000000  0.4486670000000  0.6018920000000 1.0
C      1  0.5502100000000  0.3762960000000  0.4731170000000 1.0
C      1  0.4005410000000  0.4695960000000  0.4610220000000 1.0
C      1  0.5231720000000  0.5353840000000  0.5610460000000 1.0
C      1  0.5326670000000  0.5343300000000  0.6078830000000 1.0
C      1  0.5305440000000  0.5318790000000  0.3930620000000 1.0
C      1  0.4649150000000  0.4618820000000  0.4439290000000 1.0
C      1  0.5308400000000  0.5479990000000  0.5133660000000 1.0
C      1  0.3768870000000  0.4974540000000  0.5369580000000 1.0
C      1  0.4672240000000  0.5594330000000  0.5909690000000 1.0
C      1  0.5497380000000  0.4957160000000  0.4180240000000 1.0
C      1  0.5437600000000  0.5352620000000  0.5377180000000 1.0
C      1  0.4821090000000  0.5177870000000  0.5914200000000 1.0
C      1  0.4160280000000  0.5403610000000  0.5786370000000 1.0
C      1  0.5695810000000  0.5300740000000  0.4720210000000 1.0
C      1  0.4519440000000  0.4827350000000  0.4594410000000 1.0
C      1  0.4500010000000  0.4980670000000  0.5493740000000 1.0
C      1  0.5373020000000  0.5993250000000  0.4415210000000 1.0
C      1  0.4543240000000  0.4730280000000  0.4858180000000 1.0
C      1  0.4093640000000  0.5673140000000  0.5733140000000 1.0
C      1  0.4650700000000  0.5341380000000  0.4718400000000 1.0
C      1  0.5018850000000  0.5837860000000  0.5688740000000 1.0
C      1  0.4522380000000  0.5386570000000  0.3842740000000 1.0
C      1  0.4824190000000  0.4083350000000  0.5317610000000 1.0
C      1  0.5823940000000  0.5548020000000  0.5192760000000 1.0
C      1  0.5450860000000  0.4425990000000  0.4256620000000 1.0
C      1  0.4446170000000  0.5389310000000  0.5188220000000 1.0
C      1  0.4439740000000  0.4714840000000  0.5413610000000 1.0
C      1  0.6142650000000  0.5147110000000  0.5265450000000 1.0
C      1  0.5191010000000  0.5057000000000  0.3848320000000 1.0
C      1  0.5300100000000  0.4439560000000  0.5133710000000 1.0
C      1  0.5254260000000  0.5740630000000  0.5049300000000 1.0
C      1  0.4899290000000  0.5322900000000  0.4258360000000 1.0
C      1  0.4771820000000  0.5344250000000  0.5490620000000 1.0
C      1  0.5640810000000  0.5051020000000  0.5757340000000 1.0
C      1  0.5125890000000  0.5105750000000  0.4587360000000 1.0
C      1  0.5558930000000  0.5231440000000  0.4083520000000 1.0
C      1  0.4929690000000  0.4246150000000  0.3871690000000 1.0
C      1  0.4660290000000  0.4167750000000  0.5831080000000 1.0
C      1  0.4950370000000  0.5246260000000  0.5289710000000 1.0
C      1  0.4124940000000  0.4047450000000  0.5035480000000 1.0
C      1  0.3586530000000  0.4769690000000  0.5380320000000 1.0
C      1  0.5666190000000  0.4691980000000  0.5444170000000 1.0
C      1  0.5721440000000  0.5046130000000  0.4579820000000 1.0
C      1  0.4339520000000  0.5208850000000  0.5391200000000 1.0
C      1  0.4949850000000  0.4474160000000  0.5556890000000 1.0
C      1  0.4071630000000  0.4925070000000  0.4760840000000 1.0
C      1  0.4518260000000  0.4783130000000  0.6061130000000 1.0
C      1  0.4533180000000  0.5204720000000  0.4967810000000 1.0
C      1  0.4596230000000  0.5344000000000  0.6025030000000 1.0
C      1  0.5195290000000  0.4614550000000  0.5539740000000 1.0
C      1  0.4292410000000  0.4954040000000  0.5972790000000 1.0
C      1  0.5114850000000  0.5282850000000  0.5053880000000 1.0
C      1  0.4925090000000  0.4291450000000  0.5795930000000 1.0
C      1  0.5765840000000  0.4149130000000  0.4984620000000 1.0
C      1  0.5575540000000  0.4919630000000  0.5058290000000 1.0
C      1  0.5370090000000  0.4858030000000  0.4880810000000 1.0
C      1  0.4984380000000  0.4527330000000  0.4774480000000 1.0
C      1  0.5829320000000  0.5357110000000  0.4971510000000 1.0
C      1  0.5068130000000  0.3972880000000  0.5455050000000 1.0
C      1  0.5005790000000  0.4542800000000  0.5078330000000 1.0
C      1  0.4997700000000  0.3829970000000  0.4682730000000 1.0
C      1  0.5390020000000  0.5504820000000  0.4427870000000 1.0
C      1  0.4656370000000  0.5575460000000  0.5617330000000 1.0
C      1  0.5435600000000  0.4287730000000  0.5783900000000 1.0
C      1  0.4208240000000  0.4917980000000  0.4202660000000 1.0
C      1  0.5496870000000  0.5081450000000  0.5268730000000 1.0
C      1  0.4963260000000  0.5659370000000  0.5922930000000 1.0
C      1  0.4024620000000  0.6384010000000  0.5657160000000 1.0
C      1  0.5923770000000  0.5801900000000  0.5170530000000 1.0
C      1  0.5925470000000  0.4603650000000  0.5017340000000 1.0
C      1  0.4070440000000  0.5545780000000  0.4506490000000 1.0
C      1  0.5084710000000  0.5370250000000  0.5894380000000 1.0
C      1  0.4868730000000  0.4371730000000  0.5307360000000 1.0
C      1  0.4672580000000  0.4928740000000  0.5023140000000 1.0
C      1  0.5418580000000  0.4559970000000  0.5367540000000 1.0
C      1  0.5381710000000  0.4944570000000  0.5781330000000 1.0
C      1  0.4845980000000  0.3995040000000  0.3882570000000 1.0
C      1  0.5325620000000  0.4159090000000  0.5100540000000 1.0
C      1  0.5388430000000  0.5962760000000  0.4148840000000 1.0
C      1  0.5045690000000  0.4882040000000  0.4445400000000 1.0
C      1  0.5952460000000  0.5137320000000  0.5459300000000 1.0
C      1  0.4912330000000  0.4655510000000  0.4528570000000 1.0
C      1  0.4903700000000  0.4818880000000  0.5158580000000 1.0
C      1  0.5275720000000  0.4559580000000  0.4038430000000 1.0
C      1  0.4601030000000  0.5101320000000  0.4531500000000 1.0
C      1  0.5706980000000  0.5449940000000  0.5448080000000 1.0
C      1  0.5272210000000  0.5812070000000  0.3959810000000 1.0
C      1  0.4908230000000  0.4094940000000  0.4718870000000 1.0
C      1  0.5283190000000  0.4535090000000  0.6004630000000 1.0
C      1  0.4525610000000  0.4459800000000  0.4962100000000 1.0
C      1  0.6160360000000  0.4962720000000  0.4525890000000 1.0
C      1  0.4864360000000  0.5552750000000  0.4089820000000 1.0
C      1  0.4646300000000  0.5874890000000  0.5283280000000 1.0
C      1  0.5133980000000  0.5565070000000  0.3954260000000 1.0
C      1  0.6202080000000  0.5171010000000  0.4735120000000 1.0
END
