TITL C-599891-72-1396 0.000263199593336235 125000 -240.487504127209 0 0 40 (C1) n - 1
REM
REM in /home/nfs/bkarasulu/CARBON/AIRSS/Generating-Clusters/TERSOFF/Only-C1/FIRE-HFTN
REM
REM
REM
REM
REM
REM ./C.cell (11c1c37f851c82e70ff6c80c92926a4b)
REM AIRSS Version 0.9.1 bugfix July 2018 build 013d7b7c2542+ Fri, 06 Jul 2018 19:26:36 +0100
REM compiler GCC version 9.2.1 20190827 (Red Hat 9.2.1-1)
REM options -cpp -mtune=generic -march=x86-64 -g -O0 -fpre-include=/usr/include/finclude/math-vector-fortran.h
REM seed -1418992090 1360455780 -124073720 1912745510 -504920587 -182867653 -1385678200 -628376640 1331786433 1740868998 -1205626257 -628407991 -1505160764 627705293 1676153586 -1301881798 -222696954 -1925261128 -947627479 1704695364 102756165 -2070768771 -1425728499 -344492640 1722361750 -1702956370 1118359752 672419324 -250639374 -111665217 1083949633 1121184995 -168120083
REM
CELL 1.54180   50.00000   50.00000   50.00000   90.00000   90.00000   90.00000
LATT -1
SFAC C  
C      1  0.4762330000000  0.4073980000000  0.4952010000000 1.0
C      1  0.5569280000000  0.5776300000000  0.4741850000000 1.0
C      1  0.5112750000000  0.4707610000000  0.4809260000000 1.0
C      1  0.4747590000000  0.5345520000000  0.4758300000000 1.0
C      1  0.4295880000000  0.4659360000000  0.4798450000000 1.0
C      1  0.4839580000000  0.5608630000000  0.4736510000000 1.0
C      1  0.5193550000000  0.5600190000000  0.5288450000000 1.0
C      1  0.4827140000000  0.4573790000000  0.5525930000000 1.0
C      1  0.5289060000000  0.5823150000000  0.5414650000000 1.0
C      1  0.5247930000000  0.4572050000000  0.5014490000000 1.0
C      1  0.5493200000000  0.4985460000000  0.5109160000000 1.0
C      1  0.4746370000000  0.5079200000000  0.4838510000000 1.0
C      1  0.5171240000000  0.4305810000000  0.5084560000000 1.0
C      1  0.4738410000000  0.4406460000000  0.5303180000000 1.0
C      1  0.5426330000000  0.4723020000000  0.5180200000000 1.0
C      1  0.4779880000000  0.5279000000000  0.5397270000000 1.0
C      1  0.4275920000000  0.4439880000000  0.4646050000000 1.0
C      1  0.4965070000000  0.5468460000000  0.5382310000000 1.0
C      1  0.4441710000000  0.4739980000000  0.5022880000000 1.0
C      1  0.4666120000000  0.5035580000000  0.5324460000000 1.0
C      1  0.5359020000000  0.4107360000000  0.5103450000000 1.0
C      1  0.5578470000000  0.5913450000000  0.4277480000000 1.0
C      1  0.5141880000000  0.5725770000000  0.4370740000000 1.0
C      1  0.5449770000000  0.5244740000000  0.5071750000000 1.0
C      1  0.4939720000000  0.4898980000000  0.4743020000000 1.0
C      1  0.4584780000000  0.4985230000000  0.5052680000000 1.0
C      1  0.5473470000000  0.4633360000000  0.5442490000000 1.0
C      1  0.5318720000000  0.4559700000000  0.5648450000000 1.0
C      1  0.5331010000000  0.5644690000000  0.4817610000000 1.0
C      1  0.5054080000000  0.4534870000000  0.5680050000000 1.0
C      1  0.5326000000000  0.5495570000000  0.5059000000000 1.0
C      1  0.5328200000000  0.5835930000000  0.4210810000000 1.0
C      1  0.4387990000000  0.4196900000000  0.4634200000000 1.0
C      1  0.4577240000000  0.4056040000000  0.4760300000000 1.0
C      1  0.4679360000000  0.5818680000000  0.4807540000000 1.0
C      1  0.4517360000000  0.4549880000000  0.5211980000000 1.0
C      1  0.5103210000000  0.5655440000000  0.4641610000000 1.0
C      1  0.4680970000000  0.4806890000000  0.5484000000000 1.0
C      1  0.5684430000000  0.5885820000000  0.4524660000000 1.0
C      1  0.4894960000000  0.4247290000000  0.5129690000000 1.0
END
