TITL C-599891-72-1249 2.34837189723805e-05 125000 -677.750626456291 0 0 111 (C1) n - 1
REM
REM in /home/nfs/bkarasulu/CARBON/AIRSS/Generating-Clusters/TERSOFF/Only-C1/FIRE-HFTN
REM
REM
REM
REM
REM
REM ./C.cell (11c1c37f851c82e70ff6c80c92926a4b)
REM AIRSS Version 0.9.1 bugfix July 2018 build 013d7b7c2542+ Fri, 06 Jul 2018 19:26:36 +0100
REM compiler GCC version 9.2.1 20190827 (Red Hat 9.2.1-1)
REM options -cpp -mtune=generic -march=x86-64 -g -O0 -fpre-include=/usr/include/finclude/math-vector-fortran.h
REM seed 1493190255 -2096254097 -410876150 -1359776475 -1871739605 -91360104 -271023573 1995849746 -2019889823 -254132309 -186049657 1148486921 1740127372 -2094513595 1599629763 -2101410234 1607768488 1278926941 1042921842 1302792740 -558269654 -1656615730 -463092823 -751172960 -656807281 -40152942 -408299912 256700976 -1148490081 1179117707 -377499636 1325447227 -198481877
REM
CELL 1.54180   50.00000   50.00000   50.00000   90.00000   90.00000   90.00000
LATT -1
SFAC C  
C      1  0.4925930000000  0.4400950000000  0.5055990000000 1.0
C      1  0.5264660000000  0.5730700000000  0.4427740000000 1.0
C      1  0.5900950000000  0.4572830000000  0.5035990000000 1.0
C      1  0.5411770000000  0.5630780000000  0.4209600000000 1.0
C      1  0.5478530000000  0.5271430000000  0.4637470000000 1.0
C      1  0.4626450000000  0.5030280000000  0.4139640000000 1.0
C      1  0.5046540000000  0.4227940000000  0.5566450000000 1.0
C      1  0.4212910000000  0.5094290000000  0.5031260000000 1.0
C      1  0.4606500000000  0.4797530000000  0.4853400000000 1.0
C      1  0.5616880000000  0.3817880000000  0.5124320000000 1.0
C      1  0.5330250000000  0.5170280000000  0.4005450000000 1.0
C      1  0.5185850000000  0.5252280000000  0.4595880000000 1.0
C      1  0.5132480000000  0.6071080000000  0.4769940000000 1.0
C      1  0.5353620000000  0.4602850000000  0.5642390000000 1.0
C      1  0.5871570000000  0.4500120000000  0.5312990000000 1.0
C      1  0.5437090000000  0.5410860000000  0.4057910000000 1.0
C      1  0.4765410000000  0.5196760000000  0.5954520000000 1.0
C      1  0.4292380000000  0.4602590000000  0.5484940000000 1.0
C      1  0.5325170000000  0.4701210000000  0.4901880000000 1.0
C      1  0.4559510000000  0.5937270000000  0.4960530000000 1.0
C      1  0.4842050000000  0.5448770000000  0.5256020000000 1.0
C      1  0.5256790000000  0.5374260000000  0.5971540000000 1.0
C      1  0.4957180000000  0.5245560000000  0.5414530000000 1.0
C      1  0.5552560000000  0.4789330000000  0.5568780000000 1.0
C      1  0.4274590000000  0.5974720000000  0.4584710000000 1.0
C      1  0.4893270000000  0.4347680000000  0.5341950000000 1.0
C      1  0.5085460000000  0.4749660000000  0.4139830000000 1.0
C      1  0.5854100000000  0.5327860000000  0.4945240000000 1.0
C      1  0.5683870000000  0.5071230000000  0.4573850000000 1.0
C      1  0.4909310000000  0.4785260000000  0.5543020000000 1.0
C      1  0.5526270000000  0.4852340000000  0.5014600000000 1.0
C      1  0.4837450000000  0.5452210000000  0.4132290000000 1.0
C      1  0.5075330000000  0.4818970000000  0.4855420000000 1.0
C      1  0.5434290000000  0.5052910000000  0.5565380000000 1.0
C      1  0.3679420000000  0.5082620000000  0.4987750000000 1.0
C      1  0.5312140000000  0.4330660000000  0.5584510000000 1.0
C      1  0.5602340000000  0.4397570000000  0.4675000000000 1.0
C      1  0.5693810000000  0.5485940000000  0.5687450000000 1.0
C      1  0.4774570000000  0.4413090000000  0.5989930000000 1.0
C      1  0.5255650000000  0.5991810000000  0.4539300000000 1.0
C      1  0.4679080000000  0.5447060000000  0.5833240000000 1.0
C      1  0.5659610000000  0.4836760000000  0.4419010000000 1.0
C      1  0.4845260000000  0.4666320000000  0.4956710000000 1.0
C      1  0.5849810000000  0.5449620000000  0.5468890000000 1.0
C      1  0.4726000000000  0.5866850000000  0.4456450000000 1.0
C      1  0.4706480000000  0.4954610000000  0.4620250000000 1.0
C      1  0.4625790000000  0.4929340000000  0.5973290000000 1.0
C      1  0.4558210000000  0.5982560000000  0.4656600000000 1.0
C      1  0.5311590000000  0.5804130000000  0.5121870000000 1.0
C      1  0.5836830000000  0.4376450000000  0.4837650000000 1.0
C      1  0.3997850000000  0.5341470000000  0.4525340000000 1.0
C      1  0.5601370000000  0.5457520000000  0.4846300000000 1.0
C      1  0.4002800000000  0.5573450000000  0.4660700000000 1.0
C      1  0.4614040000000  0.4233980000000  0.4337000000000 1.0
C      1  0.5239980000000  0.5241980000000  0.5452060000000 1.0
C      1  0.4786170000000  0.5901970000000  0.5145360000000 1.0
C      1  0.4042300000000  0.4503980000000  0.5511480000000 1.0
C      1  0.4534100000000  0.4965440000000  0.4394190000000 1.0
C      1  0.5121500000000  0.4747110000000  0.5730570000000 1.0
C      1  0.3939240000000  0.5103800000000  0.4980160000000 1.0
C      1  0.4389400000000  0.4393710000000  0.4396610000000 1.0
C      1  0.4326530000000  0.5227540000000  0.5270980000000 1.0
C      1  0.5095780000000  0.5021960000000  0.4052660000000 1.0
C      1  0.5371120000000  0.5335870000000  0.5219040000000 1.0
C      1  0.5818600000000  0.4704250000000  0.5509380000000 1.0
C      1  0.5055490000000  0.5878450000000  0.4985420000000 1.0
C      1  0.4509430000000  0.5033500000000  0.5391570000000 1.0
C      1  0.5869670000000  0.5065710000000  0.4809140000000 1.0
C      1  0.4853230000000  0.5175760000000  0.4066320000000 1.0
C      1  0.4882060000000  0.4309710000000  0.4408790000000 1.0
C      1  0.5015440000000  0.4158580000000  0.4616200000000 1.0
C      1  0.5140810000000  0.4906560000000  0.5961470000000 1.0
C      1  0.5924920000000  0.5389490000000  0.5215220000000 1.0
C      1  0.4813980000000  0.5441020000000  0.4978180000000 1.0
C      1  0.4260880000000  0.4888070000000  0.4418600000000 1.0
C      1  0.5743880000000  0.3988810000000  0.5284820000000 1.0
C      1  0.4389740000000  0.4779390000000  0.5287200000000 1.0
C      1  0.5285230000000  0.3743570000000  0.4727520000000 1.0
C      1  0.5068940000000  0.5537470000000  0.4556820000000 1.0
C      1  0.5108260000000  0.4289090000000  0.4853310000000 1.0
C      1  0.5486740000000  0.5467450000000  0.5861580000000 1.0
C      1  0.4576410000000  0.3998360000000  0.4201140000000 1.0
C      1  0.5445930000000  0.5098300000000  0.5096910000000 1.0
C      1  0.4798870000000  0.5573640000000  0.4401740000000 1.0
C      1  0.5355820000000  0.4432470000000  0.4820120000000 1.0
C      1  0.4600690000000  0.4637640000000  0.5915070000000 1.0
C      1  0.4517330000000  0.4555610000000  0.5645580000000 1.0
C      1  0.4229400000000  0.4608540000000  0.4413970000000 1.0
C      1  0.4788190000000  0.5027710000000  0.5461950000000 1.0
C      1  0.5107760000000  0.3893560000000  0.4593370000000 1.0
C      1  0.4580910000000  0.5432700000000  0.4556450000000 1.0
C      1  0.6029430000000  0.4816350000000  0.5644440000000 1.0
C      1  0.5054390000000  0.5174280000000  0.5995390000000 1.0
C      1  0.4072500000000  0.5095100000000  0.4448400000000 1.0
C      1  0.4128140000000  0.5801320000000  0.4764500000000 1.0
C      1  0.4369850000000  0.4844520000000  0.5005990000000 1.0
C      1  0.5631180000000  0.4569280000000  0.4448290000000 1.0
C      1  0.4907120000000  0.4233240000000  0.5825450000000 1.0
C      1  0.5808580000000  0.4830940000000  0.4967840000000 1.0
C      1  0.4765920000000  0.5702570000000  0.5374560000000 1.0
C      1  0.4694750000000  0.5653630000000  0.5650500000000 1.0
C      1  0.4221160000000  0.5446800000000  0.5392110000000 1.0
C      1  0.4592290000000  0.5375160000000  0.4820490000000 1.0
C      1  0.4999750000000  0.5026010000000  0.4662290000000 1.0
C      1  0.5837430000000  0.4225680000000  0.5365230000000 1.0
C      1  0.4287070000000  0.5831770000000  0.5008410000000 1.0
C      1  0.5464420000000  0.3727840000000  0.4924920000000 1.0
C      1  0.4754670000000  0.4555840000000  0.5482520000000 1.0
C      1  0.5008200000000  0.4524740000000  0.4268380000000 1.0
C      1  0.5442540000000  0.5561430000000  0.5067170000000 1.0
C      1  0.4996240000000  0.5612230000000  0.4839460000000 1.0
END
