TITL C-599896-8500-518 104.655400735598 125000 -1042.46151262836 0 0 169 (C1) n - 1
REM
REM in /home/nfs/bkarasulu/CARBON/AIRSS/Generating-Clusters/TERSOFF/Only-C1/FIRE-HFTN
REM
REM
REM
REM
REM
REM ./C.cell (11c1c37f851c82e70ff6c80c92926a4b)
REM AIRSS Version 0.9.1 bugfix July 2018 build 013d7b7c2542+ Fri, 06 Jul 2018 19:26:36 +0100
REM compiler GCC version 9.2.1 20190827 (Red Hat 9.2.1-1)
REM options -cpp -mtune=generic -march=x86-64 -g -O0 -fpre-include=/usr/include/finclude/math-vector-fortran.h
REM seed -1028821952 374845443 1859757471 -915191567 -727259378 -1705581384 -786286713 598502816 866234940 1275029966 -1666752539 -153987573 950058769 328803067 915713535 1945520117 -217942214 -477912868 -1161051956 -1756429342 1001856591 993432063 -1801171863 -2042132740 784862042 382891180 -1086221671 -51248041 705837079 -1371913772 1755973839 572869638 -995366598
REM
CELL 1.54180   50.00000   50.00000   50.00000   90.00000   90.00000   90.00000
LATT -1
SFAC C  
C      1  0.5602410000000  0.5273180000000  0.5007730000000 1.0
C      1  0.6198710000000  0.5224830000000  0.5144360000000 1.0
C      1  0.5246490000000  0.4735900000000  0.4994500000000 1.0
C      1  0.5057190000000  0.4797500000000  0.4552020000000 1.0
C      1  0.4997650000000  0.4233630000000  0.5947880000000 1.0
C      1  0.4870360000000  0.5277540000000  0.4378890000000 1.0
C      1  0.4055130000000  0.5513500000000  0.4571680000000 1.0
C      1  0.3909030000000  0.4829030000000  0.5076510000000 1.0
C      1  0.4183620000000  0.5329070000000  0.5491100000000 1.0
C      1  0.4506640000000  0.5159540000000  0.4789310000000 1.0
C      1  0.4236640000000  0.4569320000000  0.4399490000000 1.0
C      1  0.5254780000000  0.4347850000000  0.5992200000000 1.0
C      1  0.5790040000000  0.4351880000000  0.4377460000000 1.0
C      1  0.5460060000000  0.6087800000000  0.5125290000000 1.0
C      1  0.5348750000000  0.5347570000000  0.4488810000000 1.0
C      1  0.4187110000000  0.5712740000000  0.4742150000000 1.0
C      1  0.4499550000000  0.5384360000000  0.4154710000000 1.0
C      1  0.5773870000000  0.5343670000000  0.5648920000000 1.0
C      1  0.4439260000000  0.5796890000000  0.4655490000000 1.0
C      1  0.5555770000000  0.4356030000000  0.5050750000000 1.0
C      1  0.4374740000000  0.6032200000000  0.5324710000000 1.0
C      1  0.4205080000000  0.5356280000000  0.4359330000000 1.0
C      1  0.4163560000000  0.4484010000000  0.4658440000000 1.0
C      1  0.5991900000000  0.4331460000000  0.4832850000000 1.0
C      1  0.4785680000000  0.5365380000000  0.5139670000000 1.0
C      1  0.3941780000000  0.4548190000000  0.5057320000000 1.0
C      1  0.5320790000000  0.6067090000000  0.5378300000000 1.0
C      1  0.5545180000000  0.5239160000000  0.5803820000000 1.0
C      1  0.4856690000000  0.4340280000000  0.4176270000000 1.0
C      1  0.5887760000000  0.4413470000000  0.5582300000000 1.0
C      1  0.4555350000000  0.3940480000000  0.5577650000000 1.0
C      1  0.5745000000000  0.4590120000000  0.4189040000000 1.0
C      1  0.4596470000000  0.4705990000000  0.6089790000000 1.0
C      1  0.4812650000000  0.5501290000000  0.4537140000000 1.0
C      1  0.5143640000000  0.5199280000000  0.4363180000000 1.0
C      1  0.5635310000000  0.4117960000000  0.4477430000000 1.0
C      1  0.4243490000000  0.5075720000000  0.4741740000000 1.0
C      1  0.4413440000000  0.4122650000000  0.4409200000000 1.0
C      1  0.5069590000000  0.3825870000000  0.5017720000000 1.0
C      1  0.4886550000000  0.5422100000000  0.6116830000000 1.0
C      1  0.5033740000000  0.5274990000000  0.5689700000000 1.0
C      1  0.4267400000000  0.5595780000000  0.5498100000000 1.0
C      1  0.4451360000000  0.5208110000000  0.6114620000000 1.0
C      1  0.4657820000000  0.4670570000000  0.4736800000000 1.0
C      1  0.4601680000000  0.4437620000000  0.4097350000000 1.0
C      1  0.4927820000000  0.4555340000000  0.5607860000000 1.0
C      1  0.5979300000000  0.4892390000000  0.4799420000000 1.0
C      1  0.4888720000000  0.4151680000000  0.4409440000000 1.0
C      1  0.5028630000000  0.5298080000000  0.3903300000000 1.0
C      1  0.5979380000000  0.4762630000000  0.4550730000000 1.0
C      1  0.5421000000000  0.6013740000000  0.4604280000000 1.0
C      1  0.6212570000000  0.5172910000000  0.5424970000000 1.0
C      1  0.4537550000000  0.4568020000000  0.4962170000000 1.0
C      1  0.5514450000000  0.4631240000000  0.4871450000000 1.0
C      1  0.5347880000000  0.4287580000000  0.5244840000000 1.0
C      1  0.5693560000000  0.5126780000000  0.4227700000000 1.0
C      1  0.5305580000000  0.4728120000000  0.5277880000000 1.0
C      1  0.4995950000000  0.5947400000000  0.4323120000000 1.0
C      1  0.4830990000000  0.3777950000000  0.4869170000000 1.0
C      1  0.4274760000000  0.4848160000000  0.4326740000000 1.0
C      1  0.5181040000000  0.3947040000000  0.5499460000000 1.0
C      1  0.4316440000000  0.5077590000000  0.5629880000000 1.0
C      1  0.5819090000000  0.4856600000000  0.4321210000000 1.0
C      1  0.4817440000000  0.5808110000000  0.4114920000000 1.0
C      1  0.3909530000000  0.4963240000000  0.5337900000000 1.0
C      1  0.6184220000000  0.5035660000000  0.4933310000000 1.0
C      1  0.4842740000000  0.5787810000000  0.4945310000000 1.0
C      1  0.4592450000000  0.5387380000000  0.4927490000000 1.0
C      1  0.4682220000000  0.4626690000000  0.5202470000000 1.0
C      1  0.5069200000000  0.4504040000000  0.4916070000000 1.0
C      1  0.4381400000000  0.4099140000000  0.5711920000000 1.0
C      1  0.4508000000000  0.6213390000000  0.5160390000000 1.0
C      1  0.5691960000000  0.4727430000000  0.5927630000000 1.0
C      1  0.4851040000000  0.6054600000000  0.4833080000000 1.0
C      1  0.5232470000000  0.4572410000000  0.6172020000000 1.0
C      1  0.4688330000000  0.4959560000000  0.4734650000000 1.0
C      1  0.5971650000000  0.4466520000000  0.4579860000000 1.0
C      1  0.5077410000000  0.5831870000000  0.5808840000000 1.0
C      1  0.5380690000000  0.4026290000000  0.4603830000000 1.0
C      1  0.6039990000000  0.5454850000000  0.5095300000000 1.0
C      1  0.4187770000000  0.4849010000000  0.5448930000000 1.0
C      1  0.4422830000000  0.6017370000000  0.5610590000000 1.0
C      1  0.4616870000000  0.5025030000000  0.5557060000000 1.0
C      1  0.5713980000000  0.4891440000000  0.5428370000000 1.0
C      1  0.4536800000000  0.4078770000000  0.5113130000000 1.0
C      1  0.4513380000000  0.4908890000000  0.4176370000000 1.0
C      1  0.5087300000000  0.4798010000000  0.4078650000000 1.0
C      1  0.5649500000000  0.4631570000000  0.3925230000000 1.0
C      1  0.5439490000000  0.4567760000000  0.4576940000000 1.0
C      1  0.4925770000000  0.4570150000000  0.4681820000000 1.0
C      1  0.5446010000000  0.4840020000000  0.5477240000000 1.0
C      1  0.5277450000000  0.5956270000000  0.4353190000000 1.0
C      1  0.4348950000000  0.4928540000000  0.5184410000000 1.0
C      1  0.4876760000000  0.5092860000000  0.5170260000000 1.0
C      1  0.5546770000000  0.5121860000000  0.3966310000000 1.0
C      1  0.4976330000000  0.5649100000000  0.5988370000000 1.0
C      1  0.5296410000000  0.5518500000000  0.4704770000000 1.0
C      1  0.5272420000000  0.4431710000000  0.4378270000000 1.0
C      1  0.5169720000000  0.4171790000000  0.4475340000000 1.0
C      1  0.5375290000000  0.5517210000000  0.5435630000000 1.0
C      1  0.5822740000000  0.5889690000000  0.4845690000000 1.0
C      1  0.4637520000000  0.3989440000000  0.4838550000000 1.0
C      1  0.5691570000000  0.4470660000000  0.5782700000000 1.0
C      1  0.4967640000000  0.5005810000000  0.4729350000000 1.0
C      1  0.5844110000000  0.4314950000000  0.5078840000000 1.0
C      1  0.4981900000000  0.5000560000000  0.3896720000000 1.0
C      1  0.4357170000000  0.4385810000000  0.5724690000000 1.0
C      1  0.5444160000000  0.4314230000000  0.5769900000000 1.0
C      1  0.4151830000000  0.4946320000000  0.4965370000000 1.0
C      1  0.5093320000000  0.4514200000000  0.4148320000000 1.0
C      1  0.5578620000000  0.4875050000000  0.3826070000000 1.0
C      1  0.5300470000000  0.5361610000000  0.5670350000000 1.0
C      1  0.5298450000000  0.3891000000000  0.4848170000000 1.0
C      1  0.4698360000000  0.3956020000000  0.5332670000000 1.0
C      1  0.4882810000000  0.4481020000000  0.5339190000000 1.0
C      1  0.4180540000000  0.5078100000000  0.4464900000000 1.0
C      1  0.4822550000000  0.6055590000000  0.4543720000000 1.0
C      1  0.5112100000000  0.5011820000000  0.4983780000000 1.0
C      1  0.4556010000000  0.5926650000000  0.4186250000000 1.0
C      1  0.4268880000000  0.4501670000000  0.5477050000000 1.0
C      1  0.4251540000000  0.5772020000000  0.5257800000000 1.0
C      1  0.4588840000000  0.4702560000000  0.4002290000000 1.0
C      1  0.5517540000000  0.4961070000000  0.5895290000000 1.0
C      1  0.5349280000000  0.6130200000000  0.4858260000000 1.0
C      1  0.4367690000000  0.5764850000000  0.5707540000000 1.0
C      1  0.3945970000000  0.5427890000000  0.5058410000000 1.0
C      1  0.5924210000000  0.4475120000000  0.5308010000000 1.0
C      1  0.4561660000000  0.4497700000000  0.5897580000000 1.0
C      1  0.5213040000000  0.5599140000000  0.5212990000000 1.0
C      1  0.5073710000000  0.4360120000000  0.5162670000000 1.0
C      1  0.4541580000000  0.5985310000000  0.4467060000000 1.0
C      1  0.4378000000000  0.4360850000000  0.4258860000000 1.0
C      1  0.4931240000000  0.5612040000000  0.5164770000000 1.0
C      1  0.4788880000000  0.5540590000000  0.4007100000000 1.0
C      1  0.5194210000000  0.5974840000000  0.5604760000000 1.0
C      1  0.5057260000000  0.4772180000000  0.6235120000000 1.0
C      1  0.5358500000000  0.4175960000000  0.5517550000000 1.0
C      1  0.6038500000000  0.5243560000000  0.5623000000000 1.0
C      1  0.4640540000000  0.5153630000000  0.4241730000000 1.0
C      1  0.4287440000000  0.5115220000000  0.5921880000000 1.0
C      1  0.5467960000000  0.5798740000000  0.4199440000000 1.0
C      1  0.4123390000000  0.5669220000000  0.5027500000000 1.0
C      1  0.5160680000000  0.4920570000000  0.4325700000000 1.0
C      1  0.5853300000000  0.4746250000000  0.5237610000000 1.0
C      1  0.5665980000000  0.5492050000000  0.5418690000000 1.0
C      1  0.4714490000000  0.6244200000000  0.4991100000000 1.0
C      1  0.5326010000000  0.5307360000000  0.3904550000000 1.0
C      1  0.5675000000000  0.5848640000000  0.4605940000000 1.0
C      1  0.5767950000000  0.5440550000000  0.5159980000000 1.0
C      1  0.5617980000000  0.5366320000000  0.4380260000000 1.0
C      1  0.5666000000000  0.5658950000000  0.4370950000000 1.0
C      1  0.4648070000000  0.4082590000000  0.4562620000000 1.0
C      1  0.4318410000000  0.4282850000000  0.5208190000000 1.0
C      1  0.4802940000000  0.4893530000000  0.6183860000000 1.0
C      1  0.4987220000000  0.3887530000000  0.5296100000000 1.0
C      1  0.4210130000000  0.4450900000000  0.4950500000000 1.0
C      1  0.5323260000000  0.5620390000000  0.4950320000000 1.0
C      1  0.4731260000000  0.5179750000000  0.6164460000000 1.0
C      1  0.5730510000000  0.5995010000000  0.5082120000000 1.0
C      1  0.4643810000000  0.4914980000000  0.5270760000000 1.0
C      1  0.3965350000000  0.5259660000000  0.5305260000000 1.0
C      1  0.5354280000000  0.5177540000000  0.4997790000000 1.0
C      1  0.3871680000000  0.5381750000000  0.4773610000000 1.0
C      1  0.4873410000000  0.5045070000000  0.5679070000000 1.0
C      1  0.4660310000000  0.5624400000000  0.4758710000000 1.0
C      1  0.5308300000000  0.4855850000000  0.5720790000000 1.0
C      1  0.4815000000000  0.4396610000000  0.5812100000000 1.0
C      1  0.5031500000000  0.4807560000000  0.5694570000000 1.0
C      1  0.5770480000000  0.4790100000000  0.4964420000000 1.0
END
