TITL C-599892-9790-938 -0.0375315674225528 125000 -356.283066129632 0 0 60 (C1) n - 1
REM
REM in /home/nfs/bkarasulu/CARBON/AIRSS/Generating-Clusters/TERSOFF/Only-C1/FIRE-HFTN
REM
REM
REM
REM
REM
REM ./C.cell (11c1c37f851c82e70ff6c80c92926a4b)
REM AIRSS Version 0.9.1 bugfix July 2018 build 013d7b7c2542+ Fri, 06 Jul 2018 19:26:36 +0100
REM compiler GCC version 9.2.1 20190827 (Red Hat 9.2.1-1)
REM options -cpp -mtune=generic -march=x86-64 -g -O0 -fpre-include=/usr/include/finclude/math-vector-fortran.h
REM seed -93745571 -1611287778 2128980682 549250016 870064862 401920666 -2066614451 2026975757 -1531732504 1424140600 1891794605 -1334890917 828555441 1135683217 263575968 -672467537 1771250928 2048102771 347788573 895523593 -103594065 -1591908480 2067838255 1387770367 -1987380095 1075346244 2026082729 224994085 -1090074420 1335803654 -1916375163 -685750137 -777371283
REM
CELL 1.54180   50.00000   50.00000   50.00000   90.00000   90.00000   90.00000
LATT -1
SFAC C  
C      1  0.5042680000000  0.5747150000000  0.4683190000000 1.0
C      1  0.4393620000000  0.4633940000000  0.4723590000000 1.0
C      1  0.4655080000000  0.5479940000000  0.5524300000000 1.0
C      1  0.4520200000000  0.4270000000000  0.5321190000000 1.0
C      1  0.5732810000000  0.5074290000000  0.4919560000000 1.0
C      1  0.5260940000000  0.5520790000000  0.5639380000000 1.0
C      1  0.5548410000000  0.5269120000000  0.4486510000000 1.0
C      1  0.5026400000000  0.4701570000000  0.4961440000000 1.0
C      1  0.5271730000000  0.5035600000000  0.4209570000000 1.0
C      1  0.4550420000000  0.5336370000000  0.6023000000000 1.0
C      1  0.4510720000000  0.5248670000000  0.6265260000000 1.0
C      1  0.4699640000000  0.4454390000000  0.5429250000000 1.0
C      1  0.4462830000000  0.5023390000000  0.5027970000000 1.0
C      1  0.4873460000000  0.5931800000000  0.4572610000000 1.0
C      1  0.4634480000000  0.4717160000000  0.4287720000000 1.0
C      1  0.4421130000000  0.5324910000000  0.4466440000000 1.0
C      1  0.4926680000000  0.4388200000000  0.4601720000000 1.0
C      1  0.4613270000000  0.5807800000000  0.5177940000000 1.0
C      1  0.4303530000000  0.4862960000000  0.4859220000000 1.0
C      1  0.4907260000000  0.4775680000000  0.4323500000000 1.0
C      1  0.5495760000000  0.5009860000000  0.4382260000000 1.0
C      1  0.5094480000000  0.5492580000000  0.4550790000000 1.0
C      1  0.5348210000000  0.4549820000000  0.4545200000000 1.0
C      1  0.4429500000000  0.4645410000000  0.4445260000000 1.0
C      1  0.4691460000000  0.5558120000000  0.5258430000000 1.0
C      1  0.5556790000000  0.5248080000000  0.5052560000000 1.0
C      1  0.5265240000000  0.4835090000000  0.5395090000000 1.0
C      1  0.5274050000000  0.4727780000000  0.5125980000000 1.0
C      1  0.4995050000000  0.4423240000000  0.5428780000000 1.0
C      1  0.4510910000000  0.4914870000000  0.5288460000000 1.0
C      1  0.5344850000000  0.5388700000000  0.4638620000000 1.0
C      1  0.4843480000000  0.4489740000000  0.4855410000000 1.0
C      1  0.5005210000000  0.5045070000000  0.4310850000000 1.0
C      1  0.5325530000000  0.5316700000000  0.4908260000000 1.0
C      1  0.4648980000000  0.5271650000000  0.4611930000000 1.0
C      1  0.5539790000000  0.4665070000000  0.5036000000000 1.0
C      1  0.5367770000000  0.5087550000000  0.5485790000000 1.0
C      1  0.5387570000000  0.5568910000000  0.5382330000000 1.0
C      1  0.4595820000000  0.5417430000000  0.5774780000000 1.0
C      1  0.5273170000000  0.4240200000000  0.4992850000000 1.0
C      1  0.5505720000000  0.5296850000000  0.5323540000000 1.0
C      1  0.4557840000000  0.4460110000000  0.4879770000000 1.0
C      1  0.5249990000000  0.5249550000000  0.5698200000000 1.0
C      1  0.5076790000000  0.4566230000000  0.4435230000000 1.0
C      1  0.4451510000000  0.4275750000000  0.5061590000000 1.0
C      1  0.5087280000000  0.4681330000000  0.5553750000000 1.0
C      1  0.5638910000000  0.4825570000000  0.4822020000000 1.0
C      1  0.5301360000000  0.5746210000000  0.5173600000000 1.0
C      1  0.4799080000000  0.5374120000000  0.5071220000000 1.0
C      1  0.5144670000000  0.4270360000000  0.5234670000000 1.0
C      1  0.4979790000000  0.4936760000000  0.4824760000000 1.0
C      1  0.4622850000000  0.5228630000000  0.4900400000000 1.0
C      1  0.4850330000000  0.4823100000000  0.5638480000000 1.0
C      1  0.5521640000000  0.4782270000000  0.4560710000000 1.0
C      1  0.4905710000000  0.5278720000000  0.4470520000000 1.0
C      1  0.5179440000000  0.5801410000000  0.4934740000000 1.0
C      1  0.4626980000000  0.4738330000000  0.5476650000000 1.0
C      1  0.5368130000000  0.4336140000000  0.4751200000000 1.0
C      1  0.5074010000000  0.5327440000000  0.5039870000000 1.0
C      1  0.5709050000000  0.4501530000000  0.5176110000000 1.0
END
