TITL C-599894-471-1340 -2.35476084919496 125000 -804.238758310746 0 0 133 (C1) n - 1
REM
REM in /home/nfs/bkarasulu/CARBON/AIRSS/Generating-Clusters/TERSOFF/Only-C1/FIRE-HFTN
REM
REM
REM
REM
REM
REM ./C.cell (11c1c37f851c82e70ff6c80c92926a4b)
REM AIRSS Version 0.9.1 bugfix July 2018 build 013d7b7c2542+ Fri, 06 Jul 2018 19:26:36 +0100
REM compiler GCC version 9.2.1 20190827 (Red Hat 9.2.1-1)
REM options -cpp -mtune=generic -march=x86-64 -g -O0 -fpre-include=/usr/include/finclude/math-vector-fortran.h
REM seed 656760074 -1145482896 1905953741 1915081809 1897145257 1482849410 -1555646200 1438828603 -674888774 887169453 -590387307 -1548873424 1690594417 -810692832 -270657666 -1795691794 611004544 1681618047 434052503 809963130 1593057509 1544681561 1548828176 1256941554 -1123542804 -1646020701 -2083714238 175033677 798302957 340103769 -779406095 -184924692 1145160457
REM
CELL 1.54180   50.00000   50.00000   50.00000   90.00000   90.00000   90.00000
LATT -1
SFAC C  
C      1  0.4132730000000  0.5445480000000  0.4400540000000 1.0
C      1  0.5340590000000  0.4750870000000  0.4000860000000 1.0
C      1  0.4073170000000  0.5155640000000  0.5507550000000 1.0
C      1  0.5084780000000  0.5078100000000  0.6079070000000 1.0
C      1  0.5390380000000  0.4750230000000  0.5854020000000 1.0
C      1  0.3791420000000  0.5244200000000  0.5059680000000 1.0
C      1  0.5367920000000  0.5196490000000  0.5162910000000 1.0
C      1  0.4467740000000  0.5299570000000  0.5714380000000 1.0
C      1  0.5818840000000  0.4257590000000  0.4869520000000 1.0
C      1  0.5030740000000  0.4420170000000  0.4848380000000 1.0
C      1  0.4589660000000  0.4969860000000  0.5088070000000 1.0
C      1  0.4792170000000  0.4580180000000  0.4815290000000 1.0
C      1  0.6019790000000  0.4684800000000  0.4690020000000 1.0
C      1  0.4539020000000  0.4495690000000  0.4722380000000 1.0
C      1  0.4804650000000  0.4893000000000  0.4105850000000 1.0
C      1  0.5603950000000  0.4324170000000  0.5619820000000 1.0
C      1  0.5613090000000  0.5120790000000  0.5059290000000 1.0
C      1  0.6045230000000  0.4421720000000  0.4815570000000 1.0
C      1  0.5162700000000  0.4357130000000  0.5286780000000 1.0
C      1  0.4815610000000  0.5918790000000  0.4975000000000 1.0
C      1  0.4525870000000  0.4261920000000  0.5606680000000 1.0
C      1  0.5053120000000  0.4956040000000  0.5402520000000 1.0
C      1  0.5601300000000  0.4325440000000  0.4395720000000 1.0
C      1  0.5496820000000  0.4516840000000  0.5774180000000 1.0
C      1  0.5245550000000  0.4002410000000  0.4227250000000 1.0
C      1  0.5492620000000  0.4672010000000  0.5048380000000 1.0
C      1  0.5558360000000  0.5391130000000  0.4327720000000 1.0
C      1  0.4124810000000  0.4755600000000  0.4192000000000 1.0
C      1  0.5066110000000  0.3919080000000  0.4406660000000 1.0
C      1  0.3779660000000  0.5293270000000  0.4788640000000 1.0
C      1  0.5800440000000  0.4766920000000  0.4530530000000 1.0
C      1  0.4789830000000  0.5517570000000  0.5959260000000 1.0
C      1  0.4344640000000  0.5911610000000  0.5013520000000 1.0
C      1  0.5485950000000  0.5617790000000  0.4877030000000 1.0
C      1  0.5601600000000  0.5707770000000  0.5634480000000 1.0
C      1  0.5424840000000  0.4761350000000  0.4258530000000 1.0
C      1  0.5286420000000  0.5077470000000  0.6579280000000 1.0
C      1  0.4541920000000  0.5348380000000  0.4048930000000 1.0
C      1  0.4676560000000  0.5937660000000  0.4712770000000 1.0
C      1  0.5858340000000  0.4856120000000  0.5444950000000 1.0
C      1  0.4863620000000  0.5431670000000  0.4709220000000 1.0
C      1  0.4787650000000  0.4109620000000  0.5101500000000 1.0
C      1  0.5224750000000  0.5755370000000  0.5972560000000 1.0
C      1  0.5977210000000  0.5327600000000  0.4842730000000 1.0
C      1  0.4439890000000  0.4460790000000  0.4451610000000 1.0
C      1  0.6336900000000  0.4906640000000  0.5020450000000 1.0
C      1  0.5187950000000  0.5074540000000  0.6338020000000 1.0
C      1  0.5579020000000  0.4902920000000  0.4891810000000 1.0
C      1  0.4260400000000  0.5181210000000  0.4865180000000 1.0
C      1  0.4595700000000  0.5888130000000  0.5178010000000 1.0
C      1  0.6328170000000  0.4725310000000  0.5239560000000 1.0
C      1  0.4316610000000  0.4583170000000  0.4919090000000 1.0
C      1  0.5048790000000  0.5874620000000  0.4319740000000 1.0
C      1  0.4462860000000  0.5449740000000  0.5307230000000 1.0
C      1  0.4971720000000  0.3966530000000  0.4651250000000 1.0
C      1  0.6400000000000  0.4462260000000  0.5163010000000 1.0
C      1  0.4737300000000  0.5374650000000  0.4465350000000 1.0
C      1  0.5037960000000  0.4963440000000  0.4875940000000 1.0
C      1  0.5149380000000  0.5621280000000  0.5509140000000 1.0
C      1  0.4605890000000  0.4446290000000  0.4224500000000 1.0
C      1  0.4290850000000  0.5608890000000  0.4607890000000 1.0
C      1  0.5283030000000  0.5818080000000  0.4768190000000 1.0
C      1  0.4361540000000  0.5091060000000  0.5888660000000 1.0
C      1  0.5652600000000  0.4709990000000  0.5299880000000 1.0
C      1  0.5680570000000  0.5599900000000  0.5384440000000 1.0
C      1  0.4362420000000  0.4376600000000  0.5161520000000 1.0
C      1  0.5757110000000  0.4181290000000  0.5134850000000 1.0
C      1  0.3947010000000  0.5240320000000  0.4552480000000 1.0
C      1  0.4146570000000  0.5019390000000  0.4650630000000 1.0
C      1  0.5024050000000  0.5371580000000  0.5580290000000 1.0
C      1  0.5134710000000  0.5372010000000  0.4717750000000 1.0
C      1  0.4663460000000  0.5411940000000  0.4903550000000 1.0
C      1  0.5250640000000  0.4494660000000  0.5042270000000 1.0
C      1  0.4932570000000  0.4194460000000  0.5338600000000 1.0
C      1  0.4616630000000  0.5261110000000  0.5141610000000 1.0
C      1  0.5213430000000  0.5723310000000  0.5244460000000 1.0
C      1  0.4188200000000  0.4937530000000  0.5686860000000 1.0
C      1  0.4174920000000  0.4583030000000  0.4421310000000 1.0
C      1  0.4350020000000  0.3904530000000  0.5026290000000 1.0
C      1  0.5454380000000  0.4169150000000  0.4215110000000 1.0
C      1  0.4667370000000  0.5688180000000  0.5685460000000 1.0
C      1  0.4071280000000  0.4873850000000  0.5172620000000 1.0
C      1  0.4340020000000  0.4836740000000  0.5086300000000 1.0
C      1  0.6285270000000  0.4346840000000  0.4946800000000 1.0
C      1  0.4588630000000  0.5699720000000  0.5395550000000 1.0
C      1  0.5415650000000  0.5366920000000  0.4740150000000 1.0
C      1  0.5094350000000  0.4948650000000  0.4576950000000 1.0
C      1  0.4870420000000  0.4947000000000  0.4386210000000 1.0
C      1  0.5141150000000  0.5034680000000  0.5141000000000 1.0
C      1  0.3932020000000  0.5100490000000  0.5264490000000 1.0
C      1  0.4259890000000  0.5310190000000  0.4144920000000 1.0
C      1  0.5496660000000  0.5656290000000  0.5165890000000 1.0
C      1  0.4116220000000  0.4706950000000  0.4690470000000 1.0
C      1  0.5594370000000  0.5082480000000  0.4582350000000 1.0
C      1  0.4391060000000  0.5863630000000  0.4722730000000 1.0
C      1  0.5638090000000  0.4605750000000  0.4366200000000 1.0
C      1  0.4734890000000  0.4621180000000  0.4064160000000 1.0
C      1  0.4382790000000  0.5016500000000  0.4454200000000 1.0
C      1  0.4282280000000  0.5353400000000  0.5501040000000 1.0
C      1  0.4611850000000  0.4962610000000  0.5957020000000 1.0
C      1  0.5245390000000  0.4993610000000  0.5855070000000 1.0
C      1  0.4816180000000  0.5168920000000  0.6030330000000 1.0
C      1  0.5091430000000  0.5848660000000  0.5002380000000 1.0
C      1  0.4647190000000  0.5103430000000  0.4468510000000 1.0
C      1  0.4498570000000  0.4124920000000  0.5094460000000 1.0
C      1  0.5872420000000  0.5227430000000  0.4613520000000 1.0
C      1  0.4394790000000  0.5416630000000  0.4800090000000 1.0
C      1  0.5838090000000  0.5133250000000  0.5525380000000 1.0
C      1  0.5661530000000  0.4208470000000  0.4644690000000 1.0
C      1  0.4692490000000  0.5113550000000  0.3939920000000 1.0
C      1  0.4745680000000  0.5248350000000  0.5598210000000 1.0
C      1  0.5190830000000  0.5124110000000  0.5607420000000 1.0
C      1  0.5694920000000  0.4206470000000  0.5395330000000 1.0
C      1  0.4844980000000  0.5751750000000  0.4193500000000 1.0
C      1  0.6124000000000  0.4759790000000  0.5429510000000 1.0
C      1  0.4783080000000  0.4184650000000  0.5576170000000 1.0
C      1  0.4701940000000  0.5513050000000  0.4222090000000 1.0
C      1  0.4378510000000  0.4456720000000  0.5453780000000 1.0
C      1  0.4240890000000  0.5018130000000  0.4196010000000 1.0
C      1  0.4732590000000  0.5103450000000  0.3666830000000 1.0
C      1  0.5849750000000  0.5277750000000  0.5086190000000 1.0
C      1  0.5459980000000  0.5630470000000  0.4349550000000 1.0
C      1  0.5331080000000  0.5720200000000  0.5715490000000 1.0
C      1  0.4942890000000  0.4143060000000  0.4863470000000 1.0
C      1  0.4792010000000  0.4835210000000  0.4933960000000 1.0
C      1  0.6214640000000  0.4870350000000  0.4781550000000 1.0
C      1  0.5842720000000  0.5366300000000  0.5356810000000 1.0
C      1  0.4789530000000  0.4956050000000  0.5519460000000 1.0
C      1  0.4640980000000  0.4796300000000  0.5706270000000 1.0
C      1  0.5273760000000  0.5810020000000  0.4477210000000 1.0
C      1  0.4370400000000  0.4710190000000  0.5598830000000 1.0
C      1  0.4994600000000  0.5665800000000  0.6080770000000 1.0
C      1  0.5352500000000  0.4955430000000  0.4456220000000 1.0
END
