TITL C-599891-72-1054 -117.493847569003 125000 -929.347823697312 0 0 152 (C1) n - 1
REM
REM in /home/nfs/bkarasulu/CARBON/AIRSS/Generating-Clusters/TERSOFF/Only-C1/FIRE-HFTN
REM
REM
REM
REM
REM
REM ./C.cell (11c1c37f851c82e70ff6c80c92926a4b)
REM AIRSS Version 0.9.1 bugfix July 2018 build 013d7b7c2542+ Fri, 06 Jul 2018 19:26:36 +0100
REM compiler GCC version 9.2.1 20190827 (Red Hat 9.2.1-1)
REM options -cpp -mtune=generic -march=x86-64 -g -O0 -fpre-include=/usr/include/finclude/math-vector-fortran.h
REM seed -1416745232 2013123901 -741993555 -1161115541 -757651442 -1970013683 740463325 -1814213518 -2024528987 -1856983332 -1417077248 1296794377 -1420080072 -1508883973 855176671 2051851532 -165290376 -672326517 1070306370 -1160174647 1770503565 1016451351 757423756 -273979590 -1066755362 1430720589 1483083540 -1026149907 -1632337503 1059013753 -976945179 596187873 1766981425
REM
CELL 1.54180   50.00000   50.00000   50.00000   90.00000   90.00000   90.00000
LATT -1
SFAC C  
C      1  0.6242290000000  0.4477500000000  0.4660700000000 1.0
C      1  0.4432200000000  0.5089480000000  0.4699620000000 1.0
C      1  0.4020700000000  0.4992900000000  0.4271130000000 1.0
C      1  0.4809240000000  0.4902780000000  0.4513230000000 1.0
C      1  0.4351370000000  0.4867030000000  0.6075030000000 1.0
C      1  0.6360580000000  0.4730920000000  0.4677480000000 1.0
C      1  0.5531920000000  0.4948710000000  0.5051880000000 1.0
C      1  0.3966420000000  0.4831480000000  0.5447980000000 1.0
C      1  0.4167230000000  0.5247870000000  0.4258000000000 1.0
C      1  0.5773160000000  0.4795640000000  0.3948820000000 1.0
C      1  0.4627520000000  0.5392480000000  0.4087740000000 1.0
C      1  0.5388750000000  0.5461810000000  0.4155920000000 1.0
C      1  0.4741180000000  0.4432060000000  0.4199230000000 1.0
C      1  0.5564010000000  0.5409880000000  0.5939820000000 1.0
C      1  0.5311800000000  0.4744080000000  0.4501340000000 1.0
C      1  0.6090190000000  0.4378050000000  0.4893970000000 1.0
C      1  0.5014840000000  0.4759590000000  0.4882900000000 1.0
C      1  0.4814780000000  0.5311910000000  0.4712790000000 1.0
C      1  0.5773810000000  0.4794650000000  0.5725810000000 1.0
C      1  0.4323980000000  0.5372500000000  0.5973040000000 1.0
C      1  0.5653310000000  0.4712580000000  0.5483570000000 1.0
C      1  0.4834660000000  0.5235180000000  0.4988180000000 1.0
C      1  0.5528690000000  0.4223550000000  0.4199240000000 1.0
C      1  0.5864140000000  0.5024600000000  0.4047930000000 1.0
C      1  0.4457880000000  0.4786170000000  0.4131980000000 1.0
C      1  0.4513400000000  0.4030140000000  0.5203790000000 1.0
C      1  0.4437850000000  0.5600260000000  0.4962480000000 1.0
C      1  0.4622110000000  0.3839230000000  0.5055780000000 1.0
C      1  0.5216500000000  0.5540890000000  0.5548440000000 1.0
C      1  0.5830180000000  0.5256570000000  0.4173680000000 1.0
C      1  0.5778640000000  0.5272460000000  0.4765430000000 1.0
C      1  0.5081470000000  0.4829970000000  0.5829560000000 1.0
C      1  0.3815270000000  0.5182020000000  0.4848570000000 1.0
C      1  0.4449960000000  0.4509160000000  0.4215560000000 1.0
C      1  0.5420990000000  0.4553960000000  0.5495440000000 1.0
C      1  0.4799960000000  0.5591080000000  0.5290160000000 1.0
C      1  0.4554890000000  0.4555900000000  0.4819820000000 1.0
C      1  0.4661990000000  0.5699610000000  0.5839960000000 1.0
C      1  0.5222430000000  0.5228080000000  0.4540960000000 1.0
C      1  0.5224170000000  0.6031120000000  0.5409500000000 1.0
C      1  0.5241700000000  0.4222050000000  0.5222530000000 1.0
C      1  0.5628670000000  0.4070380000000  0.4881410000000 1.0
C      1  0.4827440000000  0.4206820000000  0.4348890000000 1.0
C      1  0.5397120000000  0.5452390000000  0.5013190000000 1.0
C      1  0.4551130000000  0.4858950000000  0.5168280000000 1.0
C      1  0.6314910000000  0.4955200000000  0.4820030000000 1.0
C      1  0.4739360000000  0.3652460000000  0.4916780000000 1.0
C      1  0.4836150000000  0.4490050000000  0.6364920000000 1.0
C      1  0.4993200000000  0.4172690000000  0.4556940000000 1.0
C      1  0.5152180000000  0.4329850000000  0.4705110000000 1.0
C      1  0.4568200000000  0.5866790000000  0.4982940000000 1.0
C      1  0.5237440000000  0.4619910000000  0.4243450000000 1.0
C      1  0.5049580000000  0.5787730000000  0.4718480000000 1.0
C      1  0.5538810000000  0.4517760000000  0.3632950000000 1.0
C      1  0.4157810000000  0.5794450000000  0.5431510000000 1.0
C      1  0.4321860000000  0.5522030000000  0.4704440000000 1.0
C      1  0.4909960000000  0.5461360000000  0.4001830000000 1.0
C      1  0.4088700000000  0.4578500000000  0.5459070000000 1.0
C      1  0.4197550000000  0.4500880000000  0.4382000000000 1.0
C      1  0.5643270000000  0.5754340000000  0.4746200000000 1.0
C      1  0.5702300000000  0.5502360000000  0.4593360000000 1.0
C      1  0.4977470000000  0.5707880000000  0.4158460000000 1.0
C      1  0.4716160000000  0.4999760000000  0.5593520000000 1.0
C      1  0.5227080000000  0.5660610000000  0.4291180000000 1.0
C      1  0.4771570000000  0.4721400000000  0.4733760000000 1.0
C      1  0.5586150000000  0.4595380000000  0.3890840000000 1.0
C      1  0.5183950000000  0.4448040000000  0.5382330000000 1.0
C      1  0.5645080000000  0.5427810000000  0.4301570000000 1.0
C      1  0.4140250000000  0.4815270000000  0.4939940000000 1.0
C      1  0.3865490000000  0.5356470000000  0.4650270000000 1.0
C      1  0.4835750000000  0.5249940000000  0.5616030000000 1.0
C      1  0.4293400000000  0.5126200000000  0.6067780000000 1.0
C      1  0.3979380000000  0.5077950000000  0.5309950000000 1.0
C      1  0.5299020000000  0.5054300000000  0.5456830000000 1.0
C      1  0.5056450000000  0.5868890000000  0.4991930000000 1.0
C      1  0.6118130000000  0.5028010000000  0.5009150000000 1.0
C      1  0.4934110000000  0.4593640000000  0.5411270000000 1.0
C      1  0.4242280000000  0.4517330000000  0.4915270000000 1.0
C      1  0.4431640000000  0.4248250000000  0.5359790000000 1.0
C      1  0.4407100000000  0.5556400000000  0.5772470000000 1.0
C      1  0.4819590000000  0.5899660000000  0.4576810000000 1.0
C      1  0.4891090000000  0.4312340000000  0.6547430000000 1.0
C      1  0.4947430000000  0.3967380000000  0.5816430000000 1.0
C      1  0.5529830000000  0.5905830000000  0.4954600000000 1.0
C      1  0.5529850000000  0.3964890000000  0.4627280000000 1.0
C      1  0.5909360000000  0.4180480000000  0.4507780000000 1.0
C      1  0.4608580000000  0.5520570000000  0.4346250000000 1.0
C      1  0.4453880000000  0.4974760000000  0.3917980000000 1.0
C      1  0.4549060000000  0.4279490000000  0.5629460000000 1.0
C      1  0.5476510000000  0.5493970000000  0.5471250000000 1.0
C      1  0.4757470000000  0.4114460000000  0.5715470000000 1.0
C      1  0.5407930000000  0.5012560000000  0.4569950000000 1.0
C      1  0.4503540000000  0.4982590000000  0.5415760000000 1.0
C      1  0.5447760000000  0.4108010000000  0.5091630000000 1.0
C      1  0.4613990000000  0.6004930000000  0.4740370000000 1.0
C      1  0.5082960000000  0.5946060000000  0.5664180000000 1.0
C      1  0.5196710000000  0.5588560000000  0.4565160000000 1.0
C      1  0.5592630000000  0.5049280000000  0.4783710000000 1.0
C      1  0.4524300000000  0.4649530000000  0.6018290000000 1.0
C      1  0.5724730000000  0.4825990000000  0.5229000000000 1.0
C      1  0.4971830000000  0.4873920000000  0.6087420000000 1.0
C      1  0.5444630000000  0.4474650000000  0.4106170000000 1.0
C      1  0.5282390000000  0.5021370000000  0.5179380000000 1.0
C      1  0.4699770000000  0.4916890000000  0.3779120000000 1.0
C      1  0.4097310000000  0.5314210000000  0.5429880000000 1.0
C      1  0.4641140000000  0.6165880000000  0.5675890000000 1.0
C      1  0.4958480000000  0.5458970000000  0.5477340000000 1.0
C      1  0.5661550000000  0.4084060000000  0.4399300000000 1.0
C      1  0.4608750000000  0.4911790000000  0.4330810000000 1.0
C      1  0.5578840000000  0.5463450000000  0.5213350000000 1.0
C      1  0.5018150000000  0.5139180000000  0.6185600000000 1.0
C      1  0.4547810000000  0.5355410000000  0.4599210000000 1.0
C      1  0.5964060000000  0.5269680000000  0.4990620000000 1.0
C      1  0.4961230000000  0.5141640000000  0.4548720000000 1.0
C      1  0.4025110000000  0.4725940000000  0.4315820000000 1.0
C      1  0.4738130000000  0.4640010000000  0.5209390000000 1.0
C      1  0.4813300000000  0.5833580000000  0.5140070000000 1.0
C      1  0.6136280000000  0.4336160000000  0.4435100000000 1.0
C      1  0.4398040000000  0.4947880000000  0.4940050000000 1.0
C      1  0.4819170000000  0.5566390000000  0.6045580000000 1.0
C      1  0.5035340000000  0.5010560000000  0.5035380000000 1.0
C      1  0.4390720000000  0.5236400000000  0.4040050000000 1.0
C      1  0.5298010000000  0.5532990000000  0.5993540000000 1.0
C      1  0.5217060000000  0.5716940000000  0.5778690000000 1.0
C      1  0.5292610000000  0.5956740000000  0.5127580000000 1.0
C      1  0.5678080000000  0.5460550000000  0.5676460000000 1.0
C      1  0.5173080000000  0.5313810000000  0.3993670000000 1.0
C      1  0.4944860000000  0.4840860000000  0.3911120000000 1.0
C      1  0.6090890000000  0.4544080000000  0.5118290000000 1.0
C      1  0.5147590000000  0.5043050000000  0.3916140000000 1.0
C      1  0.5286610000000  0.4980390000000  0.5714510000000 1.0
C      1  0.4777660000000  0.4670270000000  0.6159750000000 1.0
C      1  0.5918970000000  0.5413080000000  0.5513920000000 1.0
C      1  0.5994220000000  0.4806940000000  0.5146880000000 1.0
C      1  0.4887590000000  0.4771090000000  0.5632940000000 1.0
C      1  0.4158150000000  0.4505540000000  0.5725760000000 1.0
C      1  0.4425820000000  0.4464530000000  0.5814290000000 1.0
C      1  0.4761340000000  0.5765230000000  0.4340270000000 1.0
C      1  0.4792100000000  0.5940490000000  0.5722520000000 1.0
C      1  0.4233760000000  0.4430630000000  0.5249560000000 1.0
C      1  0.5863490000000  0.5398490000000  0.5224620000000 1.0
C      1  0.5763870000000  0.4946230000000  0.5947340000000 1.0
C      1  0.5883160000000  0.4194550000000  0.4809260000000 1.0
C      1  0.4967660000000  0.4622890000000  0.4110210000000 1.0
C      1  0.5208950000000  0.4604260000000  0.4734110000000 1.0
C      1  0.5667090000000  0.5173530000000  0.6056120000000 1.0
C      1  0.5055840000000  0.5413480000000  0.6110440000000 1.0
C      1  0.4106510000000  0.5426460000000  0.4514070000000 1.0
C      1  0.4640720000000  0.5419870000000  0.5115910000000 1.0
C      1  0.3947820000000  0.5013150000000  0.5028370000000 1.0
C      1  0.4144390000000  0.4395540000000  0.4649030000000 1.0
C      1  0.4230640000000  0.5550670000000  0.5538500000000 1.0
END
