TITL C-599893-4344-1280 1969.95850637141 125000 -997.904543658194 0 0 165 (C1) n - 1
REM
REM in /home/nfs/bkarasulu/CARBON/AIRSS/Generating-Clusters/TERSOFF/Only-C1/FIRE-HFTN
REM
REM
REM
REM
REM
REM ./C.cell (11c1c37f851c82e70ff6c80c92926a4b)
REM AIRSS Version 0.9.1 bugfix July 2018 build 013d7b7c2542+ Fri, 06 Jul 2018 19:26:36 +0100
REM compiler GCC version 9.2.1 20190827 (Red Hat 9.2.1-1)
REM options -cpp -mtune=generic -march=x86-64 -g -O0 -fpre-include=/usr/include/finclude/math-vector-fortran.h
REM seed 67155694 423191342 680714073 1007254884 1808218292 1917094214 -1030484107 -245664207 1774800827 -359526069 -728780751 252155533 520053366 291687371 648869878 1442123598 1965559842 637309476 -329254010 1738155512 -401971284 -1187207827 967769649 871980903 2057460563 -721362452 -1395124622 -1117830895 -1364630552 -48750162 -821305185 -922341588 -1618858713
REM
CELL 1.54180   50.00000   50.00000   50.00000   90.00000   90.00000   90.00000
LATT -1
SFAC C  
C      1  0.4965850000000  0.4584570000000  0.5445830000000 1.0
C      1  0.5268350000000  0.4700840000000  0.4850710000000 1.0
C      1  0.5616260000000  0.5680110000000  0.4967500000000 1.0
C      1  0.5857480000000  0.5157020000000  0.5636470000000 1.0
C      1  0.4969070000000  0.5036730000000  0.4002480000000 1.0
C      1  0.5236060000000  0.5423120000000  0.5469980000000 1.0
C      1  0.4090390000000  0.4697140000000  0.5615860000000 1.0
C      1  0.6034830000000  0.5674370000000  0.4440430000000 1.0
C      1  0.5522360000000  0.5192780000000  0.5129700000000 1.0
C      1  0.6160020000000  0.5024450000000  0.4958030000000 1.0
C      1  0.4710610000000  0.4210830000000  0.4875230000000 1.0
C      1  0.3941920000000  0.5239980000000  0.5169630000000 1.0
C      1  0.4413910000000  0.4150260000000  0.4824030000000 1.0
C      1  0.5851220000000  0.5734630000000  0.4232280000000 1.0
C      1  0.4221770000000  0.5850090000000  0.4358470000000 1.0
C      1  0.5168190000000  0.4555520000000  0.4093940000000 1.0
C      1  0.5063530000000  0.5941130000000  0.4911190000000 1.0
C      1  0.3911120000000  0.5397200000000  0.4922120000000 1.0
C      1  0.4656310000000  0.4656250000000  0.4996230000000 1.0
C      1  0.5699510000000  0.5053410000000  0.5857000000000 1.0
C      1  0.4363610000000  0.5865230000000  0.4881850000000 1.0
C      1  0.4826260000000  0.4261240000000  0.3947750000000 1.0
C      1  0.5468870000000  0.4402890000000  0.5291220000000 1.0
C      1  0.5189000000000  0.5123870000000  0.5889550000000 1.0
C      1  0.5790380000000  0.4657550000000  0.4400160000000 1.0
C      1  0.4904840000000  0.4643390000000  0.4556280000000 1.0
C      1  0.4795130000000  0.4423390000000  0.5027700000000 1.0
C      1  0.4486650000000  0.5390260000000  0.4037800000000 1.0
C      1  0.4281270000000  0.4285350000000  0.5691160000000 1.0
C      1  0.4877570000000  0.5524360000000  0.5027130000000 1.0
C      1  0.4593690000000  0.4701140000000  0.6186730000000 1.0
C      1  0.4690530000000  0.5554750000000  0.5473010000000 1.0
C      1  0.4650760000000  0.5584060000000  0.5192510000000 1.0
C      1  0.4688040000000  0.5105390000000  0.4084380000000 1.0
C      1  0.5878690000000  0.5570750000000  0.4909430000000 1.0
C      1  0.5074380000000  0.5331110000000  0.5692140000000 1.0
C      1  0.4031340000000  0.4692450000000  0.5076080000000 1.0
C      1  0.5329270000000  0.5721570000000  0.5830770000000 1.0
C      1  0.6076580000000  0.4761230000000  0.4865200000000 1.0
C      1  0.5467260000000  0.5217040000000  0.5923450000000 1.0
C      1  0.5280560000000  0.4517350000000  0.5086400000000 1.0
C      1  0.5765160000000  0.5443130000000  0.5625370000000 1.0
C      1  0.4759230000000  0.3790990000000  0.5217150000000 1.0
C      1  0.5011300000000  0.4752740000000  0.3962050000000 1.0
C      1  0.4723570000000  0.4915500000000  0.5069170000000 1.0
C      1  0.5045850000000  0.6089620000000  0.5543120000000 1.0
C      1  0.5395200000000  0.5566990000000  0.4232650000000 1.0
C      1  0.4470910000000  0.5436940000000  0.4546030000000 1.0
C      1  0.5315700000000  0.4626320000000  0.4331270000000 1.0
C      1  0.5021140000000  0.5959500000000  0.4623810000000 1.0
C      1  0.5087650000000  0.4793360000000  0.5969680000000 1.0
C      1  0.4249530000000  0.5318840000000  0.3909250000000 1.0
C      1  0.4174930000000  0.5637030000000  0.5281110000000 1.0
C      1  0.6068090000000  0.5185180000000  0.5180970000000 1.0
C      1  0.5290650000000  0.5391670000000  0.4431140000000 1.0
C      1  0.4090950000000  0.4722780000000  0.4799810000000 1.0
C      1  0.4254720000000  0.4213830000000  0.5085910000000 1.0
C      1  0.5283680000000  0.5697120000000  0.5343160000000 1.0
C      1  0.5020790000000  0.3884680000000  0.5316040000000 1.0
C      1  0.4360520000000  0.4276280000000  0.4548980000000 1.0
C      1  0.5036690000000  0.6289070000000  0.5732140000000 1.0
C      1  0.4532430000000  0.3878120000000  0.5373590000000 1.0
C      1  0.5399320000000  0.5857430000000  0.4239410000000 1.0
C      1  0.5203190000000  0.4985800000000  0.4882270000000 1.0
C      1  0.5135620000000  0.6156810000000  0.4474500000000 1.0
C      1  0.4386320000000  0.4528540000000  0.6123930000000 1.0
C      1  0.5365140000000  0.5547420000000  0.4897640000000 1.0
C      1  0.4315220000000  0.4011660000000  0.5284420000000 1.0
C      1  0.5584320000000  0.5722670000000  0.5259620000000 1.0
C      1  0.5238440000000  0.4571250000000  0.5849380000000 1.0
C      1  0.5974020000000  0.5455880000000  0.5162700000000 1.0
C      1  0.5381850000000  0.4047920000000  0.4420110000000 1.0
C      1  0.5713240000000  0.4127790000000  0.4957810000000 1.0
C      1  0.4951730000000  0.4871020000000  0.5482880000000 1.0
C      1  0.4581490000000  0.5268360000000  0.4727620000000 1.0
C      1  0.4197560000000  0.4958530000000  0.4693520000000 1.0
C      1  0.4690690000000  0.5461940000000  0.6155070000000 1.0
C      1  0.4634960000000  0.3699960000000  0.4969470000000 1.0
C      1  0.4823840000000  0.6059490000000  0.5036640000000 1.0
C      1  0.5014890000000  0.4468910000000  0.5190970000000 1.0
C      1  0.3938900000000  0.4949290000000  0.5184120000000 1.0
C      1  0.5002580000000  0.3952440000000  0.5611170000000 1.0
C      1  0.5494340000000  0.5246900000000  0.4580600000000 1.0
C      1  0.5145120000000  0.4088370000000  0.4255290000000 1.0
C      1  0.4165410000000  0.5808580000000  0.4665030000000 1.0
C      1  0.5070220000000  0.3747820000000  0.5785010000000 1.0
C      1  0.5507750000000  0.4511170000000  0.5784670000000 1.0
C      1  0.4476610000000  0.5038990000000  0.5729600000000 1.0
C      1  0.4452360000000  0.5740380000000  0.5863220000000 1.0
C      1  0.4138170000000  0.4446700000000  0.5499800000000 1.0
C      1  0.5228450000000  0.5868710000000  0.5584870000000 1.0
C      1  0.5034490000000  0.5378590000000  0.4559380000000 1.0
C      1  0.5146090000000  0.5701270000000  0.6051550000000 1.0
C      1  0.4054190000000  0.5401870000000  0.5382650000000 1.0
C      1  0.4728500000000  0.5048070000000  0.5587940000000 1.0
C      1  0.4612960000000  0.5990630000000  0.4826260000000 1.0
C      1  0.4449000000000  0.4334760000000  0.5917110000000 1.0
C      1  0.5534630000000  0.5498790000000  0.5814890000000 1.0
C      1  0.4833120000000  0.4652840000000  0.6051210000000 1.0
C      1  0.4251580000000  0.4623340000000  0.3939240000000 1.0
C      1  0.4447190000000  0.5711000000000  0.4210000000000 1.0
C      1  0.4884030000000  0.4022270000000  0.4771850000000 1.0
C      1  0.4860620000000  0.5315190000000  0.4807550000000 1.0
C      1  0.4101640000000  0.5115410000000  0.4478790000000 1.0
C      1  0.6767310000000  0.5999700000000  0.4487710000000 1.0
C      1  0.4391740000000  0.5694980000000  0.5113370000000 1.0
C      1  0.4119360000000  0.5342220000000  0.5651440000000 1.0
C      1  0.5673770000000  0.5516820000000  0.4139300000000 1.0
C      1  0.5888240000000  0.4326170000000  0.5032230000000 1.0
C      1  0.5873330000000  0.4756740000000  0.4657630000000 1.0
C      1  0.4861510000000  0.4014380000000  0.4315680000000 1.0
C      1  0.5139970000000  0.5681390000000  0.5050870000000 1.0
C      1  0.4389760000000  0.5102820000000  0.4854620000000 1.0
C      1  0.5933020000000  0.5498350000000  0.4641600000000 1.0
C      1  0.5660430000000  0.5955110000000  0.4244180000000 1.0
C      1  0.4423490000000  0.4619430000000  0.4154080000000 1.0
C      1  0.5290740000000  0.3950920000000  0.5187140000000 1.0
C      1  0.5069040000000  0.4435340000000  0.5659380000000 1.0
C      1  0.6532820000000  0.5887610000000  0.4467320000000 1.0
C      1  0.5339230000000  0.3927420000000  0.4679700000000 1.0
C      1  0.4936430000000  0.5055620000000  0.4939840000000 1.0
C      1  0.4574430000000  0.4860770000000  0.4228490000000 1.0
C      1  0.4041150000000  0.5168060000000  0.3989520000000 1.0
C      1  0.5102080000000  0.4287720000000  0.4040950000000 1.0
C      1  0.4745380000000  0.5874360000000  0.4582990000000 1.0
C      1  0.5183060000000  0.4618090000000  0.4585330000000 1.0
C      1  0.5552050000000  0.4781630000000  0.4278600000000 1.0
C      1  0.5631140000000  0.4165340000000  0.4357630000000 1.0
C      1  0.4873740000000  0.6114000000000  0.5311620000000 1.0
C      1  0.4469280000000  0.4358240000000  0.4292430000000 1.0
C      1  0.5073700000000  0.3845710000000  0.4713410000000 1.0
C      1  0.5227920000000  0.4964280000000  0.5424700000000 1.0
C      1  0.5772050000000  0.5283720000000  0.4548840000000 1.0
C      1  0.5462580000000  0.3975040000000  0.4934140000000 1.0
C      1  0.4933410000000  0.5581400000000  0.6166030000000 1.0
C      1  0.3985150000000  0.5060580000000  0.4230610000000 1.0
C      1  0.5479360000000  0.5008540000000  0.4116400000000 1.0
C      1  0.4732080000000  0.4316870000000  0.5906920000000 1.0
C      1  0.4663370000000  0.4179570000000  0.4173590000000 1.0
C      1  0.5806730000000  0.5576090000000  0.5379260000000 1.0
C      1  0.4924300000000  0.4205040000000  0.5731870000000 1.0
C      1  0.4810680000000  0.5324010000000  0.5593290000000 1.0
C      1  0.5655820000000  0.4853660000000  0.4796820000000 1.0
C      1  0.4616420000000  0.5661590000000  0.4436570000000 1.0
C      1  0.5329560000000  0.5207640000000  0.5330820000000 1.0
C      1  0.5243310000000  0.5127920000000  0.4033050000000 1.0
C      1  0.5798640000000  0.4376290000000  0.4354890000000 1.0
C      1  0.4031910000000  0.5545550000000  0.4705340000000 1.0
C      1  0.4589170000000  0.5766150000000  0.5632360000000 1.0
C      1  0.6007960000000  0.4583560000000  0.5092590000000 1.0
C      1  0.4440130000000  0.3833630000000  0.4822780000000 1.0
C      1  0.4477550000000  0.5049240000000  0.5115350000000 1.0
C      1  0.5463740000000  0.4819000000000  0.5469720000000 1.0
C      1  0.4464360000000  0.5483520000000  0.5985150000000 1.0
C      1  0.5398010000000  0.5234640000000  0.4864130000000 1.0
C      1  0.4185780000000  0.5384470000000  0.4521030000000 1.0
C      1  0.4293040000000  0.4835000000000  0.5716930000000 1.0
C      1  0.6292500000000  0.5777650000000  0.4448720000000 1.0
C      1  0.5557130000000  0.4562900000000  0.5507100000000 1.0
C      1  0.4347490000000  0.5281850000000  0.5816380000000 1.0
C      1  0.5984800000000  0.5021560000000  0.5411260000000 1.0
C      1  0.4127970000000  0.4447390000000  0.5207780000000 1.0
C      1  0.5436280000000  0.4131130000000  0.5358190000000 1.0
C      1  0.4715090000000  0.4805700000000  0.4467520000000 1.0
C      1  0.5997620000000  0.4736720000000  0.5342760000000 1.0
END
