TITL C-599891-72-859 -0.012492467270884 125000 -812.447100971519 0 0 132 (C1) n - 1
REM
REM in /home/nfs/bkarasulu/CARBON/AIRSS/Generating-Clusters/TERSOFF/Only-C1/FIRE-HFTN
REM
REM
REM
REM
REM
REM ./C.cell (11c1c37f851c82e70ff6c80c92926a4b)
REM AIRSS Version 0.9.1 bugfix July 2018 build 013d7b7c2542+ Fri, 06 Jul 2018 19:26:36 +0100
REM compiler GCC version 9.2.1 20190827 (Red Hat 9.2.1-1)
REM options -cpp -mtune=generic -march=x86-64 -g -O0 -fpre-include=/usr/include/finclude/math-vector-fortran.h
REM seed -2034837470 -2108696219 -335483888 -1878152801 -1959418326 -144376910 488959517 397357333 178010733 -868113039 1510685328 -158396611 228538649 1563179187 -1737358237 985089787 -1090570990 -791731082 -663834626 -897208319 -112590033 1227425324 323217522 -1939807674 12689505 -1971469755 1272819407 1665901064 704748772 1132530568 -1431615394 1357102207 423542502
REM
CELL 1.54180   50.00000   50.00000   50.00000   90.00000   90.00000   90.00000
LATT -1
SFAC C  
C      1  0.5871960000000  0.5490390000000  0.5357580000000 1.0
C      1  0.4779710000000  0.5685120000000  0.4369260000000 1.0
C      1  0.5626240000000  0.5805990000000  0.5056770000000 1.0
C      1  0.5221230000000  0.4601100000000  0.5102110000000 1.0
C      1  0.5719380000000  0.4849590000000  0.5408240000000 1.0
C      1  0.4677310000000  0.5690650000000  0.4835970000000 1.0
C      1  0.5488110000000  0.5429000000000  0.4097460000000 1.0
C      1  0.4078620000000  0.5254060000000  0.4958270000000 1.0
C      1  0.5132000000000  0.5099410000000  0.5874980000000 1.0
C      1  0.4116320000000  0.5486490000000  0.5365790000000 1.0
C      1  0.5422180000000  0.5251490000000  0.5519260000000 1.0
C      1  0.5976770000000  0.5520600000000  0.5615520000000 1.0
C      1  0.5714780000000  0.4484710000000  0.4497330000000 1.0
C      1  0.4819240000000  0.6172740000000  0.4902680000000 1.0
C      1  0.4342670000000  0.5506440000000  0.4247370000000 1.0
C      1  0.5811370000000  0.4400500000000  0.5237670000000 1.0
C      1  0.5171260000000  0.4402220000000  0.5707960000000 1.0
C      1  0.4763250000000  0.4509510000000  0.4712170000000 1.0
C      1  0.4658180000000  0.4919720000000  0.5318670000000 1.0
C      1  0.4745700000000  0.6041570000000  0.5145460000000 1.0
C      1  0.4785190000000  0.5863520000000  0.5861210000000 1.0
C      1  0.4157730000000  0.5700240000000  0.5165840000000 1.0
C      1  0.5391040000000  0.5481060000000  0.5348400000000 1.0
C      1  0.4935750000000  0.4965540000000  0.4924920000000 1.0
C      1  0.5376250000000  0.5504930000000  0.5959930000000 1.0
C      1  0.5040980000000  0.4067840000000  0.4455560000000 1.0
C      1  0.5140750000000  0.5615280000000  0.6066530000000 1.0
C      1  0.4811730000000  0.3859930000000  0.4849760000000 1.0
C      1  0.4815340000000  0.4781130000000  0.4739560000000 1.0
C      1  0.5356980000000  0.3678350000000  0.4262180000000 1.0
C      1  0.4745120000000  0.5071250000000  0.5108810000000 1.0
C      1  0.4645030000000  0.4960590000000  0.4579030000000 1.0
C      1  0.5802350000000  0.4367220000000  0.4753190000000 1.0
C      1  0.4661290000000  0.5522670000000  0.5238440000000 1.0
C      1  0.4298880000000  0.4518130000000  0.3234350000000 1.0
C      1  0.5325580000000  0.5285010000000  0.5789040000000 1.0
C      1  0.4716850000000  0.5376690000000  0.5928450000000 1.0
C      1  0.5529010000000  0.4795940000000  0.4806010000000 1.0
C      1  0.4511330000000  0.4702170000000  0.5984550000000 1.0
C      1  0.5649040000000  0.5642570000000  0.4803950000000 1.0
C      1  0.6018260000000  0.5337810000000  0.4677500000000 1.0
C      1  0.5624980000000  0.5640750000000  0.5295930000000 1.0
C      1  0.4822760000000  0.4030800000000  0.4627800000000 1.0
C      1  0.3907640000000  0.4835660000000  0.5526910000000 1.0
C      1  0.4390290000000  0.4965460000000  0.4742790000000 1.0
C      1  0.5075920000000  0.4387200000000  0.5223880000000 1.0
C      1  0.4983070000000  0.3884360000000  0.5296260000000 1.0
C      1  0.5550720000000  0.5223020000000  0.4519050000000 1.0
C      1  0.3973140000000  0.5272770000000  0.5225390000000 1.0
C      1  0.5911150000000  0.4961790000000  0.5220810000000 1.0
C      1  0.4469380000000  0.5428970000000  0.5787060000000 1.0
C      1  0.5641500000000  0.5589110000000  0.5987560000000 1.0
C      1  0.4552560000000  0.4787000000000  0.3950410000000 1.0
C      1  0.5456030000000  0.4123390000000  0.5386210000000 1.0
C      1  0.4924900000000  0.4472720000000  0.4204420000000 1.0
C      1  0.5198090000000  0.3864410000000  0.4351870000000 1.0
C      1  0.4356490000000  0.4258310000000  0.5006180000000 1.0
C      1  0.5789930000000  0.4901780000000  0.4768110000000 1.0
C      1  0.5514950000000  0.5464960000000  0.4373890000000 1.0
C      1  0.5316420000000  0.4608420000000  0.4832930000000 1.0
C      1  0.5681630000000  0.4557450000000  0.5453600000000 1.0
C      1  0.5477010000000  0.4994240000000  0.5392460000000 1.0
C      1  0.5462190000000  0.5681250000000  0.4558670000000 1.0
C      1  0.4351690000000  0.5267960000000  0.4124530000000 1.0
C      1  0.5097240000000  0.5410420000000  0.4936400000000 1.0
C      1  0.5812010000000  0.5135250000000  0.4607800000000 1.0
C      1  0.5671980000000  0.4137040000000  0.4887670000000 1.0
C      1  0.4443500000000  0.5028480000000  0.4047890000000 1.0
C      1  0.4729260000000  0.4491890000000  0.5533690000000 1.0
C      1  0.5466380000000  0.4610180000000  0.4389790000000 1.0
C      1  0.4053810000000  0.4713140000000  0.5729290000000 1.0
C      1  0.5432890000000  0.4754820000000  0.3770490000000 1.0
C      1  0.4483850000000  0.5685900000000  0.4413960000000 1.0
C      1  0.5875760000000  0.5575870000000  0.5857960000000 1.0
C      1  0.5155210000000  0.5142440000000  0.4855320000000 1.0
C      1  0.5652540000000  0.4159180000000  0.5177360000000 1.0
C      1  0.6129870000000  0.5294460000000  0.4941310000000 1.0
C      1  0.5080750000000  0.4834250000000  0.5494040000000 1.0
C      1  0.4863810000000  0.5423760000000  0.4488060000000 1.0
C      1  0.4745820000000  0.4633890000000  0.4087810000000 1.0
C      1  0.5947820000000  0.4798180000000  0.4981120000000 1.0
C      1  0.5083050000000  0.4342840000000  0.4401600000000 1.0
C      1  0.4446140000000  0.4480440000000  0.5561920000000 1.0
C      1  0.3901830000000  0.4979540000000  0.5274280000000 1.0
C      1  0.4867530000000  0.6110500000000  0.4642330000000 1.0
C      1  0.5451660000000  0.5203880000000  0.3954220000000 1.0
C      1  0.4380570000000  0.4605210000000  0.3466100000000 1.0
C      1  0.5919080000000  0.4514580000000  0.4992310000000 1.0
C      1  0.5265390000000  0.4828650000000  0.5284590000000 1.0
C      1  0.4666440000000  0.5773530000000  0.5104260000000 1.0
C      1  0.5299500000000  0.5115060000000  0.4610590000000 1.0
C      1  0.4960470000000  0.5904210000000  0.4464970000000 1.0
C      1  0.4388240000000  0.4889080000000  0.5374600000000 1.0
C      1  0.5258240000000  0.4493370000000  0.4568940000000 1.0
C      1  0.4650900000000  0.4259020000000  0.4641390000000 1.0
C      1  0.4760600000000  0.3921650000000  0.5123040000000 1.0
C      1  0.5449400000000  0.4369890000000  0.5571330000000 1.0
C      1  0.5921360000000  0.5610830000000  0.4661060000000 1.0
C      1  0.5328670000000  0.4832250000000  0.4240730000000 1.0
C      1  0.4571210000000  0.5294480000000  0.5070140000000 1.0
C      1  0.4214940000000  0.4755140000000  0.4892740000000 1.0
C      1  0.4293270000000  0.4529150000000  0.5067110000000 1.0
C      1  0.4521210000000  0.4078850000000  0.5164250000000 1.0
C      1  0.5406430000000  0.4925930000000  0.3981580000000 1.0
C      1  0.4282210000000  0.5368790000000  0.5580480000000 1.0
C      1  0.5656230000000  0.5352250000000  0.4957370000000 1.0
C      1  0.5067450000000  0.4624120000000  0.5892290000000 1.0
C      1  0.5240070000000  0.5844060000000  0.4497060000000 1.0
C      1  0.4213930000000  0.5751360000000  0.4897180000000 1.0
C      1  0.5134500000000  0.5007120000000  0.4393150000000 1.0
C      1  0.4348460000000  0.5217380000000  0.4894190000000 1.0
C      1  0.4286350000000  0.5088200000000  0.5537340000000 1.0
C      1  0.4908700000000  0.5482600000000  0.5370220000000 1.0
C      1  0.4768900000000  0.6045120000000  0.5666200000000 1.0
C      1  0.4855330000000  0.5132780000000  0.4430390000000 1.0
C      1  0.4463660000000  0.4693660000000  0.3701620000000 1.0
C      1  0.4849880000000  0.5111970000000  0.5967590000000 1.0
C      1  0.4872480000000  0.5620370000000  0.5976390000000 1.0
C      1  0.5238310000000  0.3940560000000  0.5366930000000 1.0
C      1  0.4388610000000  0.4214500000000  0.4729060000000 1.0
C      1  0.3977920000000  0.4871150000000  0.5012520000000 1.0
C      1  0.5907070000000  0.5266340000000  0.5151090000000 1.0
C      1  0.5176070000000  0.4849070000000  0.5758420000000 1.0
C      1  0.4425500000000  0.5723320000000  0.4697730000000 1.0
C      1  0.4766420000000  0.6125790000000  0.5411240000000 1.0
C      1  0.4774480000000  0.4804410000000  0.6006030000000 1.0
C      1  0.5144770000000  0.5484800000000  0.5210580000000 1.0
C      1  0.4818710000000  0.4758530000000  0.5464590000000 1.0
C      1  0.4321340000000  0.4610500000000  0.5334860000000 1.0
C      1  0.4318630000000  0.4603220000000  0.5796640000000 1.0
C      1  0.4891240000000  0.5512920000000  0.4766240000000 1.0
C      1  0.4970900000000  0.4346920000000  0.5494100000000 1.0
END
