TITL C-599892-9790-212 2.10781303772676 125000 -1002.87365627218 0 0 165 (C1) n - 1
REM
REM in /home/nfs/bkarasulu/CARBON/AIRSS/Generating-Clusters/TERSOFF/Only-C1/FIRE-HFTN
REM
REM
REM
REM
REM
REM ./C.cell (11c1c37f851c82e70ff6c80c92926a4b)
REM AIRSS Version 0.9.1 bugfix July 2018 build 013d7b7c2542+ Fri, 06 Jul 2018 19:26:36 +0100
REM compiler GCC version 9.2.1 20190827 (Red Hat 9.2.1-1)
REM options -cpp -mtune=generic -march=x86-64 -g -O0 -fpre-include=/usr/include/finclude/math-vector-fortran.h
REM seed -917785644 1368231505 1314591301 -1653273291 2069627234 -1053840343 -999692107 2065567703 1692476262 1015982176 1618965303 -1932412770 121440257 1066366225 -498233889 -431710404 424158164 975422842 -1243518508 400531400 -1771515361 -1527717578 -814980527 -1568755010 1039201833 267777337 1405825566 -765805383 305193483 -1172474404 -1910688173 461830604 912509451
REM
CELL 1.54180   50.00000   50.00000   50.00000   90.00000   90.00000   90.00000
LATT -1
SFAC C  
C      1  0.5635920000000  0.4294530000000  0.5194960000000 1.0
C      1  0.3838820000000  0.4833950000000  0.4398490000000 1.0
C      1  0.6011990000000  0.4870750000000  0.5399680000000 1.0
C      1  0.4694150000000  0.6216610000000  0.5005710000000 1.0
C      1  0.4195860000000  0.4338010000000  0.5380730000000 1.0
C      1  0.5006650000000  0.4469900000000  0.5051410000000 1.0
C      1  0.4300530000000  0.5683760000000  0.4550760000000 1.0
C      1  0.4358420000000  0.5722060000000  0.6100900000000 1.0
C      1  0.5317670000000  0.5604850000000  0.6025060000000 1.0
C      1  0.4830430000000  0.4672680000000  0.4201590000000 1.0
C      1  0.5476250000000  0.6219730000000  0.4312670000000 1.0
C      1  0.6018440000000  0.5083500000000  0.4457370000000 1.0
C      1  0.4934570000000  0.5578120000000  0.3885620000000 1.0
C      1  0.4921450000000  0.6295220000000  0.4847540000000 1.0
C      1  0.5501460000000  0.5045320000000  0.5246720000000 1.0
C      1  0.5284840000000  0.4714130000000  0.3956020000000 1.0
C      1  0.6134460000000  0.4010910000000  0.4929470000000 1.0
C      1  0.5001040000000  0.5306290000000  0.3836610000000 1.0
C      1  0.5384170000000  0.6103930000000  0.4796780000000 1.0
C      1  0.4396310000000  0.4253840000000  0.5569940000000 1.0
C      1  0.5634440000000  0.5063230000000  0.4062000000000 1.0
C      1  0.4677710000000  0.4951100000000  0.5636720000000 1.0
C      1  0.4927170000000  0.5170600000000  0.3612860000000 1.0
C      1  0.4305700000000  0.5187850000000  0.4449600000000 1.0
C      1  0.4467470000000  0.3984110000000  0.5586520000000 1.0
C      1  0.4156330000000  0.4618960000000  0.5390500000000 1.0
C      1  0.5792110000000  0.2458190000000  0.4469770000000 1.0
C      1  0.5029850000000  0.5117190000000  0.4289660000000 1.0
C      1  0.3762310000000  0.4688090000000  0.4638660000000 1.0
C      1  0.5112520000000  0.6090490000000  0.5219890000000 1.0
C      1  0.4562550000000  0.4836880000000  0.4173880000000 1.0
C      1  0.3861080000000  0.5496060000000  0.5120140000000 1.0
C      1  0.5032470000000  0.4656380000000  0.5280610000000 1.0
C      1  0.4077490000000  0.5162290000000  0.5363790000000 1.0
C      1  0.4529770000000  0.4275490000000  0.4264670000000 1.0
C      1  0.4469500000000  0.4736150000000  0.5717100000000 1.0
C      1  0.5845390000000  0.2702270000000  0.4544280000000 1.0
C      1  0.5305260000000  0.5181000000000  0.5057950000000 1.0
C      1  0.6271190000000  0.4407220000000  0.4706410000000 1.0
C      1  0.4902790000000  0.5023930000000  0.4820390000000 1.0
C      1  0.4991630000000  0.4850280000000  0.4388110000000 1.0
C      1  0.5089900000000  0.3969160000000  0.5089310000000 1.0
C      1  0.5169310000000  0.6079280000000  0.5694700000000 1.0
C      1  0.6086190000000  0.5353530000000  0.4855210000000 1.0
C      1  0.5487040000000  0.5547480000000  0.4078470000000 1.0
C      1  0.5430010000000  0.5766740000000  0.5425660000000 1.0
C      1  0.4151110000000  0.5439450000000  0.4490500000000 1.0
C      1  0.5834250000000  0.5560190000000  0.5257140000000 1.0
C      1  0.4412350000000  0.6224980000000  0.5005160000000 1.0
C      1  0.4530780000000  0.4452060000000  0.5741340000000 1.0
C      1  0.4821400000000  0.6071920000000  0.5230120000000 1.0
C      1  0.3945230000000  0.4451620000000  0.4648850000000 1.0
C      1  0.4199460000000  0.6075660000000  0.4854760000000 1.0
C      1  0.4207410000000  0.4756300000000  0.5148460000000 1.0
C      1  0.5407040000000  0.6030130000000  0.4138670000000 1.0
C      1  0.5161220000000  0.4239380000000  0.6169780000000 1.0
C      1  0.4092860000000  0.4226640000000  0.5131410000000 1.0
C      1  0.4467380000000  0.5507880000000  0.5958260000000 1.0
C      1  0.4490230000000  0.6193770000000  0.6097060000000 1.0
C      1  0.5591890000000  0.5536900000000  0.5397210000000 1.0
C      1  0.5375530000000  0.4332510000000  0.5299960000000 1.0
C      1  0.4555840000000  0.5238730000000  0.5554570000000 1.0
C      1  0.4202890000000  0.4776100000000  0.5622010000000 1.0
C      1  0.4381130000000  0.5435480000000  0.5693130000000 1.0
C      1  0.6098960000000  0.5099140000000  0.4733120000000 1.0
C      1  0.5508410000000  0.4801130000000  0.5436870000000 1.0
C      1  0.5899570000000  0.2950430000000  0.4620040000000 1.0
C      1  0.4173110000000  0.5590170000000  0.5537790000000 1.0
C      1  0.4549130000000  0.5654930000000  0.4679910000000 1.0
C      1  0.4494330000000  0.4631500000000  0.4774840000000 1.0
C      1  0.3646290000000  0.4848680000000  0.4837030000000 1.0
C      1  0.4985120000000  0.6146370000000  0.5875200000000 1.0
C      1  0.4546530000000  0.3735940000000  0.5594920000000 1.0
C      1  0.4892260000000  0.5318230000000  0.4444220000000 1.0
C      1  0.5172680000000  0.6195530000000  0.4956420000000 1.0
C      1  0.5550330000000  0.4819230000000  0.3927850000000 1.0
C      1  0.5869050000000  0.5089210000000  0.4229130000000 1.0
C      1  0.5457760000000  0.5833200000000  0.4810630000000 1.0
C      1  0.5470180000000  0.5109170000000  0.4612440000000 1.0
C      1  0.5184090000000  0.4975670000000  0.5727710000000 1.0
C      1  0.4914140000000  0.4291740000000  0.6088950000000 1.0
C      1  0.5502380000000  0.5273690000000  0.5470970000000 1.0
C      1  0.4708890000000  0.4367030000000  0.5939360000000 1.0
C      1  0.5711190000000  0.4165670000000  0.4744460000000 1.0
C      1  0.4674810000000  0.5617940000000  0.4910990000000 1.0
C      1  0.6205630000000  0.4285230000000  0.4952980000000 1.0
C      1  0.5160370000000  0.5196100000000  0.4049520000000 1.0
C      1  0.6155690000000  0.4885930000000  0.4917810000000 1.0
C      1  0.4010380000000  0.5986250000000  0.5059640000000 1.0
C      1  0.4140820000000  0.6006500000000  0.5801440000000 1.0
C      1  0.5415440000000  0.5293930000000  0.4817560000000 1.0
C      1  0.6282390000000  0.3785310000000  0.5012440000000 1.0
C      1  0.5035420000000  0.5700140000000  0.4123190000000 1.0
C      1  0.4276700000000  0.4598730000000  0.4929680000000 1.0
C      1  0.5999010000000  0.5505760000000  0.5055450000000 1.0
C      1  0.6010360000000  0.3457840000000  0.4774960000000 1.0
C      1  0.5037200000000  0.5112380000000  0.5045440000000 1.0
C      1  0.4099180000000  0.4755910000000  0.4304810000000 1.0
C      1  0.5474760000000  0.6253520000000  0.4577730000000 1.0
C      1  0.4202160000000  0.5035080000000  0.5141580000000 1.0
C      1  0.6100640000000  0.4444420000000  0.5167270000000 1.0
C      1  0.4316350000000  0.4942500000000  0.4284430000000 1.0
C      1  0.4111750000000  0.4475860000000  0.4400490000000 1.0
C      1  0.6229330000000  0.3528820000000  0.4941290000000 1.0
C      1  0.4895830000000  0.4534150000000  0.3725580000000 1.0
C      1  0.4768620000000  0.4405520000000  0.4331370000000 1.0
C      1  0.5659870000000  0.4265290000000  0.6035270000000 1.0
C      1  0.4904900000000  0.4346820000000  0.4574230000000 1.0
C      1  0.5652080000000  0.4376230000000  0.4920160000000 1.0
C      1  0.4322050000000  0.6591900000000  0.6420080000000 1.0
C      1  0.5663920000000  0.4900110000000  0.5019850000000 1.0
C      1  0.5782530000000  0.4741820000000  0.5524490000000 1.0
C      1  0.6137320000000  0.5085030000000  0.5514200000000 1.0
C      1  0.4754400000000  0.6187970000000  0.6001110000000 1.0
C      1  0.5953700000000  0.3198420000000  0.4695750000000 1.0
C      1  0.5810370000000  0.4349790000000  0.5833640000000 1.0
C      1  0.4712900000000  0.5834880000000  0.5328370000000 1.0
C      1  0.4673260000000  0.5353270000000  0.5325200000000 1.0
C      1  0.5303300000000  0.4603860000000  0.5392760000000 1.0
C      1  0.5856050000000  0.3684100000000  0.4699280000000 1.0
C      1  0.5664350000000  0.4663090000000  0.4414590000000 1.0
C      1  0.4297760000000  0.6248420000000  0.5275200000000 1.0
C      1  0.3784200000000  0.5357530000000  0.4882430000000 1.0
C      1  0.4913720000000  0.5023940000000  0.5819640000000 1.0
C      1  0.4249810000000  0.4264880000000  0.4273400000000 1.0
C      1  0.4123120000000  0.5874520000000  0.5553650000000 1.0
C      1  0.4101900000000  0.6040570000000  0.5326970000000 1.0
C      1  0.4067850000000  0.5020600000000  0.5608360000000 1.0
C      1  0.4113680000000  0.4056490000000  0.4160640000000 1.0
C      1  0.5342070000000  0.5220340000000  0.5703230000000 1.0
C      1  0.5439010000000  0.5270250000000  0.4058330000000 1.0
C      1  0.5900790000000  0.4542040000000  0.4383210000000 1.0
C      1  0.5007570000000  0.4639980000000  0.3952620000000 1.0
C      1  0.5204340000000  0.5394860000000  0.5894570000000 1.0
C      1  0.3649810000000  0.5109050000000  0.4904420000000 1.0
C      1  0.4311480000000  0.5986790000000  0.6022190000000 1.0
C      1  0.4190570000000  0.5939160000000  0.4607920000000 1.0
C      1  0.4404690000000  0.6399930000000  0.6264400000000 1.0
C      1  0.4749010000000  0.5203120000000  0.4663840000000 1.0
C      1  0.5153590000000  0.4233150000000  0.5140120000000 1.0
C      1  0.6139680000000  0.4476500000000  0.4483370000000 1.0
C      1  0.5893780000000  0.3953580000000  0.4775140000000 1.0
C      1  0.4340680000000  0.5157630000000  0.4933670000000 1.0
C      1  0.5033920000000  0.3721480000000  0.5030820000000 1.0
C      1  0.4089490000000  0.4384050000000  0.4887610000000 1.0
C      1  0.3904990000000  0.5417580000000  0.4632680000000 1.0
C      1  0.4691470000000  0.5593640000000  0.5187930000000 1.0
C      1  0.6117450000000  0.4737610000000  0.5161800000000 1.0
C      1  0.5517580000000  0.4869290000000  0.4503000000000 1.0
C      1  0.4827640000000  0.4808530000000  0.5399210000000 1.0
C      1  0.4470860000000  0.5173720000000  0.4686160000000 1.0
C      1  0.4941400000000  0.5283050000000  0.5951980000000 1.0
C      1  0.5451320000000  0.5568730000000  0.4789120000000 1.0
C      1  0.5255380000000  0.5987310000000  0.5442160000000 1.0
C      1  0.5313670000000  0.5769690000000  0.4110390000000 1.0
C      1  0.5727450000000  0.4690830000000  0.3761900000000 1.0
C      1  0.5882430000000  0.4337480000000  0.5335090000000 1.0
C      1  0.4978290000000  0.4532630000000  0.4775630000000 1.0
C      1  0.4713950000000  0.5408760000000  0.6046490000000 1.0
C      1  0.4931100000000  0.5585930000000  0.4361850000000 1.0
C      1  0.5841760000000  0.4468110000000  0.5585960000000 1.0
C      1  0.5660630000000  0.4657730000000  0.4899120000000 1.0
C      1  0.5425860000000  0.4227200000000  0.6154680000000 1.0
C      1  0.4986280000000  0.4798080000000  0.4672760000000 1.0
C      1  0.4021150000000  0.5436430000000  0.5346580000000 1.0
END
