TITL C-599890-3321-149 4.22889675292073 125000 -362.151101556718 0 0 61 (C1) n - 1
REM
REM in /home/nfs/bkarasulu/CARBON/AIRSS/Generating-Clusters/TERSOFF/Only-C1/FIRE-HFTN
REM
REM
REM
REM
REM
REM ./C.cell (11c1c37f851c82e70ff6c80c92926a4b)
REM AIRSS Version 0.9.1 bugfix July 2018 build 013d7b7c2542+ Fri, 06 Jul 2018 19:26:36 +0100
REM compiler GCC version 9.2.1 20190827 (Red Hat 9.2.1-1)
REM options -cpp -mtune=generic -march=x86-64 -g -O0 -fpre-include=/usr/include/finclude/math-vector-fortran.h
REM seed 2142745797 1528205817 1848717964 -654708344 -2141134581 1621056088 1845985410 376242038 -1132687849 898783970 -1183292179 608850311 -1882866467 881585891 -2016984450 90785831 -1348412499 -490983411 -512499811 -1933158682 1705832402 659814788 1343812176 759144201 -1572085109 211991692 -888913894 -1404455566 839536697 -776305839 -417699721 -688501731 -1456023937
REM
CELL 1.54180   50.00000   50.00000   50.00000   90.00000   90.00000   90.00000
LATT -1
SFAC C  
C      1  0.5382850000000  0.5280710000000  0.5753430000000 1.0
C      1  0.4570130000000  0.5049310000000  0.4128430000000 1.0
C      1  0.4878810000000  0.5115680000000  0.4493630000000 1.0
C      1  0.5172570000000  0.4934880000000  0.5024980000000 1.0
C      1  0.5693080000000  0.5273030000000  0.5361440000000 1.0
C      1  0.4973350000000  0.5030030000000  0.5647040000000 1.0
C      1  0.5669630000000  0.4538980000000  0.5114880000000 1.0
C      1  0.4685270000000  0.5511850000000  0.5481840000000 1.0
C      1  0.4364920000000  0.6212690000000  0.4940280000000 1.0
C      1  0.5687700000000  0.5002070000000  0.5265110000000 1.0
C      1  0.4764470000000  0.4830570000000  0.5638580000000 1.0
C      1  0.5498580000000  0.5415060000000  0.5530440000000 1.0
C      1  0.4461860000000  0.5119580000000  0.3614460000000 1.0
C      1  0.5462340000000  0.4374860000000  0.5019830000000 1.0
C      1  0.4438600000000  0.4875490000000  0.4559070000000 1.0
C      1  0.4866630000000  0.4320120000000  0.5117690000000 1.0
C      1  0.5656090000000  0.4723340000000  0.5343230000000 1.0
C      1  0.4632810000000  0.3874870000000  0.4912460000000 1.0
C      1  0.5652570000000  0.5450170000000  0.4900790000000 1.0
C      1  0.4449350000000  0.4803190000000  0.5045370000000 1.0
C      1  0.5402710000000  0.5082130000000  0.4600890000000 1.0
C      1  0.5555350000000  0.5788310000000  0.5218910000000 1.0
C      1  0.4857890000000  0.4381200000000  0.5392310000000 1.0
C      1  0.4784590000000  0.5319750000000  0.5297290000000 1.0
C      1  0.5338210000000  0.4591310000000  0.4604670000000 1.0
C      1  0.5720270000000  0.4985460000000  0.4963140000000 1.0
C      1  0.5181600000000  0.5109960000000  0.5821880000000 1.0
C      1  0.5502780000000  0.5689300000000  0.4949370000000 1.0
C      1  0.4747990000000  0.4089650000000  0.5016150000000 1.0
C      1  0.4515840000000  0.5084370000000  0.3871560000000 1.0
C      1  0.4517110000000  0.3660580000000  0.4807970000000 1.0
C      1  0.4693610000000  0.5209860000000  0.5057320000000 1.0
C      1  0.4701880000000  0.4929580000000  0.5005350000000 1.0
C      1  0.5457100000000  0.4820570000000  0.4487090000000 1.0
C      1  0.5618380000000  0.4797590000000  0.4267050000000 1.0
C      1  0.5111080000000  0.5745630000000  0.5373960000000 1.0
C      1  0.5203510000000  0.5107120000000  0.5224930000000 1.0
C      1  0.5594510000000  0.5187000000000  0.4794890000000 1.0
C      1  0.5786730000000  0.4711440000000  0.4910750000000 1.0
C      1  0.5000680000000  0.5172220000000  0.5402300000000 1.0
C      1  0.5048850000000  0.5820360000000  0.5096150000000 1.0
C      1  0.5257010000000  0.4449820000000  0.4837020000000 1.0
C      1  0.4833890000000  0.4562410000000  0.5587080000000 1.0
C      1  0.4330940000000  0.4779160000000  0.4789270000000 1.0
C      1  0.4401370000000  0.3446250000000  0.4703440000000 1.0
C      1  0.5136660000000  0.5170940000000  0.4550800000000 1.0
C      1  0.4592160000000  0.6093140000000  0.4985350000000 1.0
C      1  0.4820770000000  0.5968600000000  0.5034450000000 1.0
C      1  0.4287540000000  0.3235450000000  0.4600640000000 1.0
C      1  0.4395560000000  0.5155170000000  0.5662390000000 1.0
C      1  0.4408760000000  0.5154220000000  0.3361580000000 1.0
C      1  0.5388890000000  0.5667830000000  0.5422090000000 1.0
C      1  0.4942440000000  0.4784010000000  0.4969440000000 1.0
C      1  0.4493500000000  0.4908790000000  0.5561300000000 1.0
C      1  0.5232070000000  0.5743180000000  0.4891120000000 1.0
C      1  0.4881710000000  0.5707700000000  0.5537240000000 1.0
C      1  0.4470850000000  0.5414110000000  0.5636200000000 1.0
C      1  0.4379560000000  0.4796970000000  0.5320810000000 1.0
C      1  0.4630390000000  0.5012730000000  0.4399810000000 1.0
C      1  0.5816160000000  0.5424080000000  0.5146240000000 1.0
C      1  0.4997460000000  0.4505630000000  0.4946830000000 1.0
END
