TITL C-599893-4344-779 0.000201271063869138 125000 -593.372088155742 0 0 97 (C1) n - 1
REM
REM in /home/nfs/bkarasulu/CARBON/AIRSS/Generating-Clusters/TERSOFF/Only-C1/FIRE-HFTN
REM
REM
REM
REM
REM
REM ./C.cell (11c1c37f851c82e70ff6c80c92926a4b)
REM AIRSS Version 0.9.1 bugfix July 2018 build 013d7b7c2542+ Fri, 06 Jul 2018 19:26:36 +0100
REM compiler GCC version 9.2.1 20190827 (Red Hat 9.2.1-1)
REM options -cpp -mtune=generic -march=x86-64 -g -O0 -fpre-include=/usr/include/finclude/math-vector-fortran.h
REM seed 1590071294 -58431944 1469091030 -1126485584 486427400 636839869 -2081957300 1972640886 1440785731 -485920510 813587936 -1796682264 1199326313 1332133416 2055878435 -2088548989 1028307133 866382769 -849876528 -882817110 845699208 1063357224 1600467802 1902587836 -229766980 499503288 1584730550 1939282642 535468450 1161068435 -841107703 -74673363 -1065934126
REM
CELL 1.54180   50.00000   50.00000   50.00000   90.00000   90.00000   90.00000
LATT -1
SFAC C  
C      1  0.5260250000000  0.4811110000000  0.4106720000000 1.0
C      1  0.5668300000000  0.5688300000000  0.4643320000000 1.0
C      1  0.4896020000000  0.5135800000000  0.4352870000000 1.0
C      1  0.5107200000000  0.4370900000000  0.4188470000000 1.0
C      1  0.5333660000000  0.5586310000000  0.5485220000000 1.0
C      1  0.4853690000000  0.5582570000000  0.5967490000000 1.0
C      1  0.4953910000000  0.5620400000000  0.4252280000000 1.0
C      1  0.5245550000000  0.5063540000000  0.5471040000000 1.0
C      1  0.5703390000000  0.4825310000000  0.4716720000000 1.0
C      1  0.4989530000000  0.5895670000000  0.5328220000000 1.0
C      1  0.5172610000000  0.4377570000000  0.5338030000000 1.0
C      1  0.4730780000000  0.5023160000000  0.4808500000000 1.0
C      1  0.5317720000000  0.4297180000000  0.4343220000000 1.0
C      1  0.5815330000000  0.5484670000000  0.5086910000000 1.0
C      1  0.4460930000000  0.5042520000000  0.4864000000000 1.0
C      1  0.5104730000000  0.4649860000000  0.5336610000000 1.0
C      1  0.4702520000000  0.4293120000000  0.5515410000000 1.0
C      1  0.4541180000000  0.5440270000000  0.3996690000000 1.0
C      1  0.5516360000000  0.4425830000000  0.4475810000000 1.0
C      1  0.4901790000000  0.5259290000000  0.5175100000000 1.0
C      1  0.4274110000000  0.4769770000000  0.4224120000000 1.0
C      1  0.4256990000000  0.5145170000000  0.4688100000000 1.0
C      1  0.4710470000000  0.4161270000000  0.4846320000000 1.0
C      1  0.5356470000000  0.5522150000000  0.5205530000000 1.0
C      1  0.5028490000000  0.4764560000000  0.5088210000000 1.0
C      1  0.5048830000000  0.5376990000000  0.4372640000000 1.0
C      1  0.4546360000000  0.4488360000000  0.5654280000000 1.0
C      1  0.6057610000000  0.4969530000000  0.5604930000000 1.0
C      1  0.5409590000000  0.5071090000000  0.5246780000000 1.0
C      1  0.5286050000000  0.5383900000000  0.4534300000000 1.0
C      1  0.5504070000000  0.5555240000000  0.4474720000000 1.0
C      1  0.5660940000000  0.5691270000000  0.4926280000000 1.0
C      1  0.5124510000000  0.5863990000000  0.5058470000000 1.0
C      1  0.4059420000000  0.4806260000000  0.4940650000000 1.0
C      1  0.4324360000000  0.5584550000000  0.4886640000000 1.0
C      1  0.4925760000000  0.4867000000000  0.5747080000000 1.0
C      1  0.4395140000000  0.4959400000000  0.5382230000000 1.0
C      1  0.4525280000000  0.5576410000000  0.5079240000000 1.0
C      1  0.5419140000000  0.4326470000000  0.5192400000000 1.0
C      1  0.4081710000000  0.4920640000000  0.4662730000000 1.0
C      1  0.4890200000000  0.5011060000000  0.5040350000000 1.0
C      1  0.5584640000000  0.4702320000000  0.4490300000000 1.0
C      1  0.3939590000000  0.4497780000000  0.4486760000000 1.0
C      1  0.5692520000000  0.4497020000000  0.5695670000000 1.0
C      1  0.4554130000000  0.4357730000000  0.4935130000000 1.0
C      1  0.5099200000000  0.4633270000000  0.4847500000000 1.0
C      1  0.4951200000000  0.5692150000000  0.4903230000000 1.0
C      1  0.4340610000000  0.4862000000000  0.5081750000000 1.0
C      1  0.5367970000000  0.5277820000000  0.5065070000000 1.0
C      1  0.5671880000000  0.5612420000000  0.5845380000000 1.0
C      1  0.5401190000000  0.4115040000000  0.5007580000000 1.0
C      1  0.4997700000000  0.5217110000000  0.5442890000000 1.0
C      1  0.4952610000000  0.4223510000000  0.5432240000000 1.0
C      1  0.4636990000000  0.4538730000000  0.5919490000000 1.0
C      1  0.4468560000000  0.4583770000000  0.5046340000000 1.0
C      1  0.5605580000000  0.5579520000000  0.5583150000000 1.0
C      1  0.4756240000000  0.5031970000000  0.4126580000000 1.0
C      1  0.4769630000000  0.4741510000000  0.4104740000000 1.0
C      1  0.4403120000000  0.4705010000000  0.5536560000000 1.0
C      1  0.5089910000000  0.4593690000000  0.6107180000000 1.0
C      1  0.4517300000000  0.4621230000000  0.4174910000000 1.0
C      1  0.4517060000000  0.5165430000000  0.4039560000000 1.0
C      1  0.5864900000000  0.5207100000000  0.4991780000000 1.0
C      1  0.5199940000000  0.4002840000000  0.4870170000000 1.0
C      1  0.4218130000000  0.5420330000000  0.4702430000000 1.0
C      1  0.4799600000000  0.5095790000000  0.5627350000000 1.0
C      1  0.4874060000000  0.4964010000000  0.4575570000000 1.0
C      1  0.5630540000000  0.4525550000000  0.5190990000000 1.0
C      1  0.4872540000000  0.4688400000000  0.5958040000000 1.0
C      1  0.4530320000000  0.5694090000000  0.5337130000000 1.0
C      1  0.4592930000000  0.5500330000000  0.5545640000000 1.0
C      1  0.4090140000000  0.4734620000000  0.4439700000000 1.0
C      1  0.5076700000000  0.5861120000000  0.4296180000000 1.0
C      1  0.5861500000000  0.4955040000000  0.5149370000000 1.0
C      1  0.5753880000000  0.4606500000000  0.5446800000000 1.0
C      1  0.5144920000000  0.4812580000000  0.5562770000000 1.0
C      1  0.5808700000000  0.5100420000000  0.4722990000000 1.0
C      1  0.4724870000000  0.5611310000000  0.4089520000000 1.0
C      1  0.5341870000000  0.4509830000000  0.6078360000000 1.0
C      1  0.5554020000000  0.4471890000000  0.5921600000000 1.0
C      1  0.4540700000000  0.5193370000000  0.5526060000000 1.0
C      1  0.3898260000000  0.4573790000000  0.4956030000000 1.0
C      1  0.5029330000000  0.4730160000000  0.4605870000000 1.0
C      1  0.5303300000000  0.5263330000000  0.4790870000000 1.0
C      1  0.5720070000000  0.4729840000000  0.4993770000000 1.0
C      1  0.5472450000000  0.4849190000000  0.4272050000000 1.0
C      1  0.4845290000000  0.5591300000000  0.5692880000000 1.0
C      1  0.4939230000000  0.4027430000000  0.4816810000000 1.0
C      1  0.5074740000000  0.5705480000000  0.5540360000000 1.0
C      1  0.5801220000000  0.5531200000000  0.5374600000000 1.0
C      1  0.4279160000000  0.5019680000000  0.4085370000000 1.0
C      1  0.5902050000000  0.4853450000000  0.5414750000000 1.0
C      1  0.5035050000000  0.4631580000000  0.4100410000000 1.0
C      1  0.5398370000000  0.5758640000000  0.5047680000000 1.0
C      1  0.3847390000000  0.4425610000000  0.4732860000000 1.0
C      1  0.4701440000000  0.5930270000000  0.5339910000000 1.0
C      1  0.4793790000000  0.5486440000000  0.5022670000000 1.0
END
