TITL C-599897-7526-612 12.7875049118509 125000 -649.921658118948 0 0 107 (C1) n - 1
REM
REM in /home/nfs/bkarasulu/CARBON/AIRSS/Generating-Clusters/TERSOFF/Only-C1/FIRE-HFTN
REM
REM
REM
REM
REM
REM ./C.cell (11c1c37f851c82e70ff6c80c92926a4b)
REM AIRSS Version 0.9.1 bugfix July 2018 build 013d7b7c2542+ Fri, 06 Jul 2018 19:26:36 +0100
REM compiler GCC version 9.2.1 20190827 (Red Hat 9.2.1-1)
REM options -cpp -mtune=generic -march=x86-64 -g -O0 -fpre-include=/usr/include/finclude/math-vector-fortran.h
REM seed -961893765 -1524449464 -1300579868 1172790347 452637075 1397410925 1661618074 -749406764 -865892908 448610177 -1161057516 -445824794 365781542 1677716683 1184658981 1639464051 764701682 -1699173801 1992283330 -142327502 2078670922 561108707 -87155730 1734118211 58084294 -632765445 6099339 935380621 -1834803385 1378565923 655260408 1500232345 -1374860791
REM
CELL 1.54180   50.00000   50.00000   50.00000   90.00000   90.00000   90.00000
LATT -1
SFAC C  
C      1  0.3907690000000  0.5251960000000  0.5230150000000 1.0
C      1  0.5960660000000  0.4633930000000  0.4981910000000 1.0
C      1  0.5561820000000  0.4525950000000  0.4815200000000 1.0
C      1  0.5252350000000  0.4931470000000  0.5064760000000 1.0
C      1  0.5681170000000  0.4846440000000  0.5396070000000 1.0
C      1  0.4653560000000  0.4064010000000  0.4951280000000 1.0
C      1  0.4649150000000  0.5865330000000  0.3970550000000 1.0
C      1  0.4349600000000  0.5630030000000  0.5128450000000 1.0
C      1  0.4513530000000  0.4163940000000  0.4434440000000 1.0
C      1  0.4984370000000  0.4395490000000  0.4351410000000 1.0
C      1  0.4233400000000  0.4355470000000  0.5054260000000 1.0
C      1  0.4854940000000  0.5188720000000  0.5529730000000 1.0
C      1  0.4580780000000  0.5408990000000  0.4783320000000 1.0
C      1  0.5563360000000  0.4397520000000  0.5291230000000 1.0
C      1  0.4142600000000  0.4769140000000  0.5291100000000 1.0
C      1  0.4835210000000  0.5323600000000  0.4915120000000 1.0
C      1  0.4780560000000  0.5062180000000  0.5074410000000 1.0
C      1  0.5018230000000  0.5488950000000  0.5925340000000 1.0
C      1  0.5567920000000  0.4938430000000  0.4115620000000 1.0
C      1  0.4973000000000  0.4938320000000  0.5988740000000 1.0
C      1  0.5117560000000  0.4369990000000  0.4797580000000 1.0
C      1  0.4700670000000  0.4585080000000  0.4715580000000 1.0
C      1  0.5015780000000  0.4947650000000  0.5484530000000 1.0
C      1  0.5992310000000  0.4843540000000  0.4778130000000 1.0
C      1  0.5079260000000  0.5685650000000  0.5718520000000 1.0
C      1  0.5902630000000  0.5115220000000  0.4839560000000 1.0
C      1  0.5257650000000  0.5296700000000  0.5318160000000 1.0
C      1  0.5040480000000  0.5212310000000  0.4724150000000 1.0
C      1  0.4545100000000  0.5322290000000  0.5897050000000 1.0
C      1  0.4073790000000  0.5412680000000  0.4803790000000 1.0
C      1  0.5374030000000  0.4619390000000  0.4376800000000 1.0
C      1  0.4854020000000  0.4168790000000  0.5381130000000 1.0
C      1  0.5492190000000  0.5396570000000  0.5662880000000 1.0
C      1  0.5351500000000  0.5645250000000  0.5600520000000 1.0
C      1  0.4619160000000  0.5172220000000  0.5680830000000 1.0
C      1  0.5321210000000  0.4229310000000  0.5303130000000 1.0
C      1  0.5916950000000  0.5303000000000  0.5049520000000 1.0
C      1  0.5319100000000  0.5640630000000  0.4624390000000 1.0
C      1  0.4469060000000  0.4933750000000  0.5628100000000 1.0
C      1  0.4673800000000  0.5937040000000  0.4922620000000 1.0
C      1  0.4632710000000  0.5835540000000  0.5447230000000 1.0
C      1  0.3939620000000  0.4789540000000  0.4619160000000 1.0
C      1  0.5034770000000  0.5002370000000  0.4283280000000 1.0
C      1  0.5813260000000  0.5063370000000  0.5515180000000 1.0
C      1  0.5043430000000  0.5267630000000  0.4440940000000 1.0
C      1  0.5349750000000  0.4658120000000  0.5664270000000 1.0
C      1  0.4762550000000  0.5816290000000  0.4200000000000 1.0
C      1  0.4152300000000  0.4782720000000  0.4797990000000 1.0
C      1  0.5350930000000  0.4000640000000  0.4838980000000 1.0
C      1  0.5089090000000  0.4294200000000  0.5492410000000 1.0
C      1  0.4773980000000  0.4826070000000  0.4307050000000 1.0
C      1  0.4907810000000  0.4434680000000  0.4631020000000 1.0
C      1  0.5717800000000  0.4478480000000  0.5047110000000 1.0
C      1  0.4243760000000  0.4978320000000  0.5454560000000 1.0
C      1  0.4144230000000  0.4626310000000  0.5045040000000 1.0
C      1  0.4613780000000  0.4703510000000  0.5726480000000 1.0
C      1  0.4565000000000  0.4904130000000  0.5001960000000 1.0
C      1  0.4937170000000  0.5531590000000  0.5126230000000 1.0
C      1  0.5962530000000  0.4791750000000  0.4486870000000 1.0
C      1  0.5717870000000  0.5331950000000  0.5493410000000 1.0
C      1  0.4789440000000  0.5886840000000  0.4682930000000 1.0
C      1  0.5340120000000  0.5170590000000  0.5777500000000 1.0
C      1  0.5577660000000  0.4599080000000  0.5501950000000 1.0
C      1  0.5693030000000  0.5177880000000  0.4651660000000 1.0
C      1  0.5808080000000  0.4842930000000  0.4261980000000 1.0
C      1  0.5263970000000  0.4929740000000  0.5634340000000 1.0
C      1  0.5467900000000  0.5661590000000  0.4850260000000 1.0
C      1  0.3742520000000  0.4799830000000  0.4449020000000 1.0
C      1  0.5505730000000  0.4912570000000  0.5182120000000 1.0
C      1  0.4545440000000  0.5846160000000  0.5159840000000 1.0
C      1  0.5097270000000  0.5562670000000  0.4453040000000 1.0
C      1  0.5746380000000  0.5450420000000  0.5226450000000 1.0
C      1  0.4776700000000  0.4538230000000  0.4210670000000 1.0
C      1  0.4403570000000  0.4918700000000  0.4749490000000 1.0
C      1  0.5067410000000  0.5777410000000  0.5237380000000 1.0
C      1  0.5213330000000  0.4043180000000  0.5091850000000 1.0
C      1  0.5252030000000  0.5054950000000  0.4814780000000 1.0
C      1  0.5495350000000  0.4708470000000  0.4616240000000 1.0
C      1  0.4913770000000  0.4042040000000  0.5110870000000 1.0
C      1  0.5351620000000  0.5739220000000  0.5317080000000 1.0
C      1  0.4882300000000  0.5756290000000  0.4445150000000 1.0
C      1  0.5273160000000  0.4348270000000  0.4378700000000 1.0
C      1  0.5306230000000  0.4205710000000  0.4644840000000 1.0
C      1  0.4585970000000  0.4053090000000  0.4673000000000 1.0
C      1  0.5478590000000  0.4991540000000  0.4663840000000 1.0
C      1  0.5675110000000  0.5403720000000  0.3986570000000 1.0
C      1  0.4601690000000  0.4809810000000  0.4552820000000 1.0
C      1  0.4913820000000  0.5817020000000  0.5500430000000 1.0
C      1  0.4288030000000  0.5497610000000  0.5385960000000 1.0
C      1  0.5100950000000  0.4506360000000  0.5693290000000 1.0
C      1  0.5301140000000  0.4852500000000  0.4213510000000 1.0
C      1  0.4988830000000  0.5360540000000  0.5352790000000 1.0
C      1  0.4548840000000  0.4356940000000  0.4240840000000 1.0
C      1  0.4447240000000  0.4186780000000  0.5129580000000 1.0
C      1  0.4433060000000  0.5665000000000  0.5572810000000 1.0
C      1  0.5595270000000  0.5151890000000  0.3934130000000 1.0
C      1  0.4144650000000  0.5247620000000  0.5390410000000 1.0
C      1  0.5106550000000  0.5211270000000  0.5953730000000 1.0
C      1  0.4647770000000  0.4627450000000  0.4990400000000 1.0
C      1  0.4331330000000  0.5497440000000  0.4878790000000 1.0
C      1  0.5734900000000  0.5388490000000  0.4472910000000 1.0
C      1  0.5005850000000  0.4921800000000  0.5199800000000 1.0
C      1  0.5739530000000  0.5499180000000  0.4229580000000 1.0
C      1  0.5543520000000  0.5637970000000  0.5126130000000 1.0
C      1  0.3882280000000  0.5315980000000  0.4968590000000 1.0
C      1  0.4572100000000  0.4210720000000  0.5389250000000 1.0
C      1  0.4887460000000  0.4682350000000  0.5833430000000 1.0
END
