TITL C-599897-7526-304 -0.0200469630293024 125000 -586.527256687701 0 0 96 (C1) n - 1
REM
REM in /home/nfs/bkarasulu/CARBON/AIRSS/Generating-Clusters/TERSOFF/Only-C1/FIRE-HFTN
REM
REM
REM
REM
REM
REM ./C.cell (11c1c37f851c82e70ff6c80c92926a4b)
REM AIRSS Version 0.9.1 bugfix July 2018 build 013d7b7c2542+ Fri, 06 Jul 2018 19:26:36 +0100
REM compiler GCC version 9.2.1 20190827 (Red Hat 9.2.1-1)
REM options -cpp -mtune=generic -march=x86-64 -g -O0 -fpre-include=/usr/include/finclude/math-vector-fortran.h
REM seed -969884007 -190756079 1433178276 -749303402 2123417881 619730413 1462303549 1677872598 -309775896 -340522170 204764743 -46338267 -1719416912 1223626541 -1008662675 -351162254 -2046300699 783120289 -1861796656 -1173907492 225873673 -993232279 1588530392 -858612982 1746205512 1982731495 947245877 -1883613684 -1656394450 1921208706 -633375725 1641167855 -640587274
REM
CELL 1.54180   50.00000   50.00000   50.00000   90.00000   90.00000   90.00000
LATT -1
SFAC C  
C      1  0.5308040000000  0.5916520000000  0.4881850000000 1.0
C      1  0.4952950000000  0.3906340000000  0.5357400000000 1.0
C      1  0.5679420000000  0.4412940000000  0.4387570000000 1.0
C      1  0.4286580000000  0.5478670000000  0.4957010000000 1.0
C      1  0.5319790000000  0.4843750000000  0.5270760000000 1.0
C      1  0.4477340000000  0.5640930000000  0.4800280000000 1.0
C      1  0.4744170000000  0.5686410000000  0.5257140000000 1.0
C      1  0.4889700000000  0.4661760000000  0.4837890000000 1.0
C      1  0.5747900000000  0.4619030000000  0.4578510000000 1.0
C      1  0.5418980000000  0.4311390000000  0.4418210000000 1.0
C      1  0.5680220000000  0.5618240000000  0.5368250000000 1.0
C      1  0.5198640000000  0.3850530000000  0.5236140000000 1.0
C      1  0.4948550000000  0.4787790000000  0.5627450000000 1.0
C      1  0.5755950000000  0.4546340000000  0.4848630000000 1.0
C      1  0.4872590000000  0.4335070000000  0.5648890000000 1.0
C      1  0.5935310000000  0.4966820000000  0.4298770000000 1.0
C      1  0.4905440000000  0.4668180000000  0.5120800000000 1.0
C      1  0.5429350000000  0.3947890000000  0.5145730000000 1.0
C      1  0.5478880000000  0.5019750000000  0.4493180000000 1.0
C      1  0.6009610000000  0.4562200000000  0.4040670000000 1.0
C      1  0.4573110000000  0.5923590000000  0.4776650000000 1.0
C      1  0.4922350000000  0.5328170000000  0.5516800000000 1.0
C      1  0.5583860000000  0.4157410000000  0.5090690000000 1.0
C      1  0.5273260000000  0.4879130000000  0.4625930000000 1.0
C      1  0.4002240000000  0.4553900000000  0.5086890000000 1.0
C      1  0.4845590000000  0.5967020000000  0.4655940000000 1.0
C      1  0.4278860000000  0.5068670000000  0.5259470000000 1.0
C      1  0.4615420000000  0.4422710000000  0.5547360000000 1.0
C      1  0.5612480000000  0.4434270000000  0.5062200000000 1.0
C      1  0.4021600000000  0.4539070000000  0.4372550000000 1.0
C      1  0.4522780000000  0.6057050000000  0.5024680000000 1.0
C      1  0.5359470000000  0.5497470000000  0.4389640000000 1.0
C      1  0.5204570000000  0.4408160000000  0.4548400000000 1.0
C      1  0.5537880000000  0.4755290000000  0.5794090000000 1.0
C      1  0.4465310000000  0.3934440000000  0.5150360000000 1.0
C      1  0.4444610000000  0.4601560000000  0.5433350000000 1.0
C      1  0.4968040000000  0.5358060000000  0.6013840000000 1.0
C      1  0.6051410000000  0.4822090000000  0.4102190000000 1.0
C      1  0.4380520000000  0.4880800000000  0.5454220000000 1.0
C      1  0.5055720000000  0.4545290000000  0.5725070000000 1.0
C      1  0.5699350000000  0.4960730000000  0.5717610000000 1.0
C      1  0.4086990000000  0.5036780000000  0.5036500000000 1.0
C      1  0.4656790000000  0.4743610000000  0.4696120000000 1.0
C      1  0.4268860000000  0.5220630000000  0.4358910000000 1.0
C      1  0.5744920000000  0.5093190000000  0.5252410000000 1.0
C      1  0.4727870000000  0.5504880000000  0.4800810000000 1.0
C      1  0.4499650000000  0.4976480000000  0.5695630000000 1.0
C      1  0.5117790000000  0.5382480000000  0.5018920000000 1.0
C      1  0.5138630000000  0.5908810000000  0.4639470000000 1.0
C      1  0.5124530000000  0.4644730000000  0.4678180000000 1.0
C      1  0.5453760000000  0.4602010000000  0.5220510000000 1.0
C      1  0.5904420000000  0.5216640000000  0.5051560000000 1.0
C      1  0.5587250000000  0.5859160000000  0.4933930000000 1.0
C      1  0.4891430000000  0.5230570000000  0.5781020000000 1.0
C      1  0.4094890000000  0.4305200000000  0.5106980000000 1.0
C      1  0.5142050000000  0.5838970000000  0.5096370000000 1.0
C      1  0.4651160000000  0.5025110000000  0.4145850000000 1.0
C      1  0.3795270000000  0.4792880000000  0.4729130000000 1.0
C      1  0.4581430000000  0.5917050000000  0.5251210000000 1.0
C      1  0.5913840000000  0.5478440000000  0.4976170000000 1.0
C      1  0.4917110000000  0.5174590000000  0.5024400000000 1.0
C      1  0.5109640000000  0.5066660000000  0.3928610000000 1.0
C      1  0.4775850000000  0.4973040000000  0.5762460000000 1.0
C      1  0.4707600000000  0.3858320000000  0.5230400000000 1.0
C      1  0.4490000000000  0.4557110000000  0.4571040000000 1.0
C      1  0.5733840000000  0.4890290000000  0.4481650000000 1.0
C      1  0.4278640000000  0.4487930000000  0.4424620000000 1.0
C      1  0.4851980000000  0.5016350000000  0.3972540000000 1.0
C      1  0.3948620000000  0.4801560000000  0.4965570000000 1.0
C      1  0.5328700000000  0.4579970000000  0.5803600000000 1.0
C      1  0.5340870000000  0.5336590000000  0.5182650000000 1.0
C      1  0.5847190000000  0.4384790000000  0.4163530000000 1.0
C      1  0.5404330000000  0.5555610000000  0.5360860000000 1.0
C      1  0.4933500000000  0.5607550000000  0.5464390000000 1.0
C      1  0.4629430000000  0.5022700000000  0.4634190000000 1.0
C      1  0.4048680000000  0.5335820000000  0.4279960000000 1.0
C      1  0.5462270000000  0.5082690000000  0.5210100000000 1.0
C      1  0.5186900000000  0.5737030000000  0.5373250000000 1.0
C      1  0.5236410000000  0.5728610000000  0.4443890000000 1.0
C      1  0.5022040000000  0.4845410000000  0.5342040000000 1.0
C      1  0.5799180000000  0.5154450000000  0.5531880000000 1.0
C      1  0.4515720000000  0.5092430000000  0.4381560000000 1.0
C      1  0.5326710000000  0.5153950000000  0.4056380000000 1.0
C      1  0.5407570000000  0.5231250000000  0.4314700000000 1.0
C      1  0.4369860000000  0.5350440000000  0.5217660000000 1.0
C      1  0.4930220000000  0.5630780000000  0.5004590000000 1.0
C      1  0.5057760000000  0.5485520000000  0.6228040000000 1.0
C      1  0.4254050000000  0.4092120000000  0.5114100000000 1.0
C      1  0.4087010000000  0.5282260000000  0.4874500000000 1.0
C      1  0.5148670000000  0.5611680000000  0.6437280000000 1.0
C      1  0.5824160000000  0.5443340000000  0.5550020000000 1.0
C      1  0.4951540000000  0.4075590000000  0.5582360000000 1.0
C      1  0.5763780000000  0.5690810000000  0.5094360000000 1.0
C      1  0.4740690000000  0.5214860000000  0.4806610000000 1.0
C      1  0.3822480000000  0.4674490000000  0.4490070000000 1.0
C      1  0.4907670000000  0.5120360000000  0.5303400000000 1.0
END
