TITL C-599890-3321-1435 0.121366489833254 125000 -962.293932123112 0 0 155 (C1) n - 1
REM
REM in /home/nfs/bkarasulu/CARBON/AIRSS/Generating-Clusters/TERSOFF/Only-C1/FIRE-HFTN
REM
REM
REM
REM
REM
REM ./C.cell (11c1c37f851c82e70ff6c80c92926a4b)
REM AIRSS Version 0.9.1 bugfix July 2018 build 013d7b7c2542+ Fri, 06 Jul 2018 19:26:36 +0100
REM compiler GCC version 9.2.1 20190827 (Red Hat 9.2.1-1)
REM options -cpp -mtune=generic -march=x86-64 -g -O0 -fpre-include=/usr/include/finclude/math-vector-fortran.h
REM seed -441414208 1139387382 1665986713 586033766 569463508 1384490000 -2016429684 -963932999 -319662291 1640047278 238824513 -271658345 -815450938 -1278329169 -761049746 690343313 -72595668 1422716805 -1952989701 -747249751 -2025631052 1455570637 -429292818 -293412539 1279844780 -890318199 349530334 -361088594 1650485136 -1496611248 73365775 1047816653 1783187117
REM
CELL 1.54180   50.00000   50.00000   50.00000   90.00000   90.00000   90.00000
LATT -1
SFAC C  
C      1  0.5793470000000  0.5022090000000  0.4737410000000 1.0
C      1  0.4336630000000  0.4684050000000  0.4709460000000 1.0
C      1  0.4766090000000  0.4413980000000  0.4504190000000 1.0
C      1  0.5566350000000  0.4640440000000  0.5765740000000 1.0
C      1  0.4447210000000  0.4761790000000  0.5549180000000 1.0
C      1  0.4480890000000  0.4708550000000  0.4964100000000 1.0
C      1  0.5738190000000  0.4528270000000  0.4060040000000 1.0
C      1  0.4977330000000  0.4665300000000  0.5604360000000 1.0
C      1  0.5195990000000  0.5548560000000  0.5829140000000 1.0
C      1  0.4899280000000  0.6282640000000  0.5243790000000 1.0
C      1  0.5175620000000  0.4333280000000  0.6003030000000 1.0
C      1  0.6030430000000  0.5162020000000  0.4790730000000 1.0
C      1  0.5336110000000  0.5018550000000  0.4863770000000 1.0
C      1  0.4329480000000  0.5191590000000  0.5031660000000 1.0
C      1  0.4881760000000  0.4809260000000  0.4773240000000 1.0
C      1  0.5419770000000  0.5545100000000  0.5031230000000 1.0
C      1  0.5099290000000  0.4891340000000  0.4923800000000 1.0
C      1  0.3887230000000  0.5242580000000  0.4860760000000 1.0
C      1  0.4669770000000  0.5891450000000  0.5361230000000 1.0
C      1  0.5004980000000  0.4752110000000  0.5879610000000 1.0
C      1  0.4687120000000  0.5683110000000  0.3853130000000 1.0
C      1  0.4849250000000  0.4071160000000  0.4851670000000 1.0
C      1  0.5064580000000  0.5790750000000  0.5678220000000 1.0
C      1  0.5123640000000  0.4106400000000  0.5838960000000 1.0
C      1  0.4653510000000  0.5475210000000  0.4814030000000 1.0
C      1  0.5259520000000  0.3697500000000  0.4608700000000 1.0
C      1  0.5069250000000  0.5127960000000  0.5484390000000 1.0
C      1  0.4565780000000  0.5243780000000  0.6010620000000 1.0
C      1  0.4205270000000  0.5713670000000  0.4471320000000 1.0
C      1  0.3918620000000  0.4952150000000  0.4913890000000 1.0
C      1  0.4276940000000  0.4293190000000  0.5593710000000 1.0
C      1  0.4136460000000  0.4346400000000  0.5338600000000 1.0
C      1  0.3846250000000  0.5026820000000  0.5387260000000 1.0
C      1  0.5692700000000  0.3931580000000  0.4641250000000 1.0
C      1  0.5221820000000  0.6004690000000  0.5537770000000 1.0
C      1  0.3966190000000  0.5507860000000  0.4834430000000 1.0
C      1  0.4643580000000  0.5097440000000  0.4413660000000 1.0
C      1  0.6170700000000  0.5278040000000  0.5252220000000 1.0
C      1  0.4451600000000  0.4946780000000  0.5116310000000 1.0
C      1  0.5574220000000  0.4763560000000  0.4099750000000 1.0
C      1  0.5075250000000  0.4027640000000  0.5014930000000 1.0
C      1  0.3988290000000  0.4422760000000  0.4395910000000 1.0
C      1  0.4385240000000  0.5050890000000  0.6128510000000 1.0
C      1  0.4326700000000  0.4699380000000  0.5796870000000 1.0
C      1  0.5876070000000  0.3590280000000  0.3805290000000 1.0
C      1  0.5354690000000  0.4000330000000  0.4981190000000 1.0
C      1  0.6322100000000  0.4446810000000  0.4784900000000 1.0
C      1  0.5382200000000  0.5522000000000  0.4178740000000 1.0
C      1  0.5445030000000  0.3857630000000  0.4748210000000 1.0
C      1  0.4458390000000  0.5274350000000  0.5740600000000 1.0
C      1  0.5450090000000  0.5282870000000  0.4067410000000 1.0
C      1  0.4557240000000  0.4632990000000  0.4500420000000 1.0
C      1  0.4777990000000  0.5845480000000  0.5631170000000 1.0
C      1  0.4574160000000  0.5854430000000  0.5827950000000 1.0
C      1  0.5424340000000  0.4438750000000  0.5171150000000 1.0
C      1  0.4138380000000  0.5729490000000  0.4746270000000 1.0
C      1  0.5966960000000  0.5255770000000  0.5442040000000 1.0
C      1  0.5692050000000  0.5873970000000  0.5556150000000 1.0
C      1  0.5093770000000  0.4764850000000  0.5171750000000 1.0
C      1  0.4936510000000  0.4507290000000  0.6025270000000 1.0
C      1  0.5798300000000  0.4160530000000  0.5184710000000 1.0
C      1  0.6202750000000  0.4339870000000  0.5015400000000 1.0
C      1  0.5873520000000  0.3355250000000  0.3692510000000 1.0
C      1  0.4028510000000  0.4252450000000  0.4600720000000 1.0
C      1  0.4308970000000  0.5823690000000  0.5779470000000 1.0
C      1  0.6173140000000  0.4408800000000  0.5296450000000 1.0
C      1  0.4384230000000  0.5188770000000  0.4503420000000 1.0
C      1  0.5604060000000  0.4633140000000  0.5277540000000 1.0
C      1  0.4906750000000  0.6049850000000  0.4440470000000 1.0
C      1  0.5276660000000  0.4602040000000  0.4443200000000 1.0
C      1  0.4954020000000  0.5456670000000  0.5214820000000 1.0
C      1  0.5193920000000  0.4986880000000  0.5905320000000 1.0
C      1  0.5518310000000  0.5026590000000  0.4001250000000 1.0
C      1  0.5876980000000  0.4064130000000  0.4042370000000 1.0
C      1  0.6207110000000  0.4466990000000  0.4525490000000 1.0
C      1  0.4196490000000  0.5334290000000  0.5258400000000 1.0
C      1  0.4594620000000  0.6023880000000  0.4893570000000 1.0
C      1  0.5351000000000  0.6093130000000  0.4648010000000 1.0
C      1  0.4800310000000  0.3855030000000  0.4673810000000 1.0
C      1  0.3883430000000  0.4835230000000  0.5182350000000 1.0
C      1  0.5022430000000  0.4869470000000  0.5417930000000 1.0
C      1  0.3996830000000  0.4660540000000  0.4269020000000 1.0
C      1  0.4824140000000  0.5739080000000  0.4100980000000 1.0
C      1  0.3979880000000  0.4582400000000  0.5280000000000 1.0
C      1  0.4156920000000  0.4179180000000  0.5108720000000 1.0
C      1  0.5878140000000  0.3828840000000  0.3920780000000 1.0
C      1  0.5480370000000  0.5989330000000  0.5416200000000 1.0
C      1  0.5449920000000  0.6125890000000  0.4894000000000 1.0
C      1  0.4156170000000  0.5377400000000  0.4080740000000 1.0
C      1  0.6188430000000  0.5249790000000  0.4986980000000 1.0
C      1  0.5483320000000  0.5572970000000  0.5853510000000 1.0
C      1  0.4098990000000  0.4166090000000  0.4845620000000 1.0
C      1  0.5302100000000  0.5756590000000  0.4291730000000 1.0
C      1  0.5458010000000  0.4924760000000  0.5771870000000 1.0
C      1  0.5720490000000  0.4535330000000  0.5527040000000 1.0
C      1  0.4769270000000  0.5648170000000  0.4622100000000 1.0
C      1  0.4418930000000  0.5802580000000  0.3889090000000 1.0
C      1  0.4767040000000  0.5937270000000  0.4672380000000 1.0
C      1  0.5529010000000  0.5112040000000  0.5561420000000 1.0
C      1  0.5028830000000  0.4409030000000  0.5467250000000 1.0
C      1  0.4216110000000  0.4929830000000  0.5922180000000 1.0
C      1  0.5194510000000  0.5980700000000  0.4440830000000 1.0
C      1  0.5156950000000  0.4491330000000  0.5219570000000 1.0
C      1  0.4055090000000  0.5192570000000  0.5472800000000 1.0
C      1  0.5865310000000  0.4302270000000  0.4191830000000 1.0
C      1  0.4426120000000  0.5296160000000  0.4777990000000 1.0
C      1  0.4181750000000  0.5174340000000  0.4287740000000 1.0
C      1  0.5893880000000  0.4123530000000  0.4678430000000 1.0
C      1  0.5035770000000  0.4475110000000  0.4408520000000 1.0
C      1  0.5522320000000  0.4179230000000  0.5123300000000 1.0
C      1  0.4992650000000  0.3694770000000  0.4570770000000 1.0
C      1  0.5092000000000  0.5281090000000  0.5938120000000 1.0
C      1  0.4761400000000  0.6019000000000  0.4188890000000 1.0
C      1  0.5974970000000  0.4169970000000  0.4951940000000 1.0
C      1  0.4661680000000  0.4402740000000  0.5977000000000 1.0
C      1  0.5075040000000  0.6233590000000  0.5444640000000 1.0
C      1  0.4736100000000  0.4867840000000  0.4532320000000 1.0
C      1  0.5430560000000  0.4461060000000  0.5949020000000 1.0
C      1  0.5245080000000  0.5441760000000  0.5219100000000 1.0
C      1  0.5686110000000  0.4889150000000  0.5189290000000 1.0
C      1  0.5716270000000  0.5639250000000  0.5708040000000 1.0
C      1  0.4420810000000  0.5636800000000  0.4332620000000 1.0
C      1  0.5997200000000  0.4865160000000  0.4347770000000 1.0
C      1  0.4183360000000  0.5730810000000  0.5558200000000 1.0
C      1  0.5916260000000  0.5454980000000  0.5636030000000 1.0
C      1  0.4407430000000  0.4422890000000  0.5831150000000 1.0
C      1  0.4611620000000  0.5204750000000  0.5513150000000 1.0
C      1  0.4215630000000  0.5603820000000  0.3937050000000 1.0
C      1  0.4497400000000  0.6050290000000  0.4049950000000 1.0
C      1  0.5514610000000  0.4752750000000  0.4388610000000 1.0
C      1  0.6212390000000  0.4706850000000  0.4379760000000 1.0
C      1  0.4724280000000  0.5532450000000  0.5076650000000 1.0
C      1  0.4857970000000  0.5302550000000  0.5440990000000 1.0
C      1  0.4723530000000  0.5572630000000  0.4333930000000 1.0
C      1  0.4708360000000  0.6094380000000  0.5158520000000 1.0
C      1  0.5604300000000  0.4986910000000  0.4937290000000 1.0
C      1  0.5755120000000  0.5071650000000  0.5398420000000 1.0
C      1  0.4792530000000  0.5292480000000  0.4286370000000 1.0
C      1  0.5039810000000  0.4155320000000  0.5585600000000 1.0
C      1  0.4076130000000  0.4794940000000  0.4734090000000 1.0
C      1  0.4185640000000  0.5158050000000  0.5725220000000 1.0
C      1  0.5319860000000  0.5248930000000  0.5428810000000 1.0
C      1  0.4833640000000  0.5296950000000  0.6061180000000 1.0
C      1  0.5507860000000  0.6083600000000  0.5151470000000 1.0
C      1  0.4314780000000  0.5921900000000  0.4879130000000 1.0
C      1  0.4767590000000  0.4332000000000  0.4787810000000 1.0
C      1  0.5985990000000  0.4290970000000  0.4460130000000 1.0
C      1  0.4531060000000  0.4962150000000  0.5383680000000 1.0
C      1  0.4284730000000  0.5594120000000  0.5330710000000 1.0
C      1  0.4542250000000  0.5668360000000  0.5245650000000 1.0
C      1  0.4054810000000  0.4922370000000  0.4243440000000 1.0
C      1  0.5755470000000  0.4881360000000  0.4498930000000 1.0
C      1  0.5608470000000  0.5585960000000  0.4856060000000 1.0
C      1  0.5911430000000  0.4333810000000  0.5412800000000 1.0
C      1  0.4737380000000  0.4588860000000  0.4918780000000 1.0
END
