TITL C-599896-8500-1072 181.541973894618 125000 -414.932503121491 0 0 70 (C1) n - 1
REM
REM in /home/nfs/bkarasulu/CARBON/AIRSS/Generating-Clusters/TERSOFF/Only-C1/FIRE-HFTN
REM
REM
REM
REM
REM
REM ./C.cell (11c1c37f851c82e70ff6c80c92926a4b)
REM AIRSS Version 0.9.1 bugfix July 2018 build 013d7b7c2542+ Fri, 06 Jul 2018 19:26:36 +0100
REM compiler GCC version 9.2.1 20190827 (Red Hat 9.2.1-1)
REM options -cpp -mtune=generic -march=x86-64 -g -O0 -fpre-include=/usr/include/finclude/math-vector-fortran.h
REM seed -628124020 -927879764 -1448998977 -54575242 1203880555 2110364710 1487048948 277827120 -214690662 390008877 -314502668 1185627162 -408344543 608239920 -1772053715 -621565374 1843181675 -1980680644 182349841 -1730545349 1237128587 -529174784 -831848024 -621381014 -1090842718 1817876924 -1509244602 -1386534010 -1079105074 1961082130 -661567110 -149236291 1659626702
REM
CELL 1.54180   50.00000   50.00000   50.00000   90.00000   90.00000   90.00000
LATT -1
SFAC C  
C      1  0.4609070000000  0.5261520000000  0.4377990000000 1.0
C      1  0.4906260000000  0.4751350000000  0.5615640000000 1.0
C      1  0.5293020000000  0.4493820000000  0.4607070000000 1.0
C      1  0.4676630000000  0.4807420000000  0.4505290000000 1.0
C      1  0.5669510000000  0.4561190000000  0.4877780000000 1.0
C      1  0.4905280000000  0.4868590000000  0.4684340000000 1.0
C      1  0.4264190000000  0.5413120000000  0.5053840000000 1.0
C      1  0.4347650000000  0.4954030000000  0.5149680000000 1.0
C      1  0.5204830000000  0.5004830000000  0.5174740000000 1.0
C      1  0.4816780000000  0.5722190000000  0.4503260000000 1.0
C      1  0.5801420000000  0.4778330000000  0.5322970000000 1.0
C      1  0.4836280000000  0.5021640000000  0.5719160000000 1.0
C      1  0.5531730000000  0.4496810000000  0.4429350000000 1.0
C      1  0.5636070000000  0.4944150000000  0.4611110000000 1.0
C      1  0.5708990000000  0.4660160000000  0.4591140000000 1.0
C      1  0.4176430000000  0.4946940000000  0.4916000000000 1.0
C      1  0.4527320000000  0.5053120000000  0.5683200000000 1.0
C      1  0.5220660000000  0.4902530000000  0.4346160000000 1.0
C      1  0.4819520000000  0.5353950000000  0.4954380000000 1.0
C      1  0.4270060000000  0.4973480000000  0.4648030000000 1.0
C      1  0.4990510000000  0.4976420000000  0.4182510000000 1.0
C      1  0.5249000000000  0.5640040000000  0.5350320000000 1.0
C      1  0.6053780000000  0.4872960000000  0.5372710000000 1.0
C      1  0.5647870000000  0.4676800000000  0.5537730000000 1.0
C      1  0.4959920000000  0.5763330000000  0.4745320000000 1.0
C      1  0.5134390000000  0.4727320000000  0.4571680000000 1.0
C      1  0.4613540000000  0.4574420000000  0.4982130000000 1.0
C      1  0.5598760000000  0.5010370000000  0.4897100000000 1.0
C      1  0.4339330000000  0.4824350000000  0.5670150000000 1.0
C      1  0.5450350000000  0.5064500000000  0.4428290000000 1.0
C      1  0.4853900000000  0.5650440000000  0.4984600000000 1.0
C      1  0.5364340000000  0.5147740000000  0.4988430000000 1.0
C      1  0.4199510000000  0.4646070000000  0.5510770000000 1.0
C      1  0.5505980000000  0.4082280000000  0.5198270000000 1.0
C      1  0.4316970000000  0.5428560000000  0.4784360000000 1.0
C      1  0.5680300000000  0.5640300000000  0.4937190000000 1.0
C      1  0.5410280000000  0.4514940000000  0.5931830000000 1.0
C      1  0.5223190000000  0.4740040000000  0.5262430000000 1.0
C      1  0.4706650000000  0.4676450000000  0.5428200000000 1.0
C      1  0.4654220000000  0.5435330000000  0.5418870000000 1.0
C      1  0.5409530000000  0.4618090000000  0.5679770000000 1.0
C      1  0.5375370000000  0.5335200000000  0.4500680000000 1.0
C      1  0.5570740000000  0.4375950000000  0.4191020000000 1.0
C      1  0.5700970000000  0.4785050000000  0.5058770000000 1.0
C      1  0.5062280000000  0.4136270000000  0.5037270000000 1.0
C      1  0.4418820000000  0.4733090000000  0.4594710000000 1.0
C      1  0.5326230000000  0.4209410000000  0.5035150000000 1.0
C      1  0.4444040000000  0.5272120000000  0.5509190000000 1.0
C      1  0.5214520000000  0.5459820000000  0.5591400000000 1.0
C      1  0.5022670000000  0.5150380000000  0.5325620000000 1.0
C      1  0.5626590000000  0.5518680000000  0.4670280000000 1.0
C      1  0.5459570000000  0.5591820000000  0.5134970000000 1.0
C      1  0.4379920000000  0.5238520000000  0.4575270000000 1.0
C      1  0.4718270000000  0.4999940000000  0.4288890000000 1.0
C      1  0.4388530000000  0.4532980000000  0.4808850000000 1.0
C      1  0.5222940000000  0.5651840000000  0.4756690000000 1.0
C      1  0.5171920000000  0.4675030000000  0.5536450000000 1.0
C      1  0.4137540000000  0.4517420000000  0.5274060000000 1.0
C      1  0.5300390000000  0.5429110000000  0.4950100000000 1.0
C      1  0.4175090000000  0.4466010000000  0.5002910000000 1.0
C      1  0.5413960000000  0.4413840000000  0.4863330000000 1.0
C      1  0.4797570000000  0.5272280000000  0.5221960000000 1.0
C      1  0.4762880000000  0.5692860000000  0.5441240000000 1.0
C      1  0.4568890000000  0.4756910000000  0.5195630000000 1.0
C      1  0.4827820000000  0.5455250000000  0.4405710000000 1.0
C      1  0.5047380000000  0.5214090000000  0.5608680000000 1.0
C      1  0.4934720000000  0.5165430000000  0.4750800000000 1.0
C      1  0.4975420000000  0.5733610000000  0.5249140000000 1.0
C      1  0.4303600000000  0.5214930000000  0.5263210000000 1.0
C      1  0.5067360000000  0.5322210000000  0.4524210000000 1.0
END
