TITL C-599894-471-1022 16.7857830214376 125000 -230.454734608996 0 0 39 (C1) n - 1
REM
REM in /home/nfs/bkarasulu/CARBON/AIRSS/Generating-Clusters/TERSOFF/Only-C1/FIRE-HFTN
REM
REM
REM
REM
REM
REM ./C.cell (11c1c37f851c82e70ff6c80c92926a4b)
REM AIRSS Version 0.9.1 bugfix July 2018 build 013d7b7c2542+ Fri, 06 Jul 2018 19:26:36 +0100
REM compiler GCC version 9.2.1 20190827 (Red Hat 9.2.1-1)
REM options -cpp -mtune=generic -march=x86-64 -g -O0 -fpre-include=/usr/include/finclude/math-vector-fortran.h
REM seed -1287322558 1439779875 -1756597077 -1025997708 -1958326025 1729287200 -1693879108 1043606080 -231177591 -157986628 2005581347 1883533067 1782139308 -365351966 190747762 751907620 -517177308 2092801159 -1265432604 1928671755 -791848074 -309855584 -179191127 1097673651 -1405338990 1864452650 -75382166 -1885921459 -493318002 2027378563 1055731420 964888482 -2005518340
REM
CELL 1.54180   50.00000   50.00000   50.00000   90.00000   90.00000   90.00000
LATT -1
SFAC C  
C      1  0.4928970000000  0.4700100000000  0.5119440000000 1.0
C      1  0.5371160000000  0.5048860000000  0.4297620000000 1.0
C      1  0.4391030000000  0.6055970000000  0.5521770000000 1.0
C      1  0.4750430000000  0.4696540000000  0.5334310000000 1.0
C      1  0.5673380000000  0.5408990000000  0.4169240000000 1.0
C      1  0.4351380000000  0.5318960000000  0.5277330000000 1.0
C      1  0.5809620000000  0.4208190000000  0.4403700000000 1.0
C      1  0.4423650000000  0.5141590000000  0.6123730000000 1.0
C      1  0.4529390000000  0.4868140000000  0.5334640000000 1.0
C      1  0.5828830000000  0.4776760000000  0.3796250000000 1.0
C      1  0.5735270000000  0.4507290000000  0.3793920000000 1.0
C      1  0.4220440000000  0.5053800000000  0.5655960000000 1.0
C      1  0.5314220000000  0.4689050000000  0.3944140000000 1.0
C      1  0.5694990000000  0.4990420000000  0.3925400000000 1.0
C      1  0.4413060000000  0.6008990000000  0.5797150000000 1.0
C      1  0.4771480000000  0.4769140000000  0.6028670000000 1.0
C      1  0.5786370000000  0.5252640000000  0.3977610000000 1.0
C      1  0.4371400000000  0.5835270000000  0.5350170000000 1.0
C      1  0.4797490000000  0.4520830000000  0.5553700000000 1.0
C      1  0.5904130000000  0.4193500000000  0.4154840000000 1.0
C      1  0.4356250000000  0.5073550000000  0.5411510000000 1.0
C      1  0.5649250000000  0.4319360000000  0.4584570000000 1.0
C      1  0.4827100000000  0.4626470000000  0.5811510000000 1.0
C      1  0.5884310000000  0.4301340000000  0.3910870000000 1.0
C      1  0.4238280000000  0.5087630000000  0.5919470000000 1.0
C      1  0.5469380000000  0.5314550000000  0.4322340000000 1.0
C      1  0.4357900000000  0.5584200000000  0.5265080000000 1.0
C      1  0.4809930000000  0.4250430000000  0.5512890000000 1.0
C      1  0.5450670000000  0.4494630000000  0.3811520000000 1.0
C      1  0.4436350000000  0.5400010000000  0.6228590000000 1.0
C      1  0.4438240000000  0.5662200000000  0.6184160000000 1.0
C      1  0.5100390000000  0.4698510000000  0.4917690000000 1.0
C      1  0.5467390000000  0.4487120000000  0.4681350000000 1.0
C      1  0.4388740000000  0.6310740000000  0.5422970000000 1.0
C      1  0.5440190000000  0.4918630000000  0.4052120000000 1.0
C      1  0.5281610000000  0.4695540000000  0.4705500000000 1.0
C      1  0.5279240000000  0.4900830000000  0.4514980000000 1.0
C      1  0.4429440000000  0.5875600000000  0.6026100000000 1.0
C      1  0.4628650000000  0.4953620000000  0.6157240000000 1.0
END
