TITL C-599895-9959-898 12.5020635783057 125000 -225.130570654698 0 0 39 (C1) n - 1
REM
REM in /home/nfs/bkarasulu/CARBON/AIRSS/Generating-Clusters/TERSOFF/Only-C1/FIRE-HFTN
REM
REM
REM
REM
REM
REM ./C.cell (11c1c37f851c82e70ff6c80c92926a4b)
REM AIRSS Version 0.9.1 bugfix July 2018 build 013d7b7c2542+ Fri, 06 Jul 2018 19:26:36 +0100
REM compiler GCC version 9.2.1 20190827 (Red Hat 9.2.1-1)
REM options -cpp -mtune=generic -march=x86-64 -g -O0 -fpre-include=/usr/include/finclude/math-vector-fortran.h
REM seed -1430319459 1950869460 -1361285741 -794946765 -918847925 -1545796407 -1012312277 1468606072 -1355751291 -885939207 1291228937 1563611384 119215190 1174782192 553310223 -552089823 -1483681470 2109236921 944789589 1917396677 -819231960 -868271067 -1480459969 611692292 1379502010 -1451573609 -1521921386 953750863 -88779936 -1104644775 -636966258 1589551702 2037947381
REM
CELL 1.54180   50.00000   50.00000   50.00000   90.00000   90.00000   90.00000
LATT -1
SFAC C  
C      1  0.5089960000000  0.4740880000000  0.6120740000000 1.0
C      1  0.5781990000000  0.4910390000000  0.4080140000000 1.0
C      1  0.5394180000000  0.4240720000000  0.5072410000000 1.0
C      1  0.5751380000000  0.5154110000000  0.3947200000000 1.0
C      1  0.4227470000000  0.5232750000000  0.5119650000000 1.0
C      1  0.3192560000000  0.5426400000000  0.4996490000000 1.0
C      1  0.6128990000000  0.4541250000000  0.3893360000000 1.0
C      1  0.5961660000000  0.4719790000000  0.3983050000000 1.0
C      1  0.5484060000000  0.4804400000000  0.4539720000000 1.0
C      1  0.5119700000000  0.5106600000000  0.4793040000000 1.0
C      1  0.3968770000000  0.5281150000000  0.5088860000000 1.0
C      1  0.5073470000000  0.4586170000000  0.5621250000000 1.0
C      1  0.4757670000000  0.5135230000000  0.5192900000000 1.0
C      1  0.5303900000000  0.4993370000000  0.4639730000000 1.0
C      1  0.4832860000000  0.5250020000000  0.5660940000000 1.0
C      1  0.4850580000000  0.5064460000000  0.5451990000000 1.0
C      1  0.2938040000000  0.5474020000000  0.4966210000000 1.0
C      1  0.4750380000000  0.5633960000000  0.5948310000000 1.0
C      1  0.5661320000000  0.5849000000000  0.3571780000000 1.0
C      1  0.4957940000000  0.4809690000000  0.5497340000000 1.0
C      1  0.3451340000000  0.5377970000000  0.5027290000000 1.0
C      1  0.5511610000000  0.4561290000000  0.4674990000000 1.0
C      1  0.5018260000000  0.4981420000000  0.6210610000000 1.0
C      1  0.5109370000000  0.4594340000000  0.5899130000000 1.0
C      1  0.5270400000000  0.3901110000000  0.5394820000000 1.0
C      1  0.5476700000000  0.4372630000000  0.4857890000000 1.0
C      1  0.5273060000000  0.4168220000000  0.5313540000000 1.0
C      1  0.3710050000000  0.5329560000000  0.5058070000000 1.0
C      1  0.4671220000000  0.5880370000000  0.5978990000000 1.0
C      1  0.5631780000000  0.6076890000000  0.3448660000000 1.0
C      1  0.5632950000000  0.4857250000000  0.4310120000000 1.0
C      1  0.4938180000000  0.5152770000000  0.4980490000000 1.0
C      1  0.4834310000000  0.5370450000000  0.5914080000000 1.0
C      1  0.5721380000000  0.5385650000000  0.3822110000000 1.0
C      1  0.5267760000000  0.3652020000000  0.5471440000000 1.0
C      1  0.5691350000000  0.5617290000000  0.3696960000000 1.0
C      1  0.4485970000000  0.5184430000000  0.5151260000000 1.0
C      1  0.5154730000000  0.4364800000000  0.5472920000000 1.0
C      1  0.4922680000000  0.5217180000000  0.6131480000000 1.0
END
