TITL C-599891-72-1127 -8494.04011771825 125000 -1039.13871571022 0 0 171 (C1) n - 1
REM
REM in /home/nfs/bkarasulu/CARBON/AIRSS/Generating-Clusters/TERSOFF/Only-C1/FIRE-HFTN
REM
REM
REM
REM
REM
REM ./C.cell (11c1c37f851c82e70ff6c80c92926a4b)
REM AIRSS Version 0.9.1 bugfix July 2018 build 013d7b7c2542+ Fri, 06 Jul 2018 19:26:36 +0100
REM compiler GCC version 9.2.1 20190827 (Red Hat 9.2.1-1)
REM options -cpp -mtune=generic -march=x86-64 -g -O0 -fpre-include=/usr/include/finclude/math-vector-fortran.h
REM seed -2117449425 -910907710 791052093 477826664 -909432088 -1237487244 933748804 -184685722 -1944161720 -2091983213 -91046571 -1843044870 381789081 1306249467 740513082 -1116388324 1913455510 224923629 1481029682 1146676093 1863194020 -206061118 -689274004 1515131343 -1819735703 -179050090 -633458036 2073808139 596369196 852079688 755645539 -1012125597 797076500
REM
CELL 1.54180   50.00000   50.00000   50.00000   90.00000   90.00000   90.00000
LATT -1
SFAC C  
C      1  0.5333430000000  0.5363010000000  0.4399290000000 1.0
C      1  0.5768090000000  0.3738300000000  0.5525050000000 1.0
C      1  0.4240330000000  0.5652940000000  0.5846030000000 1.0
C      1  0.4313740000000  0.5061150000000  0.5534830000000 1.0
C      1  0.4728360000000  0.5430050000000  0.6195410000000 1.0
C      1  0.4619140000000  0.4500870000000  0.5164020000000 1.0
C      1  0.5469390000000  0.4136380000000  0.4398830000000 1.0
C      1  0.6138100000000  0.4618200000000  0.5539590000000 1.0
C      1  0.4369030000000  0.4202760000000  0.4410190000000 1.0
C      1  0.4897700000000  0.4540460000000  0.4455080000000 1.0
C      1  0.5076790000000  0.4687830000000  0.5404220000000 1.0
C      1  0.5454120000000  0.4820560000000  0.4067890000000 1.0
C      1  0.5936140000000  0.4398030000000  0.4707150000000 1.0
C      1  0.4882710000000  0.6103230000000  0.5140140000000 1.0
C      1  0.5642820000000  0.4479630000000  0.5554380000000 1.0
C      1  0.5603640000000  0.4036000000000  0.4631060000000 1.0
C      1  0.5430220000000  0.5991910000000  0.4094990000000 1.0
C      1  0.5403280000000  0.4342360000000  0.4234730000000 1.0
C      1  0.4490240000000  0.5283410000000  0.6151100000000 1.0
C      1  0.4634290000000  0.5589380000000  0.3966540000000 1.0
C      1  0.5339960000000  0.6153230000000  0.5002720000000 1.0
C      1  0.4400350000000  0.4322230000000  0.4128250000000 1.0
C      1  0.4103750000000  0.4123690000000  0.3499730000000 1.0
C      1  0.5912680000000  0.4508310000000  0.5639740000000 1.0
C      1  0.4713300000000  0.5849380000000  0.5773860000000 1.0
C      1  0.5307180000000  0.5050230000000  0.3971140000000 1.0
C      1  0.6061340000000  0.4471090000000  0.4965530000000 1.0
C      1  0.4932640000000  0.4039970000000  0.4124730000000 1.0
C      1  0.4512200000000  0.5902290000000  0.4493020000000 1.0
C      1  0.4487890000000  0.4302490000000  0.5865300000000 1.0
C      1  0.5384240000000  0.4501000000000  0.5106980000000 1.0
C      1  0.5663350000000  0.5333870000000  0.5836690000000 1.0
C      1  0.5621500000000  0.5585710000000  0.5403690000000 1.0
C      1  0.5668070000000  0.5383460000000  0.4800390000000 1.0
C      1  0.4990210000000  0.4199330000000  0.5769620000000 1.0
C      1  0.5831300000000  0.4554070000000  0.5126260000000 1.0
C      1  0.5297230000000  0.4599000000000  0.4166180000000 1.0
C      1  0.4033930000000  0.4575070000000  0.3659960000000 1.0
C      1  0.5492280000000  0.3939250000000  0.4876860000000 1.0
C      1  0.4651640000000  0.5326320000000  0.4008610000000 1.0
C      1  0.5070560000000  0.6020650000000  0.4429730000000 1.0
C      1  0.5310110000000  0.6103560000000  0.6073460000000 1.0
C      1  0.4921410000000  0.4039690000000  0.4398690000000 1.0
C      1  0.4708400000000  0.5789320000000  0.4684290000000 1.0
C      1  0.4292350000000  0.5444480000000  0.6031440000000 1.0
C      1  0.4481860000000  0.3917590000000  0.5042080000000 1.0
C      1  0.4454140000000  0.4832760000000  0.5456580000000 1.0
C      1  0.4022510000000  0.4043970000000  0.4134540000000 1.0
C      1  0.5450690000000  0.4649070000000  0.4650770000000 1.0
C      1  0.5604690000000  0.3824650000000  0.5341330000000 1.0
C      1  0.5090340000000  0.4270120000000  0.4801840000000 1.0
C      1  0.5372710000000  0.4070270000000  0.6130970000000 1.0
C      1  0.4412680000000  0.5961610000000  0.5239540000000 1.0
C      1  0.4857800000000  0.5181030000000  0.5131360000000 1.0
C      1  0.5316820000000  0.5309900000000  0.4109230000000 1.0
C      1  0.4137280000000  0.4026210000000  0.4383530000000 1.0
C      1  0.5766930000000  0.4811800000000  0.5026540000000 1.0
C      1  0.4473130000000  0.4231830000000  0.4672880000000 1.0
C      1  0.5168790000000  0.5866560000000  0.6039310000000 1.0
C      1  0.5431800000000  0.4600520000000  0.5701910000000 1.0
C      1  0.4707220000000  0.5301830000000  0.5336250000000 1.0
C      1  0.4590600000000  0.4473400000000  0.3979490000000 1.0
C      1  0.5138290000000  0.5536720000000  0.4518640000000 1.0
C      1  0.5746450000000  0.4608490000000  0.4612950000000 1.0
C      1  0.4975000000000  0.5917140000000  0.5343610000000 1.0
C      1  0.5225300000000  0.5822060000000  0.3994910000000 1.0
C      1  0.5065810000000  0.6194050000000  0.4934040000000 1.0
C      1  0.4961310000000  0.4279560000000  0.4548260000000 1.0
C      1  0.4108380000000  0.3949260000000  0.3306160000000 1.0
C      1  0.4745560000000  0.4727410000000  0.4606700000000 1.0
C      1  0.4424730000000  0.5858280000000  0.5753190000000 1.0
C      1  0.4730810000000  0.5128510000000  0.4188090000000 1.0
C      1  0.4828570000000  0.5757890000000  0.5528680000000 1.0
C      1  0.5991600000000  0.4814880000000  0.4028990000000 1.0
C      1  0.4437460000000  0.5270910000000  0.4560000000000 1.0
C      1  0.5433900000000  0.5939080000000  0.5155370000000 1.0
C      1  0.5339260000000  0.5129740000000  0.6170540000000 1.0
C      1  0.5500580000000  0.5221820000000  0.4597660000000 1.0
C      1  0.5716950000000  0.5659240000000  0.4875870000000 1.0
C      1  0.5762570000000  0.5522170000000  0.5643450000000 1.0
C      1  0.4737460000000  0.4611680000000  0.3797360000000 1.0
C      1  0.5491090000000  0.5386860000000  0.6070290000000 1.0
C      1  0.5318040000000  0.4451800000000  0.4833530000000 1.0
C      1  0.4812250000000  0.4869990000000  0.6057400000000 1.0
C      1  0.5870080000000  0.4131500000000  0.4649900000000 1.0
C      1  0.5007650000000  0.6222900000000  0.4653120000000 1.0
C      1  0.4750620000000  0.5708580000000  0.6229710000000 1.0
C      1  0.5249450000000  0.4726710000000  0.5194400000000 1.0
C      1  0.4364210000000  0.4821700000000  0.4941400000000 1.0
C      1  0.5577230000000  0.6199100000000  0.4504850000000 1.0
C      1  0.4676860000000  0.5163210000000  0.4464650000000 1.0
C      1  0.5101680000000  0.5114090000000  0.5006340000000 1.0
C      1  0.4167730000000  0.4226930000000  0.3969450000000 1.0
C      1  0.5795500000000  0.6087800000000  0.4611580000000 1.0
C      1  0.4100790000000  0.4308280000000  0.3709330000000 1.0
C      1  0.5846910000000  0.5848470000000  0.4717690000000 1.0
C      1  0.4241070000000  0.3964590000000  0.5152120000000 1.0
C      1  0.4872780000000  0.5858870000000  0.6018640000000 1.0
C      1  0.4940840000000  0.5310660000000  0.6057430000000 1.0
C      1  0.5092600000000  0.5026570000000  0.4735790000000 1.0
C      1  0.3772530000000  0.5531140000000  0.5252890000000 1.0
C      1  0.4011230000000  0.4837930000000  0.3635530000000 1.0
C      1  0.4878970000000  0.3801800000000  0.4528910000000 1.0
C      1  0.4340540000000  0.5993380000000  0.5513240000000 1.0
C      1  0.5137880000000  0.5380100000000  0.5593380000000 1.0
C      1  0.5026090000000  0.4664210000000  0.4234400000000 1.0
C      1  0.4817360000000  0.4583600000000  0.5373050000000 1.0
C      1  0.4291170000000  0.5733620000000  0.4478950000000 1.0
C      1  0.5273010000000  0.5547370000000  0.3956320000000 1.0
C      1  0.5099580000000  0.5450470000000  0.5878280000000 1.0
C      1  0.4113250000000  0.4088670000000  0.5351530000000 1.0
C      1  0.5295260000000  0.5064320000000  0.5630960000000 1.0
C      1  0.4421770000000  0.5288660000000  0.5392000000000 1.0
C      1  0.4781770000000  0.4665420000000  0.5854560000000 1.0
C      1  0.6146300000000  0.5056440000000  0.5317100000000 1.0
C      1  0.4982010000000  0.5922870000000  0.4130120000000 1.0
C      1  0.6269570000000  0.4663290000000  0.5048740000000 1.0
C      1  0.6352890000000  0.4868110000000  0.4863460000000 1.0
C      1  0.4413640000000  0.4720480000000  0.5203120000000 1.0
C      1  0.5019440000000  0.4072200000000  0.5507390000000 1.0
C      1  0.5445910000000  0.6325010000000  0.6093930000000 1.0
C      1  0.4111490000000  0.4243460000000  0.5569020000000 1.0
C      1  0.5367590000000  0.6096480000000  0.4354960000000 1.0
C      1  0.5328210000000  0.5574610000000  0.5446060000000 1.0
C      1  0.4240110000000  0.4405360000000  0.5761230000000 1.0
C      1  0.4007200000000  0.5098260000000  0.3622180000000 1.0
C      1  0.4517480000000  0.4672880000000  0.4752950000000 1.0
C      1  0.6223920000000  0.4776770000000  0.5321460000000 1.0
C      1  0.5612640000000  0.5031520000000  0.5116760000000 1.0
C      1  0.4549770000000  0.4410270000000  0.4883300000000 1.0
C      1  0.6248330000000  0.5123420000000  0.4867620000000 1.0
C      1  0.4866130000000  0.5473400000000  0.5490930000000 1.0
C      1  0.4604160000000  0.6138910000000  0.5132810000000 1.0
C      1  0.4338610000000  0.5511440000000  0.4661360000000 1.0
C      1  0.4767420000000  0.4370640000000  0.5862580000000 1.0
C      1  0.5731860000000  0.4811660000000  0.4049960000000 1.0
C      1  0.4516100000000  0.5639340000000  0.4866650000000 1.0
C      1  0.4114390000000  0.4955230000000  0.5719250000000 1.0
C      1  0.4921930000000  0.4792030000000  0.3709050000000 1.0
C      1  0.5049680000000  0.5049140000000  0.6120050000000 1.0
C      1  0.4992150000000  0.4105500000000  0.5022040000000 1.0
C      1  0.4264680000000  0.5497820000000  0.5279210000000 1.0
C      1  0.5186370000000  0.4136520000000  0.5961260000000 1.0
C      1  0.5361110000000  0.4947660000000  0.4638380000000 1.0
C      1  0.5646370000000  0.5739730000000  0.5144830000000 1.0
C      1  0.3890150000000  0.5089330000000  0.5798690000000 1.0
C      1  0.5845010000000  0.4840520000000  0.4750260000000 1.0
C      1  0.5429360000000  0.3942290000000  0.5158830000000 1.0
C      1  0.4777710000000  0.3947740000000  0.5409610000000 1.0
C      1  0.6066560000000  0.5201140000000  0.5078510000000 1.0
C      1  0.5781220000000  0.5245430000000  0.5027960000000 1.0
C      1  0.4018990000000  0.5614090000000  0.5671410000000 1.0
C      1  0.3554950000000  0.5511690000000  0.5110800000000 1.0
C      1  0.4394830000000  0.5699480000000  0.5119510000000 1.0
C      1  0.5116950000000  0.4975850000000  0.3764900000000 1.0
C      1  0.5298050000000  0.5606260000000  0.6013960000000 1.0
C      1  0.4743400000000  0.3975510000000  0.5123150000000 1.0
C      1  0.5565870000000  0.5102980000000  0.5704100000000 1.0
C      1  0.4676050000000  0.4723650000000  0.5591670000000 1.0
C      1  0.4739420000000  0.5826850000000  0.4031400000000 1.0
C      1  0.5329590000000  0.4993780000000  0.5134980000000 1.0
C      1  0.4151080000000  0.4676980000000  0.5794570000000 1.0
C      1  0.4840250000000  0.4991810000000  0.4619290000000 1.0
C      1  0.5237170000000  0.5823340000000  0.5327150000000 1.0
C      1  0.5616570000000  0.4443780000000  0.5268000000000 1.0
C      1  0.5224560000000  0.4786460000000  0.5628750000000 1.0
C      1  0.4978640000000  0.5762360000000  0.4579190000000 1.0
C      1  0.4009310000000  0.5547780000000  0.5396940000000 1.0
C      1  0.4888350000000  0.4898250000000  0.4143960000000 1.0
C      1  0.4556580000000  0.5002750000000  0.6131230000000 1.0
C      1  0.5184740000000  0.4064000000000  0.5251890000000 1.0
END
