TITL C-599897-7526-810 0.363198727338529 125000 -643.30293250974 0 0 107 (C1) n - 1
REM
REM in /home/nfs/bkarasulu/CARBON/AIRSS/Generating-Clusters/TERSOFF/Only-C1/FIRE-HFTN
REM
REM
REM
REM
REM
REM ./C.cell (11c1c37f851c82e70ff6c80c92926a4b)
REM AIRSS Version 0.9.1 bugfix July 2018 build 013d7b7c2542+ Fri, 06 Jul 2018 19:26:36 +0100
REM compiler GCC version 9.2.1 20190827 (Red Hat 9.2.1-1)
REM options -cpp -mtune=generic -march=x86-64 -g -O0 -fpre-include=/usr/include/finclude/math-vector-fortran.h
REM seed 1766138057 647490932 1004102299 1173368038 1064302526 -1665833427 52388492 262452204 -146692714 1340029777 -1264768196 -453601369 877840302 825091219 -1359584578 1793283524 101094942 691934296 -241083482 573710281 185644851 -1040688217 -1848047943 314259215 -1632163417 1102924542 -1030577127 1066415270 -1400292636 473803721 -1642380139 -798488637 549378081
REM
CELL 1.54180   50.00000   50.00000   50.00000   90.00000   90.00000   90.00000
LATT -1
SFAC C  
C      1  0.4206160000000  0.4586450000000  0.4167060000000 1.0
C      1  0.4895730000000  0.5216680000000  0.5833010000000 1.0
C      1  0.4775090000000  0.6036800000000  0.4895840000000 1.0
C      1  0.5832220000000  0.5822850000000  0.4568600000000 1.0
C      1  0.4475850000000  0.5488830000000  0.5833080000000 1.0
C      1  0.5934070000000  0.5084470000000  0.5212020000000 1.0
C      1  0.4330350000000  0.4248200000000  0.4939360000000 1.0
C      1  0.5402010000000  0.4176140000000  0.5426660000000 1.0
C      1  0.4344920000000  0.4908840000000  0.4984300000000 1.0
C      1  0.4951600000000  0.4230810000000  0.5246810000000 1.0
C      1  0.5526540000000  0.4784370000000  0.4281340000000 1.0
C      1  0.5221640000000  0.4135310000000  0.5215940000000 1.0
C      1  0.4499400000000  0.4488540000000  0.4562080000000 1.0
C      1  0.5204290000000  0.6068090000000  0.5293440000000 1.0
C      1  0.4332340000000  0.5073470000000  0.4744460000000 1.0
C      1  0.5372100000000  0.5473450000000  0.5688460000000 1.0
C      1  0.5549170000000  0.4838230000000  0.5324770000000 1.0
C      1  0.4927730000000  0.4916180000000  0.4365190000000 1.0
C      1  0.4948820000000  0.4268810000000  0.4433680000000 1.0
C      1  0.4340390000000  0.5699590000000  0.5904770000000 1.0
C      1  0.4059600000000  0.5178900000000  0.4707680000000 1.0
C      1  0.4704470000000  0.3889690000000  0.5013070000000 1.0
C      1  0.4593080000000  0.3988630000000  0.5479690000000 1.0
C      1  0.5114560000000  0.4864250000000  0.6106820000000 1.0
C      1  0.4095470000000  0.4928140000000  0.5138130000000 1.0
C      1  0.5305820000000  0.5273220000000  0.5058070000000 1.0
C      1  0.4305270000000  0.3985620000000  0.5924440000000 1.0
C      1  0.5790950000000  0.5185600000000  0.4529700000000 1.0
C      1  0.5112540000000  0.4669260000000  0.5375380000000 1.0
C      1  0.4782720000000  0.4753370000000  0.5755590000000 1.0
C      1  0.5263160000000  0.4819030000000  0.4736800000000 1.0
C      1  0.5845110000000  0.5642480000000  0.4786310000000 1.0
C      1  0.5453050000000  0.3752640000000  0.5028090000000 1.0
C      1  0.5313280000000  0.4796670000000  0.6268470000000 1.0
C      1  0.5744940000000  0.5120630000000  0.5670230000000 1.0
C      1  0.5096740000000  0.5363020000000  0.5689980000000 1.0
C      1  0.3859160000000  0.4973950000000  0.4737280000000 1.0
C      1  0.5678590000000  0.4986930000000  0.4381840000000 1.0
C      1  0.4542180000000  0.5465490000000  0.4209420000000 1.0
C      1  0.5779410000000  0.5743180000000  0.5054910000000 1.0
C      1  0.5593760000000  0.4697560000000  0.5086950000000 1.0
C      1  0.4448520000000  0.3981170000000  0.5701480000000 1.0
C      1  0.4961690000000  0.5599100000000  0.4992270000000 1.0
C      1  0.4049840000000  0.5177950000000  0.5269880000000 1.0
C      1  0.4602670000000  0.4348160000000  0.4104190000000 1.0
C      1  0.4675710000000  0.5039810000000  0.4340080000000 1.0
C      1  0.5563970000000  0.5354410000000  0.5118690000000 1.0
C      1  0.5310980000000  0.3983870000000  0.4989330000000 1.0
C      1  0.5586540000000  0.5311030000000  0.5774730000000 1.0
C      1  0.5058820000000  0.4777550000000  0.4155090000000 1.0
C      1  0.5410370000000  0.5883120000000  0.4331190000000 1.0
C      1  0.5101110000000  0.5266940000000  0.4636370000000 1.0
C      1  0.5025220000000  0.5352180000000  0.5410050000000 1.0
C      1  0.4271060000000  0.4603730000000  0.4430250000000 1.0
C      1  0.5427610000000  0.5665590000000  0.5466740000000 1.0
C      1  0.4935450000000  0.4941290000000  0.5909220000000 1.0
C      1  0.5469560000000  0.6886200000000  0.4827240000000 1.0
C      1  0.5482910000000  0.4665390000000  0.4834200000000 1.0
C      1  0.4521240000000  0.5457830000000  0.4496900000000 1.0
C      1  0.5588260000000  0.5965460000000  0.4530270000000 1.0
C      1  0.4900570000000  0.4508380000000  0.5287990000000 1.0
C      1  0.5216550000000  0.4380550000000  0.4371300000000 1.0
C      1  0.4622080000000  0.5270100000000  0.5743800000000 1.0
C      1  0.5094240000000  0.4990790000000  0.4585140000000 1.0
C      1  0.4006740000000  0.5409320000000  0.5131140000000 1.0
C      1  0.5520380000000  0.6177660000000  0.4699750000000 1.0
C      1  0.5295340000000  0.6250640000000  0.5122950000000 1.0
C      1  0.4692400000000  0.4368530000000  0.4375460000000 1.0
C      1  0.5610250000000  0.5608560000000  0.5247790000000 1.0
C      1  0.5168860000000  0.5146440000000  0.5272110000000 1.0
C      1  0.5568410000000  0.4438490000000  0.4692520000000 1.0
C      1  0.5394160000000  0.4260290000000  0.4569610000000 1.0
C      1  0.4786890000000  0.3905750000000  0.4758820000000 1.0
C      1  0.5420660000000  0.6352770000000  0.4894270000000 1.0
C      1  0.4617370000000  0.4813300000000  0.5525350000000 1.0
C      1  0.4527140000000  0.5168070000000  0.4564320000000 1.0
C      1  0.5272190000000  0.4896400000000  0.5362350000000 1.0
C      1  0.4980190000000  0.4054070000000  0.4624640000000 1.0
C      1  0.4920650000000  0.4797250000000  0.3635200000000 1.0
C      1  0.4510510000000  0.4682930000000  0.5033080000000 1.0
C      1  0.5771900000000  0.4983630000000  0.5426410000000 1.0
C      1  0.4624700000000  0.5218890000000  0.4115820000000 1.0
C      1  0.5704160000000  0.4321900000000  0.5830520000000 1.0
C      1  0.6046120000000  0.5861670000000  0.4403030000000 1.0
C      1  0.4007180000000  0.5417290000000  0.4857830000000 1.0
C      1  0.4518770000000  0.5078740000000  0.5556300000000 1.0
C      1  0.5135020000000  0.5406100000000  0.4872270000000 1.0
C      1  0.4474710000000  0.4464310000000  0.4847190000000 1.0
C      1  0.4744660000000  0.4034270000000  0.5250830000000 1.0
C      1  0.5285810000000  0.4628100000000  0.4243510000000 1.0
C      1  0.3869860000000  0.4829020000000  0.4984510000000 1.0
C      1  0.4374910000000  0.4453670000000  0.4000250000000 1.0
C      1  0.5516470000000  0.4732840000000  0.6418790000000 1.0
C      1  0.5851800000000  0.5349420000000  0.4756620000000 1.0
C      1  0.4164640000000  0.3991430000000  0.6143880000000 1.0
C      1  0.5800530000000  0.5234260000000  0.5013220000000 1.0
C      1  0.5249730000000  0.4067300000000  0.4726750000000 1.0
C      1  0.4986020000000  0.4790500000000  0.3887380000000 1.0
C      1  0.5557710000000  0.4237320000000  0.5632130000000 1.0
C      1  0.5190040000000  0.5802020000000  0.5373630000000 1.0
C      1  0.5231530000000  0.5787360000000  0.4167570000000 1.0
C      1  0.4998590000000  0.5610060000000  0.5276370000000 1.0
C      1  0.4777820000000  0.5766130000000  0.4857010000000 1.0
C      1  0.5445980000000  0.6628730000000  0.4860050000000 1.0
C      1  0.4595540000000  0.5652020000000  0.4678590000000 1.0
C      1  0.4653670000000  0.4656210000000  0.5282240000000 1.0
C      1  0.3700710000000  0.4631350000000  0.5061810000000 1.0
END
