TITL C-599890-3321-1018 -0.314997316855763 125000 -441.285345085035 0 0 73 (C1) n - 1
REM
REM in /home/nfs/bkarasulu/CARBON/AIRSS/Generating-Clusters/TERSOFF/Only-C1/FIRE-HFTN
REM
REM
REM
REM
REM
REM ./C.cell (11c1c37f851c82e70ff6c80c92926a4b)
REM AIRSS Version 0.9.1 bugfix July 2018 build 013d7b7c2542+ Fri, 06 Jul 2018 19:26:36 +0100
REM compiler GCC version 9.2.1 20190827 (Red Hat 9.2.1-1)
REM options -cpp -mtune=generic -march=x86-64 -g -O0 -fpre-include=/usr/include/finclude/math-vector-fortran.h
REM seed -455059661 -1853852734 -1505138406 841760804 -1339712283 1353909676 718409237 2118554880 221977706 -305278254 73201712 -759525555 1271816663 -259194091 -471614413 1557819011 -953785320 1162453384 1804853575 -145680585 -1184326146 642876372 -2064598583 -1523757205 956276022 -2066717490 670264161 -404434272 769310500 -2058502669 -2126160840 -2137074205 1266347789
REM
CELL 1.54180   50.00000   50.00000   50.00000   90.00000   90.00000   90.00000
LATT -1
SFAC C  
C      1  0.5108930000000  0.4342490000000  0.5442650000000 1.0
C      1  0.5112470000000  0.4054480000000  0.4495160000000 1.0
C      1  0.4923330000000  0.4544490000000  0.4646810000000 1.0
C      1  0.5344380000000  0.5712190000000  0.4873470000000 1.0
C      1  0.4304410000000  0.4129300000000  0.4710010000000 1.0
C      1  0.5209650000000  0.5547460000000  0.4432780000000 1.0
C      1  0.4532080000000  0.5986890000000  0.5229630000000 1.0
C      1  0.5711500000000  0.4481120000000  0.4597900000000 1.0
C      1  0.5619630000000  0.5118490000000  0.5516950000000 1.0
C      1  0.4856300000000  0.4467020000000  0.5433980000000 1.0
C      1  0.5313060000000  0.4656460000000  0.4370950000000 1.0
C      1  0.4928370000000  0.4821050000000  0.5054000000000 1.0
C      1  0.4568880000000  0.6958930000000  0.5674620000000 1.0
C      1  0.5294670000000  0.5652750000000  0.5147440000000 1.0
C      1  0.4906980000000  0.4924910000000  0.5524490000000 1.0
C      1  0.5875060000000  0.4618110000000  0.5037590000000 1.0
C      1  0.4890500000000  0.5649720000000  0.5932010000000 1.0
C      1  0.4294410000000  0.4756330000000  0.5071570000000 1.0
C      1  0.4899910000000  0.5422190000000  0.5782040000000 1.0
C      1  0.5314500000000  0.4466520000000  0.5292410000000 1.0
C      1  0.5623690000000  0.5724800000000  0.4820430000000 1.0
C      1  0.5043260000000  0.4621410000000  0.4888870000000 1.0
C      1  0.4653090000000  0.3864280000000  0.4541510000000 1.0
C      1  0.4295860000000  0.4878900000000  0.5310030000000 1.0
C      1  0.5265910000000  0.5368810000000  0.4244210000000 1.0
C      1  0.4550730000000  0.6480150000000  0.5458120000000 1.0
C      1  0.5468770000000  0.4438010000000  0.4465440000000 1.0
C      1  0.4806410000000  0.5316450000000  0.4948090000000 1.0
C      1  0.4701350000000  0.5773710000000  0.4821340000000 1.0
C      1  0.4862760000000  0.4774670000000  0.4206500000000 1.0
C      1  0.4204520000000  0.3661670000000  0.4585470000000 1.0
C      1  0.4469150000000  0.4356950000000  0.4747780000000 1.0
C      1  0.5231070000000  0.5184680000000  0.5103070000000 1.0
C      1  0.4559880000000  0.6721520000000  0.5567270000000 1.0
C      1  0.5744630000000  0.4661100000000  0.5266140000000 1.0
C      1  0.5142520000000  0.5616110000000  0.4694880000000 1.0
C      1  0.5408750000000  0.4896560000000  0.4255270000000 1.0
C      1  0.5256040000000  0.4481190000000  0.5013050000000 1.0
C      1  0.4527710000000  0.5755650000000  0.5388800000000 1.0
C      1  0.4584380000000  0.5482320000000  0.5394340000000 1.0
C      1  0.4618480000000  0.4681350000000  0.4130030000000 1.0
C      1  0.4532760000000  0.5961510000000  0.4944710000000 1.0
C      1  0.4372570000000  0.4581710000000  0.4885200000000 1.0
C      1  0.5025400000000  0.4646470000000  0.4403850000000 1.0
C      1  0.4980320000000  0.5006140000000  0.4093140000000 1.0
C      1  0.6183770000000  0.4557940000000  0.4669780000000 1.0
C      1  0.5831500000000  0.5461140000000  0.5193620000000 1.0
C      1  0.5128300000000  0.5249890000000  0.5777610000000 1.0
C      1  0.4430640000000  0.4877610000000  0.5559000000000 1.0
C      1  0.5622800000000  0.5335830000000  0.5338000000000 1.0
C      1  0.4839850000000  0.4074520000000  0.4559200000000 1.0
C      1  0.5364290000000  0.5393620000000  0.5232170000000 1.0
C      1  0.5491490000000  0.4667380000000  0.5393970000000 1.0
C      1  0.4454020000000  0.4618100000000  0.5676480000000 1.0
C      1  0.5344160000000  0.4184730000000  0.4463210000000 1.0
C      1  0.4878110000000  0.4732850000000  0.5322200000000 1.0
C      1  0.5237070000000  0.5103900000000  0.4164180000000 1.0
C      1  0.4366160000000  0.6116860000000  0.4792750000000 1.0
C      1  0.4881240000000  0.5556720000000  0.4801570000000 1.0
C      1  0.4603890000000  0.5356010000000  0.5141550000000 1.0
C      1  0.4738560000000  0.4330230000000  0.4649920000000 1.0
C      1  0.4379300000000  0.3875290000000  0.4611160000000 1.0
C      1  0.4679980000000  0.5333780000000  0.5617680000000 1.0
C      1  0.4040190000000  0.3460830000000  0.4561300000000 1.0
C      1  0.6426910000000  0.4563460000000  0.4576120000000 1.0
C      1  0.5822790000000  0.5616100000000  0.4970670000000 1.0
C      1  0.4983550000000  0.5098510000000  0.5004430000000 1.0
C      1  0.5159270000000  0.5007290000000  0.5629000000000 1.0
C      1  0.4657770000000  0.5050300000000  0.5596230000000 1.0
C      1  0.4541420000000  0.6239230000000  0.5348470000000 1.0
C      1  0.5922490000000  0.4552250000000  0.4768860000000 1.0
C      1  0.4631300000000  0.4427300000000  0.5599040000000 1.0
C      1  0.5420100000000  0.4911310000000  0.5537850000000 1.0
END
