TITL C-599893-4344-312 -2004.69274687436 125000 -680.967839122241 0 0 112 (C1) n - 1
REM
REM in /home/nfs/bkarasulu/CARBON/AIRSS/Generating-Clusters/TERSOFF/Only-C1/FIRE-HFTN
REM
REM
REM
REM
REM
REM ./C.cell (11c1c37f851c82e70ff6c80c92926a4b)
REM AIRSS Version 0.9.1 bugfix July 2018 build 013d7b7c2542+ Fri, 06 Jul 2018 19:26:36 +0100
REM compiler GCC version 9.2.1 20190827 (Red Hat 9.2.1-1)
REM options -cpp -mtune=generic -march=x86-64 -g -O0 -fpre-include=/usr/include/finclude/math-vector-fortran.h
REM seed -239797876 1028250932 -844595426 -300826927 1390238038 1587345793 2008574730 -967996498 1084642991 1102472020 92110935 -519062016 -1888121695 1042185454 -812359833 -1089731606 1684206298 -961092708 -109838517 -1754697560 -579381287 2077328506 536183010 1465942515 1521545862 303052529 1372371663 469571891 1180860983 704663378 1905717844 599200072 -1234408037
REM
CELL 1.54180   50.00000   50.00000   50.00000   90.00000   90.00000   90.00000
LATT -1
SFAC C  
C      1  0.4567560000000  0.4602110000000  0.4371480000000 1.0
C      1  0.4527940000000  0.5519610000000  0.4344640000000 1.0
C      1  0.4966220000000  0.5731190000000  0.4421660000000 1.0
C      1  0.4863540000000  0.4302310000000  0.5489210000000 1.0
C      1  0.5091860000000  0.4117910000000  0.4973440000000 1.0
C      1  0.4435640000000  0.5327900000000  0.5264320000000 1.0
C      1  0.4637000000000  0.4733180000000  0.5815380000000 1.0
C      1  0.5534290000000  0.5401800000000  0.5797930000000 1.0
C      1  0.5225200000000  0.4356830000000  0.3808920000000 1.0
C      1  0.5624590000000  0.5702400000000  0.4850910000000 1.0
C      1  0.5345500000000  0.4751780000000  0.5355260000000 1.0
C      1  0.3530990000000  0.5166120000000  0.5500910000000 1.0
C      1  0.4712640000000  0.5064160000000  0.4691120000000 1.0
C      1  0.5409030000000  0.5886470000000  0.4888600000000 1.0
C      1  0.4938170000000  0.6007040000000  0.5507220000000 1.0
C      1  0.4383830000000  0.4748860000000  0.5367260000000 1.0
C      1  0.5900840000000  0.5195840000000  0.5283040000000 1.0
C      1  0.4376750000000  0.4788920000000  0.4227290000000 1.0
C      1  0.4154840000000  0.5061210000000  0.4862200000000 1.0
C      1  0.3824410000000  0.4938680000000  0.5191410000000 1.0
C      1  0.4211880000000  0.4640120000000  0.5153610000000 1.0
C      1  0.5000650000000  0.5882550000000  0.5751200000000 1.0
C      1  0.5124220000000  0.6005130000000  0.5295810000000 1.0
C      1  0.5904010000000  0.5525480000000  0.4236030000000 1.0
C      1  0.5070720000000  0.4139210000000  0.4684570000000 1.0
C      1  0.5905130000000  0.5703970000000  0.5850580000000 1.0
C      1  0.4855980000000  0.4548490000000  0.4829640000000 1.0
C      1  0.4639990000000  0.4998810000000  0.5921220000000 1.0
C      1  0.5604890000000  0.4834810000000  0.5482860000000 1.0
C      1  0.4583340000000  0.4998430000000  0.4951580000000 1.0
C      1  0.5441900000000  0.5206470000000  0.5200900000000 1.0
C      1  0.4336450000000  0.5060240000000  0.4321830000000 1.0
C      1  0.5280350000000  0.3999710000000  0.3427190000000 1.0
C      1  0.4380230000000  0.4411720000000  0.5064510000000 1.0
C      1  0.4809730000000  0.5189470000000  0.4144630000000 1.0
C      1  0.4741540000000  0.4345410000000  0.4316340000000 1.0
C      1  0.5540220000000  0.4703660000000  0.4678900000000 1.0
C      1  0.5238570000000  0.5395060000000  0.5306690000000 1.0
C      1  0.4790660000000  0.4814680000000  0.4452530000000 1.0
C      1  0.4909220000000  0.4635680000000  0.5777010000000 1.0
C      1  0.5128660000000  0.5571550000000  0.5098160000000 1.0
C      1  0.3972900000000  0.5341790000000  0.5415410000000 1.0
C      1  0.3771200000000  0.5149350000000  0.5371930000000 1.0
C      1  0.5750620000000  0.4600770000000  0.4479860000000 1.0
C      1  0.5576470000000  0.4395010000000  0.5703430000000 1.0
C      1  0.5068100000000  0.5327480000000  0.4166670000000 1.0
C      1  0.5354750000000  0.4522750000000  0.4250780000000 1.0
C      1  0.4666620000000  0.6058090000000  0.5457940000000 1.0
C      1  0.5778520000000  0.5210890000000  0.4781150000000 1.0
C      1  0.5002830000000  0.4741910000000  0.4008950000000 1.0
C      1  0.4423050000000  0.4507200000000  0.4610060000000 1.0
C      1  0.5282640000000  0.5273230000000  0.5854190000000 1.0
C      1  0.5195490000000  0.4537930000000  0.4018290000000 1.0
C      1  0.4038680000000  0.4845670000000  0.5030290000000 1.0
C      1  0.4461970000000  0.4207540000000  0.5250410000000 1.0
C      1  0.5247080000000  0.4271490000000  0.5184230000000 1.0
C      1  0.5118080000000  0.4939150000000  0.4963460000000 1.0
C      1  0.4914910000000  0.4187960000000  0.4462930000000 1.0
C      1  0.5294470000000  0.4317300000000  0.5704930000000 1.0
C      1  0.5000870000000  0.5665360000000  0.5905340000000 1.0
C      1  0.5723550000000  0.5488570000000  0.4688770000000 1.0
C      1  0.4606000000000  0.4851100000000  0.5210550000000 1.0
C      1  0.4845690000000  0.4718760000000  0.5262460000000 1.0
C      1  0.5226020000000  0.5833670000000  0.5099050000000 1.0
C      1  0.4700600000000  0.5300720000000  0.5405400000000 1.0
C      1  0.5155190000000  0.4965250000000  0.5487530000000 1.0
C      1  0.5943270000000  0.5395640000000  0.5482290000000 1.0
C      1  0.5271020000000  0.4614080000000  0.4521650000000 1.0
C      1  0.5150040000000  0.5586210000000  0.4258750000000 1.0
C      1  0.5688800000000  0.5543020000000  0.4404920000000 1.0
C      1  0.5435580000000  0.5095630000000  0.4433370000000 1.0
C      1  0.5284930000000  0.5148450000000  0.4219950000000 1.0
C      1  0.4991830000000  0.4695370000000  0.5029400000000 1.0
C      1  0.5919170000000  0.5077880000000  0.5011740000000 1.0
C      1  0.4468000000000  0.4587530000000  0.5601440000000 1.0
C      1  0.5612030000000  0.4618490000000  0.4965760000000 1.0
C      1  0.4863830000000  0.4913260000000  0.4180630000000 1.0
C      1  0.4566090000000  0.4468960000000  0.4849390000000 1.0
C      1  0.4219110000000  0.5472820000000  0.5381790000000 1.0
C      1  0.4905790000000  0.4587530000000  0.5494010000000 1.0
C      1  0.4963210000000  0.5409560000000  0.4922180000000 1.0
C      1  0.4533000000000  0.5261940000000  0.4224790000000 1.0
C      1  0.5167160000000  0.4546800000000  0.5866890000000 1.0
C      1  0.5792230000000  0.5496810000000  0.5708260000000 1.0
C      1  0.4808150000000  0.5352540000000  0.4690040000000 1.0
C      1  0.5540970000000  0.5021730000000  0.4702470000000 1.0
C      1  0.5361920000000  0.4767730000000  0.5875820000000 1.0
C      1  0.4567630000000  0.4307890000000  0.5501220000000 1.0
C      1  0.5029440000000  0.5388130000000  0.5932860000000 1.0
C      1  0.5375360000000  0.5056650000000  0.4953750000000 1.0
C      1  0.5288810000000  0.6027100000000  0.4674980000000 1.0
C      1  0.4871060000000  0.3964470000000  0.5077200000000 1.0
C      1  0.4964540000000  0.5153560000000  0.5060420000000 1.0
C      1  0.5144350000000  0.4220440000000  0.5468010000000 1.0
C      1  0.5608970000000  0.4683630000000  0.5728650000000 1.0
C      1  0.4995120000000  0.4640260000000  0.4588650000000 1.0
C      1  0.5401740000000  0.4532940000000  0.5156580000000 1.0
C      1  0.4747120000000  0.5572390000000  0.4515250000000 1.0
C      1  0.4611100000000  0.3988760000000  0.5146640000000 1.0
C      1  0.4373360000000  0.5185840000000  0.5014550000000 1.0
C      1  0.5252970000000  0.4177190000000  0.3616190000000 1.0
C      1  0.5253220000000  0.5007940000000  0.5763720000000 1.0
C      1  0.5646500000000  0.5089440000000  0.5363110000000 1.0
C      1  0.5067600000000  0.5969010000000  0.4531560000000 1.0
C      1  0.5856850000000  0.4782410000000  0.5021610000000 1.0
C      1  0.4259000000000  0.5744390000000  0.5435270000000 1.0
C      1  0.4801920000000  0.5213610000000  0.5965630000000 1.0
C      1  0.5639390000000  0.4499370000000  0.4250690000000 1.0
C      1  0.4183240000000  0.5083010000000  0.4572570000000 1.0
C      1  0.4421170000000  0.5955230000000  0.5446090000000 1.0
C      1  0.5432300000000  0.5619080000000  0.4302950000000 1.0
C      1  0.4995620000000  0.5201410000000  0.5354350000000 1.0
END
