TITL C-599894-471-1436 0.502434452619773 125000 -201.704508721156 0 0 35 (C1) n - 1
REM
REM in /home/nfs/bkarasulu/CARBON/AIRSS/Generating-Clusters/TERSOFF/Only-C1/FIRE-HFTN
REM
REM
REM
REM
REM
REM ./C.cell (11c1c37f851c82e70ff6c80c92926a4b)
REM AIRSS Version 0.9.1 bugfix July 2018 build 013d7b7c2542+ Fri, 06 Jul 2018 19:26:36 +0100
REM compiler GCC version 9.2.1 20190827 (Red Hat 9.2.1-1)
REM options -cpp -mtune=generic -march=x86-64 -g -O0 -fpre-include=/usr/include/finclude/math-vector-fortran.h
REM seed -449321532 -1075071702 -684347757 391437366 -2032692731 -1259487128 2007106157 434686933 -310782190 -2145524474 895359414 1535123361 566221109 2003725734 6726148 1184701018 -105013205 -487832812 611842938 -836302087 279947052 -1989982585 950959314 1157378455 1049048512 -1715974535 211111010 1419278127 789010525 -2060932730 2000983545 131818532 1768451426
REM
CELL 1.54180   50.00000   50.00000   50.00000   90.00000   90.00000   90.00000
LATT -1
SFAC C  
C      1  0.4710750000000  0.5993830000000  0.5494510000000 1.0
C      1  0.4943660000000  0.3493590000000  0.4934010000000 1.0
C      1  0.5211040000000  0.3828830000000  0.4594370000000 1.0
C      1  0.5064100000000  0.3392040000000  0.4710610000000 1.0
C      1  0.5104830000000  0.6014670000000  0.4847610000000 1.0
C      1  0.5673190000000  0.5221650000000  0.4762500000000 1.0
C      1  0.3799530000000  0.5302850000000  0.5961960000000 1.0
C      1  0.4856650000000  0.5543450000000  0.5370120000000 1.0
C      1  0.5582500000000  0.4474400000000  0.4335180000000 1.0
C      1  0.5243160000000  0.5818470000000  0.4734640000000 1.0
C      1  0.5134930000000  0.4496470000000  0.4907010000000 1.0
C      1  0.5220000000000  0.4660630000000  0.4689110000000 1.0
C      1  0.4653480000000  0.6143850000000  0.5715890000000 1.0
C      1  0.4937910000000  0.4989960000000  0.4462730000000 1.0
C      1  0.5090510000000  0.5131220000000  0.5111690000000 1.0
C      1  0.5103420000000  0.4221480000000  0.4878320000000 1.0
C      1  0.5406120000000  0.4564870000000  0.4504330000000 1.0
C      1  0.5345310000000  0.5574890000000  0.4712190000000 1.0
C      1  0.4770140000000  0.5053380000000  0.4273680000000 1.0
C      1  0.5408520000000  0.5310050000000  0.4773910000000 1.0
C      1  0.5120010000000  0.4927110000000  0.4664840000000 1.0
C      1  0.4952080000000  0.6120660000000  0.5036980000000 1.0
C      1  0.4955130000000  0.3760820000000  0.4989950000000 1.0
C      1  0.5203080000000  0.5129300000000  0.4849000000000 1.0
C      1  0.4443630000000  0.5602940000000  0.5615290000000 1.0
C      1  0.5197290000000  0.3560990000000  0.4541970000000 1.0
C      1  0.4814400000000  0.6113270000000  0.5263620000000 1.0
C      1  0.4670920000000  0.5711760000000  0.5494700000000 1.0
C      1  0.5913050000000  0.5120800000000  0.4747840000000 1.0
C      1  0.4994760000000  0.5362210000000  0.5234510000000 1.0
C      1  0.4227890000000  0.5502020000000  0.5731160000000 1.0
C      1  0.5090410000000  0.3950210000000  0.4823640000000 1.0
C      1  0.5064270000000  0.4879560000000  0.5234430000000 1.0
C      1  0.5081380000000  0.4626190000000  0.5150210000000 1.0
C      1  0.4011940000000  0.5401610000000  0.5847510000000 1.0
END
