TITL C-599891-72-96 -7590.04290464065 125000 -964.844431327865 0 0 159 (C1) n - 1
REM
REM in /home/nfs/bkarasulu/CARBON/AIRSS/Generating-Clusters/TERSOFF/Only-C1/FIRE-HFTN
REM
REM
REM
REM
REM
REM ./C.cell (11c1c37f851c82e70ff6c80c92926a4b)
REM AIRSS Version 0.9.1 bugfix July 2018 build 013d7b7c2542+ Fri, 06 Jul 2018 19:26:36 +0100
REM compiler GCC version 9.2.1 20190827 (Red Hat 9.2.1-1)
REM options -cpp -mtune=generic -march=x86-64 -g -O0 -fpre-include=/usr/include/finclude/math-vector-fortran.h
REM seed -2145357993 -495970674 -964707241 -230825152 -1692928695 576025822 407153955 -625453966 1975595847 -1598070690 1064781379 1530995977 -1861644149 2075643328 -8461395 1676719625 715133588 -1802224626 1479373051 -719222926 -1534568485 1425488849 1477012104 -1813635468 1764669068 884721203 1837220161 -1199155397 -1246178432 1118712590 605729682 -883347904 2015162574
REM
CELL 1.54180   50.00000   50.00000   50.00000   90.00000   90.00000   90.00000
LATT -1
SFAC C  
C      1  0.5239730000000  0.5571950000000  0.4163390000000 1.0
C      1  0.4701570000000  0.6043710000000  0.5049070000000 1.0
C      1  0.4249920000000  0.4750020000000  0.4822340000000 1.0
C      1  0.4826890000000  0.4355000000000  0.5951120000000 1.0
C      1  0.5030510000000  0.5907900000000  0.5872050000000 1.0
C      1  0.5835280000000  0.5789580000000  0.5067220000000 1.0
C      1  0.5081800000000  0.6010320000000  0.5626660000000 1.0
C      1  0.6031040000000  0.5245500000000  0.5702920000000 1.0
C      1  0.5509440000000  0.5630170000000  0.4340950000000 1.0
C      1  0.5190340000000  0.5242890000000  0.5118280000000 1.0
C      1  0.4937240000000  0.4151930000000  0.5547970000000 1.0
C      1  0.4650980000000  0.4176090000000  0.4517080000000 1.0
C      1  0.5433800000000  0.4108690000000  0.5205090000000 1.0
C      1  0.5581390000000  0.4724890000000  0.4866490000000 1.0
C      1  0.4979100000000  0.6009370000000  0.5127070000000 1.0
C      1  0.5090850000000  0.4592310000000  0.4618720000000 1.0
C      1  0.4611930000000  0.6229840000000  0.4323140000000 1.0
C      1  0.5524150000000  0.5409030000000  0.6320480000000 1.0
C      1  0.5756610000000  0.4503260000000  0.4882780000000 1.0
C      1  0.5483660000000  0.4940520000000  0.4081420000000 1.0
C      1  0.5703470000000  0.5398620000000  0.4297080000000 1.0
C      1  0.4985160000000  0.5440350000000  0.4023520000000 1.0
C      1  0.5766760000000  0.5105270000000  0.5883010000000 1.0
C      1  0.4935250000000  0.4957520000000  0.4874780000000 1.0
C      1  0.5403680000000  0.5619980000000  0.4973500000000 1.0
C      1  0.4906630000000  0.5122280000000  0.5452640000000 1.0
C      1  0.5142570000000  0.4276070000000  0.4026200000000 1.0
C      1  0.4947410000000  0.5246850000000  0.4933490000000 1.0
C      1  0.4707640000000  0.4677090000000  0.3996460000000 1.0
C      1  0.4360700000000  0.4261690000000  0.5521320000000 1.0
C      1  0.4681290000000  0.5318060000000  0.5052140000000 1.0
C      1  0.5187850000000  0.6027360000000  0.4927030000000 1.0
C      1  0.4032080000000  0.5507410000000  0.5617640000000 1.0
C      1  0.5918760000000  0.4535570000000  0.5111360000000 1.0
C      1  0.4997350000000  0.4088240000000  0.4150140000000 1.0
C      1  0.4581770000000  0.4437180000000  0.4114930000000 1.0
C      1  0.5988650000000  0.5462470000000  0.4755810000000 1.0
C      1  0.5783580000000  0.5642240000000  0.5288380000000 1.0
C      1  0.6112480000000  0.4996390000000  0.4932480000000 1.0
C      1  0.4466970000000  0.5278070000000  0.5457260000000 1.0
C      1  0.5016380000000  0.5882740000000  0.5383140000000 1.0
C      1  0.5302290000000  0.4972950000000  0.5203100000000 1.0
C      1  0.4948130000000  0.5639680000000  0.5917150000000 1.0
C      1  0.5706020000000  0.4266600000000  0.4193260000000 1.0
C      1  0.4598000000000  0.4823260000000  0.5242190000000 1.0
C      1  0.4667830000000  0.4571060000000  0.5851380000000 1.0
C      1  0.5688630000000  0.4960460000000  0.4752910000000 1.0
C      1  0.4453920000000  0.4337070000000  0.4366180000000 1.0
C      1  0.5377490000000  0.5849990000000  0.4810780000000 1.0
C      1  0.5967000000000  0.4956190000000  0.4693960000000 1.0
C      1  0.6118830000000  0.5178980000000  0.5406430000000 1.0
C      1  0.5833890000000  0.5709650000000  0.4792600000000 1.0
C      1  0.5121130000000  0.5472420000000  0.6059690000000 1.0
C      1  0.5307340000000  0.4501450000000  0.4004150000000 1.0
C      1  0.5369700000000  0.5173200000000  0.4490500000000 1.0
C      1  0.4793310000000  0.4261530000000  0.4761390000000 1.0
C      1  0.5782100000000  0.4839980000000  0.6007530000000 1.0
C      1  0.4529590000000  0.5054340000000  0.5833970000000 1.0
C      1  0.4116960000000  0.4713820000000  0.4563800000000 1.0
C      1  0.4105010000000  0.5674430000000  0.4756440000000 1.0
C      1  0.5180130000000  0.4268000000000  0.5673840000000 1.0
C      1  0.4122920000000  0.4661410000000  0.5065250000000 1.0
C      1  0.4297610000000  0.3994900000000  0.4828220000000 1.0
C      1  0.5246660000000  0.4125600000000  0.4767430000000 1.0
C      1  0.4707090000000  0.3861550000000  0.5099980000000 1.0
C      1  0.4478550000000  0.5315400000000  0.4841480000000 1.0
C      1  0.5125790000000  0.4375270000000  0.5942600000000 1.0
C      1  0.4815670000000  0.4022960000000  0.4338360000000 1.0
C      1  0.4646820000000  0.5113910000000  0.5280770000000 1.0
C      1  0.4516570000000  0.5351780000000  0.4567330000000 1.0
C      1  0.4578600000000  0.5323370000000  0.5719620000000 1.0
C      1  0.4867070000000  0.5160420000000  0.3943220000000 1.0
C      1  0.5118340000000  0.4748470000000  0.4850080000000 1.0
C      1  0.4497480000000  0.5827930000000  0.5131260000000 1.0
C      1  0.5007320000000  0.5410000000000  0.4691140000000 1.0
C      1  0.4956350000000  0.4862880000000  0.3953200000000 1.0
C      1  0.4465150000000  0.4702410000000  0.5451700000000 1.0
C      1  0.4698680000000  0.5794220000000  0.4525200000000 1.0
C      1  0.4909570000000  0.4748370000000  0.4464880000000 1.0
C      1  0.4555800000000  0.5135750000000  0.3952770000000 1.0
C      1  0.4648680000000  0.6176700000000  0.4804930000000 1.0
C      1  0.5931270000000  0.4941520000000  0.5377300000000 1.0
C      1  0.5789320000000  0.4304690000000  0.4692160000000 1.0
C      1  0.4755980000000  0.4855040000000  0.5833210000000 1.0
C      1  0.5018720000000  0.4922620000000  0.5656770000000 1.0
C      1  0.5584690000000  0.5784810000000  0.4603940000000 1.0
C      1  0.4167670000000  0.4253400000000  0.4776360000000 1.0
C      1  0.5776820000000  0.4466750000000  0.5359570000000 1.0
C      1  0.5676140000000  0.5462730000000  0.6525260000000 1.0
C      1  0.5438550000000  0.5004230000000  0.5444700000000 1.0
C      1  0.5509190000000  0.5176920000000  0.4737300000000 1.0
C      1  0.4625230000000  0.4710510000000  0.4530370000000 1.0
C      1  0.3860740000000  0.5328010000000  0.5214510000000 1.0
C      1  0.4254890000000  0.4963210000000  0.5733900000000 1.0
C      1  0.6042910000000  0.4801630000000  0.5131070000000 1.0
C      1  0.6050090000000  0.4873340000000  0.4440470000000 1.0
C      1  0.4778910000000  0.5534760000000  0.5711180000000 1.0
C      1  0.4440270000000  0.3974930000000  0.5085060000000 1.0
C      1  0.5341930000000  0.4771720000000  0.5007060000000 1.0
C      1  0.5778060000000  0.4209880000000  0.4443880000000 1.0
C      1  0.5590360000000  0.4480610000000  0.4057060000000 1.0
C      1  0.5304620000000  0.4454950000000  0.5503000000000 1.0
C      1  0.5231980000000  0.4788030000000  0.4000200000000 1.0
C      1  0.4202430000000  0.4418000000000  0.4518290000000 1.0
C      1  0.4041180000000  0.5004140000000  0.4495120000000 1.0
C      1  0.4744480000000  0.5614520000000  0.4010970000000 1.0
C      1  0.4893650000000  0.5606410000000  0.5416880000000 1.0
C      1  0.4493510000000  0.5564250000000  0.4145750000000 1.0
C      1  0.4636740000000  0.5138240000000  0.4432920000000 1.0
C      1  0.4303190000000  0.5784880000000  0.4898340000000 1.0
C      1  0.5101580000000  0.5229300000000  0.4494130000000 1.0
C      1  0.5947120000000  0.4798820000000  0.4204760000000 1.0
C      1  0.4912600000000  0.5041340000000  0.4422870000000 1.0
C      1  0.5307010000000  0.5052030000000  0.5702920000000 1.0
C      1  0.5701840000000  0.4744130000000  0.4081950000000 1.0
C      1  0.3890980000000  0.5615840000000  0.5204620000000 1.0
C      1  0.4062010000000  0.5720120000000  0.5420200000000 1.0
C      1  0.5375310000000  0.5356930000000  0.6089920000000 1.0
C      1  0.5517710000000  0.4342340000000  0.5352230000000 1.0
C      1  0.3944380000000  0.5260010000000  0.5494930000000 1.0
C      1  0.5852260000000  0.4687890000000  0.5533600000000 1.0
C      1  0.5933400000000  0.5388270000000  0.4476150000000 1.0
C      1  0.4515850000000  0.5601300000000  0.4426050000000 1.0
C      1  0.4650750000000  0.6073000000000  0.4542560000000 1.0
C      1  0.5319980000000  0.4511720000000  0.6106120000000 1.0
C      1  0.4477360000000  0.4496440000000  0.5639190000000 1.0
C      1  0.5481500000000  0.5189550000000  0.5886380000000 1.0
C      1  0.5409480000000  0.5344980000000  0.4948960000000 1.0
C      1  0.3925610000000  0.5109120000000  0.5032360000000 1.0
C      1  0.4150780000000  0.4371120000000  0.5061030000000 1.0
C      1  0.4679770000000  0.5588020000000  0.5193310000000 1.0
C      1  0.5065980000000  0.4318390000000  0.4675260000000 1.0
C      1  0.5119690000000  0.4673670000000  0.5507620000000 1.0
C      1  0.4067620000000  0.4994890000000  0.5504690000000 1.0
C      1  0.4142740000000  0.5174940000000  0.4251190000000 1.0
C      1  0.5236530000000  0.4002790000000  0.5025090000000 1.0
C      1  0.4027180000000  0.4886710000000  0.5216240000000 1.0
C      1  0.4926300000000  0.5671390000000  0.4636530000000 1.0
C      1  0.4771960000000  0.4114020000000  0.5784890000000 1.0
C      1  0.5063820000000  0.5354900000000  0.5368310000000 1.0
C      1  0.6118060000000  0.5265470000000  0.5037270000000 1.0
C      1  0.5284800000000  0.4490910000000  0.6379150000000 1.0
C      1  0.4299530000000  0.5862860000000  0.5359880000000 1.0
C      1  0.5708430000000  0.5399190000000  0.5375260000000 1.0
C      1  0.5684700000000  0.5114160000000  0.5394080000000 1.0
C      1  0.4983400000000  0.3866590000000  0.5083550000000 1.0
C      1  0.4507940000000  0.4876110000000  0.4069680000000 1.0
C      1  0.6017360000000  0.4757160000000  0.6122320000000 1.0
C      1  0.4496070000000  0.4899220000000  0.4351920000000 1.0
C      1  0.4759150000000  0.4374000000000  0.5038050000000 1.0
C      1  0.3969540000000  0.5452300000000  0.4691110000000 1.0
C      1  0.4849960000000  0.4260240000000  0.5291690000000 1.0
C      1  0.4526230000000  0.4708410000000  0.4793500000000 1.0
C      1  0.4357400000000  0.5316250000000  0.4075400000000 1.0
C      1  0.5528090000000  0.5164500000000  0.4252990000000 1.0
C      1  0.4304180000000  0.4191030000000  0.5248430000000 1.0
C      1  0.3958070000000  0.5168970000000  0.4739710000000 1.0
C      1  0.4656210000000  0.4642890000000  0.5031690000000 1.0
C      1  0.5547610000000  0.4668260000000  0.6020460000000 1.0
END
