TITL C-599897-7526-742 -3294.31078598033 125000 -658.516912808669 0 0 109 (C1) n - 1
REM
REM in /home/nfs/bkarasulu/CARBON/AIRSS/Generating-Clusters/TERSOFF/Only-C1/FIRE-HFTN
REM
REM
REM
REM
REM
REM ./C.cell (11c1c37f851c82e70ff6c80c92926a4b)
REM AIRSS Version 0.9.1 bugfix July 2018 build 013d7b7c2542+ Fri, 06 Jul 2018 19:26:36 +0100
REM compiler GCC version 9.2.1 20190827 (Red Hat 9.2.1-1)
REM options -cpp -mtune=generic -march=x86-64 -g -O0 -fpre-include=/usr/include/finclude/math-vector-fortran.h
REM seed -2104095743 1549194136 961182075 -1371453754 -1629486261 -345712043 -3597675 684393696 1244291146 589874690 737916468 -1338762893 677935334 -451061416 -591737020 1752795382 1361487671 -360310172 -884358472 -621357012 -1470873996 -1398344390 290544321 1705429324 11268620 596702329 107201562 1071738221 -1987303545 -962374408 966273363 -1454602663 -2007189017
REM
CELL 1.54180   50.00000   50.00000   50.00000   90.00000   90.00000   90.00000
LATT -1
SFAC C  
C      1  0.4542560000000  0.4542060000000  0.5431870000000 1.0
C      1  0.5279660000000  0.4151110000000  0.4689370000000 1.0
C      1  0.4569140000000  0.4296030000000  0.4653170000000 1.0
C      1  0.4580740000000  0.5975180000000  0.4464300000000 1.0
C      1  0.5081040000000  0.5200040000000  0.5439800000000 1.0
C      1  0.5286810000000  0.5262670000000  0.5237800000000 1.0
C      1  0.5044220000000  0.4152000000000  0.5766710000000 1.0
C      1  0.5244220000000  0.5830740000000  0.4719830000000 1.0
C      1  0.5435950000000  0.4381530000000  0.4620360000000 1.0
C      1  0.4790790000000  0.4368760000000  0.4201940000000 1.0
C      1  0.5913960000000  0.5201700000000  0.5213480000000 1.0
C      1  0.5605150000000  0.5572350000000  0.4559170000000 1.0
C      1  0.4360740000000  0.4816380000000  0.5809540000000 1.0
C      1  0.5036880000000  0.4870300000000  0.4146030000000 1.0
C      1  0.5569250000000  0.4949040000000  0.4426470000000 1.0
C      1  0.5375520000000  0.6144440000000  0.5783120000000 1.0
C      1  0.5034620000000  0.4903400000000  0.4997440000000 1.0
C      1  0.4934250000000  0.5224400000000  0.5868080000000 1.0
C      1  0.4786160000000  0.4263470000000  0.5746820000000 1.0
C      1  0.5348300000000  0.4073560000000  0.5213650000000 1.0
C      1  0.5806690000000  0.5319510000000  0.5457690000000 1.0
C      1  0.5753170000000  0.5455530000000  0.4757450000000 1.0
C      1  0.5029150000000  0.4913490000000  0.5447100000000 1.0
C      1  0.4569210000000  0.4147020000000  0.5864480000000 1.0
C      1  0.3913090000000  0.5619710000000  0.5086460000000 1.0
C      1  0.5443560000000  0.4991480000000  0.5218260000000 1.0
C      1  0.5603600000000  0.5381110000000  0.5664540000000 1.0
C      1  0.5998920000000  0.4727260000000  0.4374480000000 1.0
C      1  0.5317420000000  0.4533950000000  0.5846580000000 1.0
C      1  0.3990600000000  0.5644350000000  0.4817550000000 1.0
C      1  0.6022160000000  0.4931940000000  0.5157830000000 1.0
C      1  0.6094260000000  0.4500270000000  0.4922260000000 1.0
C      1  0.5147150000000  0.4767910000000  0.5854450000000 1.0
C      1  0.3951660000000  0.5489130000000  0.5317290000000 1.0
C      1  0.5195080000000  0.4807460000000  0.5226570000000 1.0
C      1  0.4780840000000  0.5867970000000  0.4325180000000 1.0
C      1  0.5120410000000  0.6128290000000  0.5052620000000 1.0
C      1  0.5273210000000  0.4961280000000  0.4024520000000 1.0
C      1  0.5243890000000  0.5242400000000  0.4720750000000 1.0
C      1  0.5726920000000  0.4706630000000  0.4406720000000 1.0
C      1  0.5401080000000  0.4598510000000  0.4792510000000 1.0
C      1  0.5463060000000  0.5066360000000  0.4672800000000 1.0
C      1  0.5126110000000  0.5524190000000  0.4367820000000 1.0
C      1  0.5633370000000  0.4277720000000  0.4185800000000 1.0
C      1  0.5283570000000  0.6388350000000  0.5786510000000 1.0
C      1  0.4860630000000  0.4836000000000  0.4579220000000 1.0
C      1  0.4650360000000  0.4236290000000  0.4005880000000 1.0
C      1  0.4904320000000  0.4472320000000  0.4917140000000 1.0
C      1  0.5927490000000  0.4705520000000  0.4993260000000 1.0
C      1  0.5585440000000  0.5013170000000  0.4940500000000 1.0
C      1  0.4368740000000  0.5154640000000  0.4137710000000 1.0
C      1  0.4385120000000  0.5281190000000  0.5318600000000 1.0
C      1  0.4343000000000  0.4853830000000  0.4521230000000 1.0
C      1  0.4768140000000  0.4509570000000  0.5599610000000 1.0
C      1  0.4908470000000  0.5638490000000  0.4225500000000 1.0
C      1  0.5771120000000  0.5259880000000  0.4965010000000 1.0
C      1  0.5187830000000  0.6106310000000  0.4784050000000 1.0
C      1  0.4233790000000  0.5066040000000  0.4367290000000 1.0
C      1  0.4873540000000  0.5327310000000  0.5598930000000 1.0
C      1  0.4469680000000  0.4484730000000  0.5147950000000 1.0
C      1  0.4080830000000  0.4639260000000  0.4867390000000 1.0
C      1  0.4580910000000  0.5045390000000  0.4894240000000 1.0
C      1  0.5485820000000  0.5041020000000  0.4171170000000 1.0
C      1  0.5459840000000  0.5156830000000  0.5793570000000 1.0
C      1  0.5895800000000  0.4380880000000  0.5477890000000 1.0
C      1  0.3955020000000  0.5428600000000  0.4640740000000 1.0
C      1  0.4357200000000  0.5969340000000  0.4608390000000 1.0
C      1  0.5327000000000  0.4035700000000  0.4946070000000 1.0
C      1  0.5082990000000  0.5265170000000  0.4484920000000 1.0
C      1  0.4329570000000  0.4692390000000  0.5560570000000 1.0
C      1  0.4004460000000  0.5008470000000  0.5405420000000 1.0
C      1  0.5129360000000  0.5876540000000  0.5170220000000 1.0
C      1  0.4589980000000  0.4899800000000  0.4655100000000 1.0
C      1  0.5261910000000  0.4529570000000  0.5267430000000 1.0
C      1  0.5756700000000  0.4593680000000  0.5417890000000 1.0
C      1  0.4200730000000  0.4617160000000  0.5120130000000 1.0
C      1  0.5600530000000  0.4446400000000  0.4398010000000 1.0
C      1  0.4110340000000  0.5273400000000  0.5403190000000 1.0
C      1  0.4804760000000  0.5355660000000  0.5144480000000 1.0
C      1  0.4927210000000  0.4608330000000  0.4128850000000 1.0
C      1  0.4975630000000  0.5011760000000  0.4387140000000 1.0
C      1  0.4792010000000  0.4252570000000  0.4467680000000 1.0
C      1  0.4708130000000  0.5137070000000  0.6014470000000 1.0
C      1  0.5647980000000  0.4718870000000  0.4904230000000 1.0
C      1  0.4130540000000  0.4759490000000  0.5364910000000 1.0
C      1  0.4494910000000  0.4979230000000  0.5973870000000 1.0
C      1  0.4760390000000  0.5477520000000  0.4048230000000 1.0
C      1  0.4836440000000  0.5109770000000  0.5000810000000 1.0
C      1  0.4558130000000  0.5304970000000  0.4025590000000 1.0
C      1  0.4381180000000  0.5157610000000  0.5052320000000 1.0
C      1  0.5204900000000  0.5676460000000  0.4973650000000 1.0
C      1  0.4633580000000  0.4389360000000  0.4924850000000 1.0
C      1  0.5029980000000  0.4125120000000  0.4557310000000 1.0
C      1  0.5545250000000  0.5645650000000  0.5731860000000 1.0
C      1  0.5623740000000  0.4839640000000  0.5441580000000 1.0
C      1  0.5045090000000  0.4700230000000  0.4784990000000 1.0
C      1  0.4317640000000  0.4373920000000  0.4551120000000 1.0
C      1  0.4199680000000  0.4623850000000  0.4611110000000 1.0
C      1  0.5193050000000  0.5068690000000  0.5890140000000 1.0
C      1  0.4654130000000  0.5365690000000  0.5400340000000 1.0
C      1  0.5244010000000  0.5395880000000  0.4978650000000 1.0
C      1  0.5465230000000  0.5895450000000  0.5768520000000 1.0
C      1  0.4037650000000  0.5230450000000  0.4483270000000 1.0
C      1  0.5316760000000  0.4287640000000  0.5397470000000 1.0
C      1  0.4148840000000  0.5859380000000  0.4731870000000 1.0
C      1  0.5611280000000  0.4933380000000  0.5704590000000 1.0
C      1  0.5339700000000  0.5673240000000  0.4504410000000 1.0
C      1  0.4943010000000  0.4732350000000  0.5646190000000 1.0
C      1  0.5274370000000  0.4294910000000  0.5684130000000 1.0
END
