TITL C-599894-471-661 0.0635764412288961 125000 -586.992218526766 0 0 98 (C1) n - 1
REM
REM in /home/nfs/bkarasulu/CARBON/AIRSS/Generating-Clusters/TERSOFF/Only-C1/FIRE-HFTN
REM
REM
REM
REM
REM
REM ./C.cell (11c1c37f851c82e70ff6c80c92926a4b)
REM AIRSS Version 0.9.1 bugfix July 2018 build 013d7b7c2542+ Fri, 06 Jul 2018 19:26:36 +0100
REM compiler GCC version 9.2.1 20190827 (Red Hat 9.2.1-1)
REM options -cpp -mtune=generic -march=x86-64 -g -O0 -fpre-include=/usr/include/finclude/math-vector-fortran.h
REM seed 317887524 -1206053844 430975871 -870451963 -1584071355 -134434745 -1757402151 1271179513 435734026 -369715837 1062746452 642906550 1806887764 1396657447 743650788 -1393289137 862948882 1846859367 930667140 -1622817437 349043263 -775864093 -1503704154 786037002 -1704753644 1650724888 1126779466 392356685 -1605589519 175540888 -1481373908 945195993 -1725842769
REM
CELL 1.54180   50.00000   50.00000   50.00000   90.00000   90.00000   90.00000
LATT -1
SFAC C  
C      1  0.4719140000000  0.5435430000000  0.5841380000000 1.0
C      1  0.5969890000000  0.4424910000000  0.5567980000000 1.0
C      1  0.4395950000000  0.5673880000000  0.5053600000000 1.0
C      1  0.4726290000000  0.5726500000000  0.5403510000000 1.0
C      1  0.4941160000000  0.4889340000000  0.5541810000000 1.0
C      1  0.5286450000000  0.5699770000000  0.5417540000000 1.0
C      1  0.4704110000000  0.4048750000000  0.4271810000000 1.0
C      1  0.5150720000000  0.5029140000000  0.4423450000000 1.0
C      1  0.4704240000000  0.5621420000000  0.5648700000000 1.0
C      1  0.6141780000000  0.5053960000000  0.5248600000000 1.0
C      1  0.4459390000000  0.4531060000000  0.5828760000000 1.0
C      1  0.4627810000000  0.4649810000000  0.4954680000000 1.0
C      1  0.4811090000000  0.5004490000000  0.6116060000000 1.0
C      1  0.5859280000000  0.4775670000000  0.4752490000000 1.0
C      1  0.4084010000000  0.4653510000000  0.5165320000000 1.0
C      1  0.4070940000000  0.5007460000000  0.4770360000000 1.0
C      1  0.4962700000000  0.5268290000000  0.4978130000000 1.0
C      1  0.5282560000000  0.4315470000000  0.4907070000000 1.0
C      1  0.4985130000000  0.4904600000000  0.4642840000000 1.0
C      1  0.4314320000000  0.4658360000000  0.5332350000000 1.0
C      1  0.5588650000000  0.4440350000000  0.4537460000000 1.0
C      1  0.5784290000000  0.5716000000000  0.4984800000000 1.0
C      1  0.4654040000000  0.5813820000000  0.4391590000000 1.0
C      1  0.5377100000000  0.4535180000000  0.6076030000000 1.0
C      1  0.5701020000000  0.5420030000000  0.5978440000000 1.0
C      1  0.5056910000000  0.4148800000000  0.4920120000000 1.0
C      1  0.5609200000000  0.4460550000000  0.5960060000000 1.0
C      1  0.5465280000000  0.4244030000000  0.4701890000000 1.0
C      1  0.6159340000000  0.4790220000000  0.5299240000000 1.0
C      1  0.5154070000000  0.4786590000000  0.4870580000000 1.0
C      1  0.4810860000000  0.3964930000000  0.4502410000000 1.0
C      1  0.6078740000000  0.4516980000000  0.5320680000000 1.0
C      1  0.5680770000000  0.4886060000000  0.5549740000000 1.0
C      1  0.5500210000000  0.5295690000000  0.5868120000000 1.0
C      1  0.5308730000000  0.4588850000000  0.4993150000000 1.0
C      1  0.5128260000000  0.4621040000000  0.6134990000000 1.0
C      1  0.5082150000000  0.5831190000000  0.4813460000000 1.0
C      1  0.5561760000000  0.5828840000000  0.4853600000000 1.0
C      1  0.5291420000000  0.5179840000000  0.5752200000000 1.0
C      1  0.4839630000000  0.5190740000000  0.5905830000000 1.0
C      1  0.5310570000000  0.5907970000000  0.4983390000000 1.0
C      1  0.5996120000000  0.4338480000000  0.4819210000000 1.0
C      1  0.5405360000000  0.4897290000000  0.4388290000000 1.0
C      1  0.4043040000000  0.4237710000000  0.4884640000000 1.0
C      1  0.5256000000000  0.5449440000000  0.5324750000000 1.0
C      1  0.4217020000000  0.5427450000000  0.4174650000000 1.0
C      1  0.4033470000000  0.4874590000000  0.4998190000000 1.0
C      1  0.6058100000000  0.5299480000000  0.5177910000000 1.0
C      1  0.4652830000000  0.4565440000000  0.6010270000000 1.0
C      1  0.4327600000000  0.4688250000000  0.4173500000000 1.0
C      1  0.4353970000000  0.5682050000000  0.4770830000000 1.0
C      1  0.3979480000000  0.4404640000000  0.5084870000000 1.0
C      1  0.4852280000000  0.5698550000000  0.4251770000000 1.0
C      1  0.5074720000000  0.5570620000000  0.4367590000000 1.0
C      1  0.4840230000000  0.5117970000000  0.4789340000000 1.0
C      1  0.5612600000000  0.5066160000000  0.4477430000000 1.0
C      1  0.4137820000000  0.5567230000000  0.4633490000000 1.0
C      1  0.5810960000000  0.4415150000000  0.5786220000000 1.0
C      1  0.4732330000000  0.4902760000000  0.5358340000000 1.0
C      1  0.5443720000000  0.5281470000000  0.4909760000000 1.0
C      1  0.3630280000000  0.5738920000000  0.4730510000000 1.0
C      1  0.4665000000000  0.5749950000000  0.5132190000000 1.0
C      1  0.4909560000000  0.4004880000000  0.4747900000000 1.0
C      1  0.4457430000000  0.4358280000000  0.4624810000000 1.0
C      1  0.5105460000000  0.4518710000000  0.4398160000000 1.0
C      1  0.5493040000000  0.5766680000000  0.4579000000000 1.0
C      1  0.3385850000000  0.5815480000000  0.4779020000000 1.0
C      1  0.4176020000000  0.5358350000000  0.4442810000000 1.0
C      1  0.5941250000000  0.5525570000000  0.5091610000000 1.0
C      1  0.5109110000000  0.5293650000000  0.4337640000000 1.0
C      1  0.5593990000000  0.5225250000000  0.4695140000000 1.0
C      1  0.5728390000000  0.4829810000000  0.4981450000000 1.0
C      1  0.4576390000000  0.4231250000000  0.4123520000000 1.0
C      1  0.5027530000000  0.5098710000000  0.5711270000000 1.0
C      1  0.4863250000000  0.4723180000000  0.6113790000000 1.0
C      1  0.4875270000000  0.4639690000000  0.4535340000000 1.0
C      1  0.5221090000000  0.5321690000000  0.5077940000000 1.0
C      1  0.3878420000000  0.5660050000000  0.4681640000000 1.0
C      1  0.4804890000000  0.5814920000000  0.4877810000000 1.0
C      1  0.4236790000000  0.4885300000000  0.4328680000000 1.0
C      1  0.5320560000000  0.4565100000000  0.5532140000000 1.0
C      1  0.5207970000000  0.5722860000000  0.4566810000000 1.0
C      1  0.4234360000000  0.4230790000000  0.4697650000000 1.0
C      1  0.4443960000000  0.4461610000000  0.4092990000000 1.0
C      1  0.5533310000000  0.4696150000000  0.5131760000000 1.0
C      1  0.4328520000000  0.4572230000000  0.5599340000000 1.0
C      1  0.4161830000000  0.5082600000000  0.4515530000000 1.0
C      1  0.5529240000000  0.4706580000000  0.5411260000000 1.0
C      1  0.5297190000000  0.5920540000000  0.5263150000000 1.0
C      1  0.5388820000000  0.4608650000000  0.4401160000000 1.0
C      1  0.5068220000000  0.4641120000000  0.5568840000000 1.0
C      1  0.5848000000000  0.4514090000000  0.4645970000000 1.0
C      1  0.4557250000000  0.4744310000000  0.5208540000000 1.0
C      1  0.4598770000000  0.5794190000000  0.4664410000000 1.0
C      1  0.6068010000000  0.4361680000000  0.5080870000000 1.0
C      1  0.4247060000000  0.5485060000000  0.3922260000000 1.0
C      1  0.5664950000000  0.5764170000000  0.4368720000000 1.0
C      1  0.4655360000000  0.4543720000000  0.4693110000000 1.0
END
