TITL C-599893-4344-783 53.8699337766642 125000 -1178.42981628689 0 0 189 (C1) n - 1
REM
REM in /home/nfs/bkarasulu/CARBON/AIRSS/Generating-Clusters/TERSOFF/Only-C1/FIRE-HFTN
REM
REM
REM
REM
REM
REM ./C.cell (11c1c37f851c82e70ff6c80c92926a4b)
REM AIRSS Version 0.9.1 bugfix July 2018 build 013d7b7c2542+ Fri, 06 Jul 2018 19:26:36 +0100
REM compiler GCC version 9.2.1 20190827 (Red Hat 9.2.1-1)
REM options -cpp -mtune=generic -march=x86-64 -g -O0 -fpre-include=/usr/include/finclude/math-vector-fortran.h
REM seed -906955702 -757932504 -935912527 -909734061 1128668777 1120220179 679111867 430249026 -1043098156 1044350992 136215069 -128029387 2011840357 -874420237 1851138624 -637259335 -368137755 41826100 -295558352 -706788768 -2046635 1397976375 266201531 1286763353 -2010866042 -988710650 1659402737 -547197291 13773978 1034116190 148987152 1507914838 2000666886
REM
CELL 1.54180   50.00000   50.00000   50.00000   90.00000   90.00000   90.00000
LATT -1
SFAC C  
C      1  0.4735750000000  0.5852110000000  0.4583270000000 1.0
C      1  0.3758540000000  0.5084910000000  0.4867880000000 1.0
C      1  0.5632290000000  0.4431370000000  0.6006580000000 1.0
C      1  0.4847310000000  0.5326160000000  0.6128660000000 1.0
C      1  0.5918180000000  0.4075410000000  0.5163640000000 1.0
C      1  0.4742860000000  0.4915880000000  0.3784800000000 1.0
C      1  0.4409630000000  0.4983330000000  0.6246400000000 1.0
C      1  0.5449060000000  0.5248950000000  0.5774700000000 1.0
C      1  0.4773310000000  0.6055330000000  0.5137910000000 1.0
C      1  0.5813640000000  0.4226420000000  0.5400750000000 1.0
C      1  0.5731930000000  0.4713830000000  0.4121460000000 1.0
C      1  0.4464370000000  0.4833120000000  0.5505150000000 1.0
C      1  0.4687970000000  0.6175070000000  0.4889830000000 1.0
C      1  0.3893970000000  0.5177220000000  0.5100840000000 1.0
C      1  0.4907060000000  0.4276230000000  0.5872430000000 1.0
C      1  0.4518920000000  0.4845730000000  0.3951310000000 1.0
C      1  0.4871080000000  0.5138300000000  0.6341060000000 1.0
C      1  0.5588970000000  0.4610980000000  0.6206520000000 1.0
C      1  0.5084690000000  0.3717350000000  0.5145750000000 1.0
C      1  0.5036390000000  0.4703830000000  0.4555150000000 1.0
C      1  0.5189350000000  0.5847690000000  0.4091670000000 1.0
C      1  0.6064760000000  0.4250650000000  0.4980830000000 1.0
C      1  0.4799990000000  0.5388660000000  0.4535820000000 1.0
C      1  0.6068720000000  0.4351390000000  0.4707880000000 1.0
C      1  0.5472820000000  0.4856590000000  0.4547990000000 1.0
C      1  0.6205210000000  0.5219470000000  0.4943660000000 1.0
C      1  0.4838660000000  0.3861080000000  0.4756750000000 1.0
C      1  0.6022360000000  0.5018810000000  0.4347020000000 1.0
C      1  0.4669750000000  0.3953600000000  0.5237380000000 1.0
C      1  0.4565850000000  0.4642630000000  0.5694240000000 1.0
C      1  0.5384760000000  0.5251530000000  0.4873510000000 1.0
C      1  0.5377130000000  0.5089080000000  0.5324190000000 1.0
C      1  0.6240250000000  0.4706730000000  0.4976520000000 1.0
C      1  0.4430330000000  0.4483890000000  0.4774270000000 1.0
C      1  0.5340040000000  0.4042350000000  0.5406810000000 1.0
C      1  0.4257360000000  0.4143740000000  0.5479550000000 1.0
C      1  0.5004070000000  0.5697500000000  0.5470620000000 1.0
C      1  0.4221780000000  0.3757170000000  0.5852480000000 1.0
C      1  0.5041550000000  0.5832730000000  0.5723610000000 1.0
C      1  0.5078640000000  0.4145360000000  0.5460500000000 1.0
C      1  0.4106160000000  0.5003640000000  0.5189860000000 1.0
C      1  0.4986550000000  0.4754250000000  0.3796050000000 1.0
C      1  0.4678080000000  0.6355420000000  0.3965160000000 1.0
C      1  0.4946170000000  0.5294580000000  0.4312310000000 1.0
C      1  0.4794170000000  0.6117440000000  0.3959570000000 1.0
C      1  0.4953780000000  0.6091890000000  0.5750010000000 1.0
C      1  0.5458810000000  0.4309090000000  0.5812240000000 1.0
C      1  0.5920200000000  0.4565220000000  0.4297520000000 1.0
C      1  0.4385840000000  0.4408830000000  0.5085470000000 1.0
C      1  0.5032470000000  0.4409630000000  0.5377700000000 1.0
C      1  0.4883600000000  0.5397240000000  0.3855770000000 1.0
C      1  0.5462640000000  0.5124660000000  0.4635850000000 1.0
C      1  0.4444010000000  0.4795830000000  0.4794000000000 1.0
C      1  0.4441940000000  0.6821580000000  0.4022740000000 1.0
C      1  0.5449610000000  0.3934450000000  0.4931920000000 1.0
C      1  0.4742140000000  0.4426290000000  0.4054810000000 1.0
C      1  0.4996140000000  0.4495580000000  0.3935630000000 1.0
C      1  0.5187200000000  0.5704960000000  0.5259820000000 1.0
C      1  0.4386100000000  0.6155500000000  0.4883610000000 1.0
C      1  0.5555130000000  0.4183120000000  0.5550350000000 1.0
C      1  0.5167420000000  0.5710380000000  0.5947540000000 1.0
C      1  0.5549150000000  0.5594100000000  0.6246500000000 1.0
C      1  0.5104930000000  0.4844130000000  0.5023040000000 1.0
C      1  0.4353060000000  0.5383830000000  0.5466660000000 1.0
C      1  0.4464440000000  0.5547120000000  0.3991840000000 1.0
C      1  0.3930860000000  0.4952190000000  0.4393480000000 1.0
C      1  0.5261430000000  0.4770790000000  0.4394210000000 1.0
C      1  0.5929250000000  0.3802900000000  0.5150290000000 1.0
C      1  0.6158920000000  0.4478870000000  0.5151400000000 1.0
C      1  0.5268160000000  0.5950820000000  0.4357630000000 1.0
C      1  0.5943130000000  0.4951020000000  0.5241980000000 1.0
C      1  0.4650820000000  0.5344560000000  0.5416320000000 1.0
C      1  0.5725840000000  0.5258430000000  0.5747120000000 1.0
C      1  0.5092860000000  0.6140580000000  0.4500510000000 1.0
C      1  0.4859320000000  0.5621980000000  0.4688050000000 1.0
C      1  0.5282260000000  0.4238390000000  0.4262280000000 1.0
C      1  0.5865830000000  0.4357500000000  0.4497530000000 1.0
C      1  0.4857030000000  0.4431730000000  0.5164460000000 1.0
C      1  0.5330400000000  0.3866300000000  0.5179000000000 1.0
C      1  0.4963380000000  0.5104530000000  0.5038330000000 1.0
C      1  0.5574400000000  0.4651650000000  0.4713190000000 1.0
C      1  0.5970070000000  0.4480420000000  0.5381080000000 1.0
C      1  0.5383260000000  0.5678320000000  0.3947110000000 1.0
C      1  0.5264270000000  0.4416460000000  0.4040910000000 1.0
C      1  0.4262400000000  0.6156320000000  0.5142780000000 1.0
C      1  0.4164740000000  0.5122440000000  0.5840910000000 1.0
C      1  0.5744580000000  0.5014240000000  0.5036570000000 1.0
C      1  0.5023520000000  0.5076290000000  0.5652860000000 1.0
C      1  0.5809710000000  0.6067870000000  0.5922000000000 1.0
C      1  0.4774540000000  0.5221080000000  0.5671880000000 1.0
C      1  0.4097710000000  0.4464100000000  0.5190290000000 1.0
C      1  0.4426160000000  0.4533590000000  0.6174090000000 1.0
C      1  0.4351480000000  0.5979590000000  0.5331990000000 1.0
C      1  0.5128710000000  0.4660160000000  0.5939330000000 1.0
C      1  0.3895650000000  0.5458170000000  0.5138140000000 1.0
C      1  0.4720300000000  0.5243030000000  0.3425220000000 1.0
C      1  0.5082520000000  0.5614890000000  0.4916090000000 1.0
C      1  0.4334660000000  0.5308870000000  0.4026720000000 1.0
C      1  0.5136310000000  0.4653400000000  0.5468500000000 1.0
C      1  0.5319820000000  0.5287690000000  0.6021760000000 1.0
C      1  0.5092300000000  0.3837860000000  0.4630990000000 1.0
C      1  0.5348260000000  0.5139370000000  0.3780040000000 1.0
C      1  0.4156370000000  0.4867630000000  0.4249590000000 1.0
C      1  0.4675170000000  0.4062560000000  0.4650590000000 1.0
C      1  0.5444690000000  0.5766170000000  0.6029380000000 1.0
C      1  0.4600440000000  0.4953320000000  0.4623670000000 1.0
C      1  0.6189340000000  0.4633420000000  0.4695160000000 1.0
C      1  0.5558450000000  0.4664050000000  0.5222480000000 1.0
C      1  0.4070860000000  0.4870040000000  0.5710440000000 1.0
C      1  0.4188490000000  0.4906410000000  0.5446630000000 1.0
C      1  0.4912780000000  0.4416430000000  0.4891930000000 1.0
C      1  0.4088710000000  0.5752170000000  0.4769530000000 1.0
C      1  0.5369780000000  0.5371880000000  0.3975460000000 1.0
C      1  0.4809820000000  0.4852110000000  0.4471970000000 1.0
C      1  0.5627570000000  0.5276080000000  0.4135150000000 1.0
C      1  0.5171600000000  0.4908580000000  0.4167730000000 1.0
C      1  0.4904230000000  0.5860930000000  0.3995750000000 1.0
C      1  0.4587110000000  0.4755230000000  0.6270770000000 1.0
C      1  0.4266500000000  0.4919110000000  0.4972420000000 1.0
C      1  0.4090000000000  0.4571350000000  0.5746110000000 1.0
C      1  0.5534750000000  0.5187080000000  0.5102630000000 1.0
C      1  0.4309910000000  0.5342620000000  0.4577280000000 1.0
C      1  0.4275880000000  0.5959430000000  0.4702430000000 1.0
C      1  0.4466650000000  0.5877400000000  0.4507740000000 1.0
C      1  0.5065960000000  0.4798750000000  0.5701830000000 1.0
C      1  0.4283190000000  0.4599480000000  0.4300960000000 1.0
C      1  0.5083350000000  0.5451740000000  0.6035200000000 1.0
C      1  0.4781030000000  0.5187500000000  0.3687260000000 1.0
C      1  0.3916840000000  0.4453870000000  0.4966890000000 1.0
C      1  0.4118760000000  0.5525410000000  0.4602980000000 1.0
C      1  0.4317040000000  0.5026300000000  0.4060550000000 1.0
C      1  0.4867660000000  0.4851000000000  0.6305400000000 1.0
C      1  0.4436460000000  0.4126380000000  0.5237730000000 1.0
C      1  0.5311670000000  0.5749680000000  0.4781920000000 1.0
C      1  0.4650930000000  0.5255850000000  0.5929060000000 1.0
C      1  0.5490770000000  0.5060920000000  0.6390130000000 1.0
C      1  0.5403780000000  0.4200940000000  0.4516050000000 1.0
C      1  0.5698930000000  0.5657030000000  0.4512760000000 1.0
C      1  0.5895410000000  0.5583590000000  0.4714540000000 1.0
C      1  0.4842290000000  0.3987420000000  0.5467580000000 1.0
C      1  0.4105080000000  0.4398550000000  0.5487550000000 1.0
C      1  0.5125090000000  0.4756720000000  0.6206640000000 1.0
C      1  0.5984340000000  0.5289910000000  0.5758580000000 1.0
C      1  0.4829980000000  0.3808850000000  0.5038880000000 1.0
C      1  0.5615500000000  0.5894290000000  0.5837700000000 1.0
C      1  0.4163580000000  0.5342260000000  0.5655900000000 1.0
C      1  0.5333560000000  0.3979460000000  0.4678130000000 1.0
C      1  0.4853920000000  0.6103670000000  0.4655060000000 1.0
C      1  0.5292720000000  0.4797710000000  0.5266380000000 1.0
C      1  0.6098960000000  0.4756110000000  0.4443790000000 1.0
C      1  0.5725910000000  0.5499250000000  0.4281110000000 1.0
C      1  0.5481980000000  0.5310120000000  0.6256880000000 1.0
C      1  0.5118970000000  0.5321070000000  0.4937500000000 1.0
C      1  0.4230050000000  0.3940000000000  0.5667000000000 1.0
C      1  0.4559310000000  0.6590800000000  0.3992300000000 1.0
C      1  0.5778120000000  0.5016000000000  0.4166200000000 1.0
C      1  0.3968140000000  0.4430860000000  0.4697390000000 1.0
C      1  0.4740430000000  0.5636520000000  0.5388300000000 1.0
C      1  0.5581620000000  0.5842710000000  0.5560270000000 1.0
C      1  0.4922120000000  0.5016660000000  0.4271760000000 1.0
C      1  0.5446650000000  0.5778340000000  0.5336180000000 1.0
C      1  0.3788360000000  0.5014620000000  0.4610980000000 1.0
C      1  0.4731230000000  0.5111990000000  0.5207830000000 1.0
C      1  0.4218250000000  0.4462200000000  0.4553830000000 1.0
C      1  0.4731560000000  0.5630700000000  0.3927650000000 1.0
C      1  0.6185640000000  0.4968630000000  0.5085270000000 1.0
C      1  0.4623990000000  0.4848040000000  0.5275470000000 1.0
C      1  0.5058000000000  0.4644170000000  0.4821470000000 1.0
C      1  0.5512770000000  0.4568120000000  0.4002030000000 1.0
C      1  0.4220540000000  0.4490960000000  0.5995130000000 1.0
C      1  0.6090750000000  0.5369450000000  0.4726380000000 1.0
C      1  0.5075280000000  0.5369850000000  0.4071160000000 1.0
C      1  0.5446500000000  0.5801020000000  0.4539760000000 1.0
C      1  0.4690930000000  0.4420030000000  0.5786420000000 1.0
C      1  0.5207270000000  0.4915180000000  0.3882670000000 1.0
C      1  0.5398210000000  0.4801500000000  0.6306550000000 1.0
C      1  0.5274220000000  0.5189000000000  0.5564560000000 1.0
C      1  0.5602200000000  0.4387850000000  0.4600430000000 1.0
C      1  0.4564760000000  0.5234740000000  0.4598370000000 1.0
C      1  0.3957490000000  0.5689060000000  0.5011780000000 1.0
C      1  0.6127730000000  0.5242520000000  0.4475580000000 1.0
C      1  0.5646500000000  0.4746470000000  0.4960790000000 1.0
C      1  0.4689170000000  0.4332730000000  0.4726030000000 1.0
C      1  0.4509970000000  0.4587530000000  0.4101270000000 1.0
C      1  0.5176810000000  0.4374550000000  0.5887970000000 1.0
C      1  0.4611820000000  0.5873780000000  0.5297660000000 1.0
C      1  0.4619580000000  0.4573050000000  0.5194170000000 1.0
C      1  0.4395630000000  0.5139290000000  0.6013000000000 1.0
C      1  0.5811680000000  0.4715910000000  0.5376220000000 1.0
END
