TITL C-599892-9790-60 -11221.7263878587 125000 -584.655863593968 0 0 97 (C1) n - 1
REM
REM in /home/nfs/bkarasulu/CARBON/AIRSS/Generating-Clusters/TERSOFF/Only-C1/FIRE-HFTN
REM
REM
REM
REM
REM
REM ./C.cell (11c1c37f851c82e70ff6c80c92926a4b)
REM AIRSS Version 0.9.1 bugfix July 2018 build 013d7b7c2542+ Fri, 06 Jul 2018 19:26:36 +0100
REM compiler GCC version 9.2.1 20190827 (Red Hat 9.2.1-1)
REM options -cpp -mtune=generic -march=x86-64 -g -O0 -fpre-include=/usr/include/finclude/math-vector-fortran.h
REM seed -1968461292 1549582515 1606364451 1239779831 126774359 2108274644 -803054904 -1469476206 -1487720403 -236069326 -674757275 -474491199 -1934200244 505979344 615954960 2018512237 -56897882 -142986595 2139149467 -535560109 -343069927 -685387500 -1759893598 1191049995 -476347934 1432345996 -1239974241 -197080626 151737327 1820297991 -695131435 -1317483524 1345827023
REM
CELL 1.54180   50.00000   50.00000   50.00000   90.00000   90.00000   90.00000
LATT -1
SFAC C  
C      1  0.5552940000000  0.4956370000000  0.3983460000000 1.0
C      1  0.5469990000000  0.4942690000000  0.5428280000000 1.0
C      1  0.5698060000000  0.5031950000000  0.3528530000000 1.0
C      1  0.4484440000000  0.3878330000000  0.5256520000000 1.0
C      1  0.4846920000000  0.4401220000000  0.5016920000000 1.0
C      1  0.3599670000000  0.5435170000000  0.5300600000000 1.0
C      1  0.5365930000000  0.5349800000000  0.5146890000000 1.0
C      1  0.4653710000000  0.4775780000000  0.5265820000000 1.0
C      1  0.5008170000000  0.5598480000000  0.4301070000000 1.0
C      1  0.5538520000000  0.4755880000000  0.4903960000000 1.0
C      1  0.4197220000000  0.5166330000000  0.4860550000000 1.0
C      1  0.5103450000000  0.5830370000000  0.4441280000000 1.0
C      1  0.4244860000000  0.3895360000000  0.5137820000000 1.0
C      1  0.5003190000000  0.5313610000000  0.5781750000000 1.0
C      1  0.5556580000000  0.4049600000000  0.4889860000000 1.0
C      1  0.6211820000000  0.5257930000000  0.3985950000000 1.0
C      1  0.5348090000000  0.5763390000000  0.4888360000000 1.0
C      1  0.4002640000000  0.5242610000000  0.5023290000000 1.0
C      1  0.5011990000000  0.4388970000000  0.5735440000000 1.0
C      1  0.5109040000000  0.5864150000000  0.4729460000000 1.0
C      1  0.5561350000000  0.3944270000000  0.5134610000000 1.0
C      1  0.5479850000000  0.4029580000000  0.5646730000000 1.0
C      1  0.4468480000000  0.5647740000000  0.4575380000000 1.0
C      1  0.4110310000000  0.4091270000000  0.5013550000000 1.0
C      1  0.4536120000000  0.4995890000000  0.4250510000000 1.0
C      1  0.5285290000000  0.5315110000000  0.5829760000000 1.0
C      1  0.4360170000000  0.4538310000000  0.4989330000000 1.0
C      1  0.4827190000000  0.4454350000000  0.5536800000000 1.0
C      1  0.5079280000000  0.4809250000000  0.5029850000000 1.0
C      1  0.5324980000000  0.5109980000000  0.4043570000000 1.0
C      1  0.5628350000000  0.5678070000000  0.4857260000000 1.0
C      1  0.5376260000000  0.4868480000000  0.6081260000000 1.0
C      1  0.3841990000000  0.5349780000000  0.5966420000000 1.0
C      1  0.4502980000000  0.5150360000000  0.5716960000000 1.0
C      1  0.4617180000000  0.4512870000000  0.4852170000000 1.0
C      1  0.5744570000000  0.5052560000000  0.3797360000000 1.0
C      1  0.4485950000000  0.4861550000000  0.4019770000000 1.0
C      1  0.5502540000000  0.4280520000000  0.4742170000000 1.0
C      1  0.5416990000000  0.5214150000000  0.5388920000000 1.0
C      1  0.5290150000000  0.6243030000000  0.4145350000000 1.0
C      1  0.4845620000000  0.4924650000000  0.5136610000000 1.0
C      1  0.4684470000000  0.4704500000000  0.5545890000000 1.0
C      1  0.4909190000000  0.5338590000000  0.4228850000000 1.0
C      1  0.5590570000000  0.4706700000000  0.4107820000000 1.0
C      1  0.3974110000000  0.4790260000000  0.5506720000000 1.0
C      1  0.4694550000000  0.4034450000000  0.5309800000000 1.0
C      1  0.5565510000000  0.4327580000000  0.4473040000000 1.0
C      1  0.5531000000000  0.3949340000000  0.5398760000000 1.0
C      1  0.5582370000000  0.4714960000000  0.5487700000000 1.0
C      1  0.6441620000000  0.5341620000000  0.4076200000000 1.0
C      1  0.5981050000000  0.5167110000000  0.3892730000000 1.0
C      1  0.5373940000000  0.5129070000000  0.6022390000000 1.0
C      1  0.4158650000000  0.4348140000000  0.4955380000000 1.0
C      1  0.5405270000000  0.4146630000000  0.5890470000000 1.0
C      1  0.5245910000000  0.5286720000000  0.4671660000000 1.0
C      1  0.4305020000000  0.5366590000000  0.5690730000000 1.0
C      1  0.4875760000000  0.5364810000000  0.4943370000000 1.0
C      1  0.4479410000000  0.4900470000000  0.4528140000000 1.0
C      1  0.4602090000000  0.5616440000000  0.5338160000000 1.0
C      1  0.5773570000000  0.4932350000000  0.4896900000000 1.0
C      1  0.5592730000000  0.4490430000000  0.4263420000000 1.0
C      1  0.5249040000000  0.5605410000000  0.5110420000000 1.0
C      1  0.4240740000000  0.4796610000000  0.5456190000000 1.0
C      1  0.5326390000000  0.4611690000000  0.6030710000000 1.0
C      1  0.5464110000000  0.5383450000000  0.5615750000000 1.0
C      1  0.5838510000000  0.5202090000000  0.4929200000000 1.0
C      1  0.5482190000000  0.4033110000000  0.6127360000000 1.0
C      1  0.5034360000000  0.4869080000000  0.4330470000000 1.0
C      1  0.4765150000000  0.5253760000000  0.5645030000000 1.0
C      1  0.4979220000000  0.5323360000000  0.4690940000000 1.0
C      1  0.5087480000000  0.5111680000000  0.4192140000000 1.0
C      1  0.5391530000000  0.4497170000000  0.4885430000000 1.0
C      1  0.4577660000000  0.5861590000000  0.4695710000000 1.0
C      1  0.3800710000000  0.5339370000000  0.5165090000000 1.0
C      1  0.4633530000000  0.5271750000000  0.4277740000000 1.0
C      1  0.4480080000000  0.5377600000000  0.4504570000000 1.0
C      1  0.4763660000000  0.5773770000000  0.5137650000000 1.0
C      1  0.4801720000000  0.4294310000000  0.5289350000000 1.0
C      1  0.5690530000000  0.5543020000000  0.5537800000000 1.0
C      1  0.5792900000000  0.5483730000000  0.5011310000000 1.0
C      1  0.4653900000000  0.4689050000000  0.4622820000000 1.0
C      1  0.4065110000000  0.5362590000000  0.5832400000000 1.0
C      1  0.4374760000000  0.4719580000000  0.5206100000000 1.0
C      1  0.4975280000000  0.5587530000000  0.5096420000000 1.0
C      1  0.4457080000000  0.4867980000000  0.5655330000000 1.0
C      1  0.4786550000000  0.5911860000000  0.4876850000000 1.0
C      1  0.4901620000000  0.4695120000000  0.4484840000000 1.0
C      1  0.5245680000000  0.4382590000000  0.5889790000000 1.0
C      1  0.5199410000000  0.6043690000000  0.4286570000000 1.0
C      1  0.5359750000000  0.5196450000000  0.4910480000000 1.0
C      1  0.5103940000000  0.4525080000000  0.4973900000000 1.0
C      1  0.5318500000000  0.4931150000000  0.4956620000000 1.0
C      1  0.5818140000000  0.5548180000000  0.5294190000000 1.0
C      1  0.4381940000000  0.5146100000000  0.4655130000000 1.0
C      1  0.4374670000000  0.5590730000000  0.5515070000000 1.0
C      1  0.4733100000000  0.5347760000000  0.5377300000000 1.0
C      1  0.4791450000000  0.5195500000000  0.5145050000000 1.0
END
