TITL C-599891-72-474 0.000827450400889842 125000 -96.2378649262189 0 0 17 (C1) n - 1
REM
REM in /home/nfs/bkarasulu/CARBON/AIRSS/Generating-Clusters/TERSOFF/Only-C1/FIRE-HFTN
REM
REM
REM
REM
REM
REM ./C.cell (11c1c37f851c82e70ff6c80c92926a4b)
REM AIRSS Version 0.9.1 bugfix July 2018 build 013d7b7c2542+ Fri, 06 Jul 2018 19:26:36 +0100
REM compiler GCC version 9.2.1 20190827 (Red Hat 9.2.1-1)
REM options -cpp -mtune=generic -march=x86-64 -g -O0 -fpre-include=/usr/include/finclude/math-vector-fortran.h
REM seed 1552722601 -2017076409 124778968 -1347371443 -1509278299 1941655028 -1882088643 1515279825 -1347290250 -1874676980 548874358 -1520617117 953704934 -1431025549 -972779359 -285560419 694163770 -1206002082 -307853744 1229224355 1080618269 -1685985360 888579397 247303055 -260680008 -302335311 3166445 -856982457 1048712016 -1826390266 -1733162473 374731776 -327963844
REM
CELL 1.54180   50.00000   50.00000   50.00000   90.00000   90.00000   90.00000
LATT -1
SFAC C  
C      1  0.4449090000000  0.4103360000000  0.5344120000000 1.0
C      1  0.4764320000000  0.5164760000000  0.4715170000000 1.0
C      1  0.5182690000000  0.4964860000000  0.4826900000000 1.0
C      1  0.4562060000000  0.4310510000000  0.5233250000000 1.0
C      1  0.5174350000000  0.5627050000000  0.4543180000000 1.0
C      1  0.4803370000000  0.4740610000000  0.5007600000000 1.0
C      1  0.5375060000000  0.4953500000000  0.5408350000000 1.0
C      1  0.5084440000000  0.4789750000000  0.5029030000000 1.0
C      1  0.5324930000000  0.5503940000000  0.4986110000000 1.0
C      1  0.4602800000000  0.5330460000000  0.4571450000000 1.0
C      1  0.4666230000000  0.4938190000000  0.4856290000000 1.0
C      1  0.4677360000000  0.4520960000000  0.5120970000000 1.0
C      1  0.5230620000000  0.4776220000000  0.5267860000000 1.0
C      1  0.5048440000000  0.5198610000000  0.4736650000000 1.0
C      1  0.5448670000000  0.5209940000000  0.5384490000000 1.0
C      1  0.5424610000000  0.5417870000000  0.5218210000000 1.0
C      1  0.5180970000000  0.5449420000000  0.4750380000000 1.0
END
