TITL C-599893-4344-343 5.7123598992628e-05 125000 -363.869296520299 0 0 61 (C1) n - 1
REM
REM in /home/nfs/bkarasulu/CARBON/AIRSS/Generating-Clusters/TERSOFF/Only-C1/FIRE-HFTN
REM
REM
REM
REM
REM
REM ./C.cell (11c1c37f851c82e70ff6c80c92926a4b)
REM AIRSS Version 0.9.1 bugfix July 2018 build 013d7b7c2542+ Fri, 06 Jul 2018 19:26:36 +0100
REM compiler GCC version 9.2.1 20190827 (Red Hat 9.2.1-1)
REM options -cpp -mtune=generic -march=x86-64 -g -O0 -fpre-include=/usr/include/finclude/math-vector-fortran.h
REM seed 1178550999 -2125040043 1007541618 1879354112 -834528375 -1549271258 -1056775662 1873634773 2071602434 582979254 1873665171 -1231547144 1100993707 -370147373 -1178194654 893306903 -1367892301 1576475344 -2110972799 -1374021885 1337578946 -1803815464 -104938649 -1810908927 2083798551 1223462652 -1343719943 1208659990 -1347089847 923378845 -1771963135 -717668286 -1620336573
REM
CELL 1.54180   50.00000   50.00000   50.00000   90.00000   90.00000   90.00000
LATT -1
SFAC C  
C      1  0.5328720000000  0.5242180000000  0.5356880000000 1.0
C      1  0.4918470000000  0.4065430000000  0.5184920000000 1.0
C      1  0.5222460000000  0.5975360000000  0.4873950000000 1.0
C      1  0.5445970000000  0.4125970000000  0.5190400000000 1.0
C      1  0.5012680000000  0.4631950000000  0.5165490000000 1.0
C      1  0.4979200000000  0.4579530000000  0.4880620000000 1.0
C      1  0.5051500000000  0.5765660000000  0.4907620000000 1.0
C      1  0.4699110000000  0.5322180000000  0.4316510000000 1.0
C      1  0.5565210000000  0.4739600000000  0.5660990000000 1.0
C      1  0.5206960000000  0.4938310000000  0.5934490000000 1.0
C      1  0.4931460000000  0.5491900000000  0.5452460000000 1.0
C      1  0.5582690000000  0.5174910000000  0.5254450000000 1.0
C      1  0.4846550000000  0.5743310000000  0.5356380000000 1.0
C      1  0.5156400000000  0.5471360000000  0.4510730000000 1.0
C      1  0.4415110000000  0.4889660000000  0.5066240000000 1.0
C      1  0.5264790000000  0.5074720000000  0.4011010000000 1.0
C      1  0.5202540000000  0.4599360000000  0.4706590000000 1.0
C      1  0.5402280000000  0.5348620000000  0.4426970000000 1.0
C      1  0.5648680000000  0.4794480000000  0.4932570000000 1.0
C      1  0.4929800000000  0.5456110000000  0.4341040000000 1.0
C      1  0.4531490000000  0.4661560000000  0.5190300000000 1.0
C      1  0.4375550000000  0.5274140000000  0.5371540000000 1.0
C      1  0.4792710000000  0.5947790000000  0.5529870000000 1.0
C      1  0.4384860000000  0.5623430000000  0.4811560000000 1.0
C      1  0.4643620000000  0.4841940000000  0.4320220000000 1.0
C      1  0.4359550000000  0.5132790000000  0.4615140000000 1.0
C      1  0.5281390000000  0.4855760000000  0.4629690000000 1.0
C      1  0.5639680000000  0.4295880000000  0.5103370000000 1.0
C      1  0.4309510000000  0.4925360000000  0.4805390000000 1.0
C      1  0.5089680000000  0.5512290000000  0.4783400000000 1.0
C      1  0.4547590000000  0.5098840000000  0.4401530000000 1.0
C      1  0.5453980000000  0.4847410000000  0.5880040000000 1.0
C      1  0.5574520000000  0.5220210000000  0.4615940000000 1.0
C      1  0.5501220000000  0.4723430000000  0.5388740000000 1.0
C      1  0.4300900000000  0.5399190000000  0.4691890000000 1.0
C      1  0.4820830000000  0.4830360000000  0.4101640000000 1.0
C      1  0.4818230000000  0.5782080000000  0.5074400000000 1.0
C      1  0.5403840000000  0.5246020000000  0.4163040000000 1.0
C      1  0.5060110000000  0.5240520000000  0.5444170000000 1.0
C      1  0.5048810000000  0.4918260000000  0.3993440000000 1.0
C      1  0.5186800000000  0.4052680000000  0.5202990000000 1.0
C      1  0.5625270000000  0.4498080000000  0.4903060000000 1.0
C      1  0.5260260000000  0.4610320000000  0.5298800000000 1.0
C      1  0.4961150000000  0.5297790000000  0.4911670000000 1.0
C      1  0.4500310000000  0.4379790000000  0.5150140000000 1.0
C      1  0.4670540000000  0.4168550000000  0.5160700000000 1.0
C      1  0.4565360000000  0.5763610000000  0.4950560000000 1.0
C      1  0.5528810000000  0.4963010000000  0.4723390000000 1.0
C      1  0.4743040000000  0.4546540000000  0.5599470000000 1.0
C      1  0.5423290000000  0.4426630000000  0.4712520000000 1.0
C      1  0.4244660000000  0.5402820000000  0.5556500000000 1.0
C      1  0.4816550000000  0.4666100000000  0.5833300000000 1.0
C      1  0.4787870000000  0.4713810000000  0.5348730000000 1.0
C      1  0.4632900000000  0.4630280000000  0.4504130000000 1.0
C      1  0.5778830000000  0.5360900000000  0.5218390000000 1.0
C      1  0.4749320000000  0.5221660000000  0.5051870000000 1.0
C      1  0.4934780000000  0.5001840000000  0.5526090000000 1.0
C      1  0.4512290000000  0.5136290000000  0.5172910000000 1.0
C      1  0.4965660000000  0.4905130000000  0.5795460000000 1.0
C      1  0.4740650000000  0.4548160000000  0.4734810000000 1.0
C      1  0.5623010000000  0.4898160000000  0.5198890000000 1.0
END
