TITL C-599897-7526-813 -670.971374446474 125000 -1178.34277097243 0 0 192 (C1) n - 1
REM
REM in /home/nfs/bkarasulu/CARBON/AIRSS/Generating-Clusters/TERSOFF/Only-C1/FIRE-HFTN
REM
REM
REM
REM
REM
REM ./C.cell (11c1c37f851c82e70ff6c80c92926a4b)
REM AIRSS Version 0.9.1 bugfix July 2018 build 013d7b7c2542+ Fri, 06 Jul 2018 19:26:36 +0100
REM compiler GCC version 9.2.1 20190827 (Red Hat 9.2.1-1)
REM options -cpp -mtune=generic -march=x86-64 -g -O0 -fpre-include=/usr/include/finclude/math-vector-fortran.h
REM seed -676553353 747763404 1598415244 -2120325632 -2106983501 -754715823 -1606536290 -848657979 -520481704 -692526489 687783202 -1381458535 -1894643932 2050189221 -1943234288 -1664550308 -1670915815 1944069819 -886619340 2017226051 1487591828 298755075 -811823598 -2024532371 -628145387 -1316407374 -278779904 -128019019 273216063 -169376587 -374414924 -570642722 1941464575
REM
CELL 1.54180   50.00000   50.00000   50.00000   90.00000   90.00000   90.00000
LATT -1
SFAC C  
C      1  0.5693400000000  0.4983770000000  0.5075380000000 1.0
C      1  0.4437250000000  0.3683960000000  0.5014730000000 1.0
C      1  0.4934300000000  0.6285610000000  0.5158840000000 1.0
C      1  0.5564910000000  0.5198810000000  0.4367800000000 1.0
C      1  0.4562100000000  0.5090820000000  0.5574890000000 1.0
C      1  0.3865490000000  0.5294600000000  0.5702270000000 1.0
C      1  0.5350360000000  0.4688730000000  0.3860440000000 1.0
C      1  0.5713840000000  0.4442720000000  0.4421190000000 1.0
C      1  0.6064830000000  0.4406920000000  0.5065740000000 1.0
C      1  0.5327240000000  0.6329060000000  0.4777590000000 1.0
C      1  0.4946680000000  0.3395790000000  0.5309150000000 1.0
C      1  0.5216380000000  0.5002440000000  0.5517900000000 1.0
C      1  0.4113270000000  0.4569160000000  0.4785990000000 1.0
C      1  0.4508060000000  0.6506550000000  0.5181890000000 1.0
C      1  0.5643410000000  0.5365300000000  0.4154100000000 1.0
C      1  0.5470210000000  0.6826840000000  0.4606950000000 1.0
C      1  0.5635500000000  0.4844380000000  0.5817180000000 1.0
C      1  0.6011200000000  0.4652940000000  0.5199870000000 1.0
C      1  0.4980860000000  0.5615200000000  0.5653120000000 1.0
C      1  0.5743690000000  0.3726370000000  0.5440450000000 1.0
C      1  0.5302460000000  0.3701600000000  0.5645470000000 1.0
C      1  0.5664480000000  0.4688340000000  0.3486280000000 1.0
C      1  0.5700280000000  0.4107820000000  0.5138150000000 1.0
C      1  0.4014450000000  0.4788750000000  0.4617030000000 1.0
C      1  0.4956790000000  0.4723570000000  0.5197690000000 1.0
C      1  0.5365060000000  0.5546530000000  0.5943350000000 1.0
C      1  0.5104110000000  0.4983950000000  0.5240160000000 1.0
C      1  0.4909910000000  0.3724880000000  0.4922840000000 1.0
C      1  0.4432670000000  0.5124860000000  0.4092690000000 1.0
C      1  0.4507310000000  0.6050440000000  0.5355520000000 1.0
C      1  0.4576450000000  0.4932680000000  0.4780970000000 1.0
C      1  0.5348690000000  0.5560310000000  0.5351600000000 1.0
C      1  0.5141490000000  0.5437960000000  0.5811650000000 1.0
C      1  0.3790250000000  0.5546370000000  0.5632100000000 1.0
C      1  0.4884820000000  0.5994460000000  0.4752990000000 1.0
C      1  0.4571640000000  0.4571590000000  0.5699100000000 1.0
C      1  0.4206260000000  0.4240270000000  0.5569440000000 1.0
C      1  0.3722420000000  0.5609200000000  0.5376320000000 1.0
C      1  0.5514500000000  0.5338090000000  0.5402550000000 1.0
C      1  0.4390750000000  0.5392400000000  0.4968390000000 1.0
C      1  0.4354890000000  0.6133010000000  0.5582030000000 1.0
C      1  0.5332560000000  0.4601490000000  0.4969200000000 1.0
C      1  0.4587170000000  0.5656870000000  0.5975690000000 1.0
C      1  0.4219880000000  0.4674310000000  0.5028650000000 1.0
C      1  0.5785650000000  0.4712020000000  0.4348940000000 1.0
C      1  0.3813560000000  0.5155500000000  0.5242980000000 1.0
C      1  0.4502210000000  0.5460840000000  0.6135060000000 1.0
C      1  0.5454660000000  0.6071940000000  0.4350700000000 1.0
C      1  0.5423610000000  0.4104880000000  0.5087100000000 1.0
C      1  0.5628060000000  0.4983100000000  0.6050500000000 1.0
C      1  0.4578970000000  0.5484420000000  0.4515200000000 1.0
C      1  0.5122760000000  0.5172110000000  0.5722790000000 1.0
C      1  0.6028600000000  0.5753040000000  0.4871930000000 1.0
C      1  0.4623700000000  0.4285710000000  0.5072820000000 1.0
C      1  0.5321770000000  0.4635590000000  0.4694180000000 1.0
C      1  0.5570490000000  0.5898480000000  0.4765110000000 1.0
C      1  0.5101570000000  0.4480890000000  0.5090580000000 1.0
C      1  0.5201140000000  0.4505990000000  0.6049190000000 1.0
C      1  0.4700500000000  0.5682570000000  0.4322100000000 1.0
C      1  0.5968830000000  0.4953370000000  0.4000140000000 1.0
C      1  0.5803870000000  0.4304980000000  0.4662620000000 1.0
C      1  0.4785440000000  0.5323120000000  0.3442050000000 1.0
C      1  0.5542170000000  0.7063010000000  0.4523240000000 1.0
C      1  0.4866990000000  0.4743600000000  0.3971360000000 1.0
C      1  0.4336260000000  0.5509830000000  0.4706820000000 1.0
C      1  0.4657160000000  0.6267070000000  0.5223520000000 1.0
C      1  0.4643740000000  0.4816380000000  0.5560330000000 1.0
C      1  0.5185900000000  0.3942830000000  0.5641110000000 1.0
C      1  0.5535700000000  0.4636180000000  0.5399980000000 1.0
C      1  0.4879760000000  0.4082890000000  0.4652480000000 1.0
C      1  0.4483230000000  0.3810880000000  0.5266040000000 1.0
C      1  0.4426620000000  0.5502920000000  0.5232130000000 1.0
C      1  0.5821430000000  0.4620670000000  0.5752370000000 1.0
C      1  0.3875690000000  0.5006390000000  0.4767250000000 1.0
C      1  0.3874770000000  0.5079370000000  0.5517870000000 1.0
C      1  0.5873150000000  0.5663170000000  0.5836660000000 1.0
C      1  0.4757800000000  0.5722540000000  0.5780780000000 1.0
C      1  0.5769540000000  0.4154500000000  0.5653430000000 1.0
C      1  0.5331670000000  0.5304260000000  0.4513050000000 1.0
C      1  0.4388740000000  0.4668070000000  0.3963420000000 1.0
C      1  0.5454230000000  0.5716710000000  0.5151580000000 1.0
C      1  0.4688930000000  0.4738250000000  0.5290230000000 1.0
C      1  0.6056070000000  0.5207000000000  0.5737920000000 1.0
C      1  0.4560070000000  0.3639070000000  0.5475340000000 1.0
C      1  0.5450010000000  0.4399100000000  0.5990020000000 1.0
C      1  0.4349990000000  0.4122050000000  0.4658860000000 1.0
C      1  0.4600490000000  0.3976360000000  0.4651610000000 1.0
C      1  0.4632800000000  0.3732880000000  0.4816800000000 1.0
C      1  0.4493970000000  0.3988260000000  0.5887940000000 1.0
C      1  0.5247210000000  0.4421230000000  0.4510350000000 1.0
C      1  0.5866140000000  0.4245800000000  0.4942320000000 1.0
C      1  0.5398420000000  0.6586460000000  0.4692080000000 1.0
C      1  0.5939990000000  0.5405450000000  0.5176350000000 1.0
C      1  0.4884670000000  0.5858110000000  0.4982170000000 1.0
C      1  0.5112900000000  0.5293490000000  0.4334780000000 1.0
C      1  0.4751540000000  0.4423820000000  0.5865020000000 1.0
C      1  0.6032130000000  0.5433440000000  0.5879760000000 1.0
C      1  0.5446260000000  0.4851650000000  0.5596110000000 1.0
C      1  0.3866070000000  0.5293430000000  0.4705580000000 1.0
C      1  0.4457450000000  0.5783910000000  0.5268420000000 1.0
C      1  0.4071690000000  0.4174720000000  0.5069840000000 1.0
C      1  0.5464920000000  0.5656560000000  0.4879660000000 1.0
C      1  0.4655780000000  0.4459010000000  0.4866160000000 1.0
C      1  0.5582010000000  0.4792230000000  0.3725300000000 1.0
C      1  0.5110500000000  0.5199510000000  0.5032830000000 1.0
C      1  0.4320390000000  0.6651240000000  0.5310050000000 1.0
C      1  0.5220080000000  0.4197830000000  0.5568990000000 1.0
C      1  0.4440070000000  0.4709050000000  0.5168820000000 1.0
C      1  0.4478910000000  0.5314670000000  0.5444900000000 1.0
C      1  0.5153280000000  0.4185180000000  0.5046420000000 1.0
C      1  0.5154830000000  0.6309340000000  0.5004410000000 1.0
C      1  0.4753730000000  0.3452210000000  0.5488630000000 1.0
C      1  0.5470580000000  0.4873800000000  0.4651670000000 1.0
C      1  0.3777910000000  0.4342540000000  0.5417100000000 1.0
C      1  0.4927820000000  0.5627010000000  0.5133920000000 1.0
C      1  0.5979990000000  0.4880390000000  0.5002480000000 1.0
C      1  0.6041400000000  0.5563310000000  0.4654490000000 1.0
C      1  0.4490030000000  0.4929780000000  0.6120660000000 1.0
C      1  0.6027550000000  0.4828380000000  0.4256130000000 1.0
C      1  0.5179170000000  0.5724170000000  0.4158920000000 1.0
C      1  0.4652590000000  0.4681020000000  0.4686210000000 1.0
C      1  0.5449740000000  0.4388210000000  0.4310060000000 1.0
C      1  0.5609280000000  0.5655990000000  0.5934540000000 1.0
C      1  0.4819230000000  0.5206360000000  0.3688100000000 1.0
C      1  0.5685620000000  0.5636360000000  0.4234140000000 1.0
C      1  0.5841390000000  0.5955870000000  0.4824320000000 1.0
C      1  0.4207540000000  0.6345010000000  0.5658900000000 1.0
C      1  0.5435580000000  0.6106210000000  0.4631160000000 1.0
C      1  0.5451220000000  0.5820650000000  0.4216140000000 1.0
C      1  0.5067430000000  0.5614070000000  0.5384480000000 1.0
C      1  0.3783170000000  0.4953890000000  0.5039910000000 1.0
C      1  0.4728230000000  0.4649940000000  0.4415500000000 1.0
C      1  0.3678390000000  0.4720700000000  0.5153400000000 1.0
C      1  0.4643980000000  0.4607040000000  0.3853780000000 1.0
C      1  0.4701930000000  0.4154030000000  0.5922980000000 1.0
C      1  0.5083210000000  0.5109500000000  0.3762030000000 1.0
C      1  0.4150190000000  0.4275240000000  0.4806000000000 1.0
C      1  0.4276510000000  0.4022140000000  0.5733180000000 1.0
C      1  0.3732560000000  0.5420830000000  0.5166840000000 1.0
C      1  0.5013460000000  0.3993990000000  0.4889400000000 1.0
C      1  0.4487830000000  0.5201900000000  0.6195230000000 1.0
C      1  0.5364840000000  0.4402480000000  0.5475130000000 1.0
C      1  0.5101830000000  0.4832050000000  0.3838290000000 1.0
C      1  0.5272850000000  0.5290780000000  0.3876690000000 1.0
C      1  0.5562670000000  0.5247450000000  0.3907650000000 1.0
C      1  0.3753460000000  0.4621210000000  0.5409450000000 1.0
C      1  0.4796350000000  0.5406840000000  0.4717660000000 1.0
C      1  0.4022470000000  0.4217910000000  0.5350290000000 1.0
C      1  0.5159100000000  0.5447300000000  0.4096110000000 1.0
C      1  0.4465680000000  0.5121740000000  0.4932870000000 1.0
C      1  0.4293860000000  0.4497410000000  0.5664550000000 1.0
C      1  0.5721330000000  0.5009700000000  0.3849120000000 1.0
C      1  0.3906820000000  0.4800820000000  0.5584210000000 1.0
C      1  0.4943330000000  0.5076120000000  0.4331310000000 1.0
C      1  0.5010420000000  0.3515610000000  0.5077170000000 1.0
C      1  0.4115490000000  0.4828190000000  0.4351320000000 1.0
C      1  0.4248180000000  0.4839000000000  0.5986290000000 1.0
C      1  0.4941230000000  0.5832570000000  0.4291140000000 1.0
C      1  0.5757930000000  0.5198220000000  0.5294420000000 1.0
C      1  0.5534530000000  0.3599880000000  0.5554950000000 1.0
C      1  0.6046120000000  0.5824840000000  0.5371620000000 1.0
C      1  0.4478330000000  0.5275470000000  0.4323090000000 1.0
C      1  0.5774950000000  0.4006880000000  0.5403990000000 1.0
C      1  0.4183900000000  0.6583410000000  0.5533430000000 1.0
C      1  0.6173940000000  0.4882030000000  0.4500910000000 1.0
C      1  0.4081450000000  0.5441980000000  0.4600680000000 1.0
C      1  0.4920170000000  0.4582330000000  0.6036390000000 1.0
C      1  0.5000570000000  0.4270720000000  0.4485470000000 1.0
C      1  0.4745130000000  0.4789450000000  0.6144250000000 1.0
C      1  0.6101960000000  0.5294000000000  0.4722740000000 1.0
C      1  0.6039890000000  0.5663520000000  0.5140680000000 1.0
C      1  0.5376840000000  0.5321650000000  0.4812160000000 1.0
C      1  0.4802030000000  0.4393670000000  0.4333000000000 1.0
C      1  0.4122010000000  0.4709320000000  0.5759320000000 1.0
C      1  0.5523220000000  0.4732770000000  0.5128960000000 1.0
C      1  0.3705680000000  0.5446940000000  0.4887830000000 1.0
C      1  0.4834710000000  0.4839570000000  0.4240620000000 1.0
C      1  0.4916890000000  0.5389060000000  0.4974970000000 1.0
C      1  0.5702730000000  0.4366840000000  0.5837400000000 1.0
C      1  0.5388010000000  0.4476000000000  0.4046280000000 1.0
C      1  0.5843730000000  0.4626250000000  0.5453810000000 1.0
C      1  0.4952410000000  0.6025490000000  0.4495480000000 1.0
C      1  0.4594150000000  0.5182050000000  0.3863370000000 1.0
C      1  0.5911730000000  0.5651360000000  0.4412050000000 1.0
C      1  0.5544550000000  0.5082310000000  0.4842560000000 1.0
C      1  0.5600450000000  0.4918280000000  0.4409760000000 1.0
C      1  0.5958100000000  0.5830510000000  0.5625590000000 1.0
C      1  0.4567200000000  0.4081200000000  0.5238600000000 1.0
C      1  0.6103950000000  0.5007210000000  0.4754910000000 1.0
C      1  0.4288080000000  0.4876380000000  0.4127400000000 1.0
C      1  0.5933340000000  0.5105310000000  0.5522490000000 1.0
C      1  0.4674360000000  0.4428700000000  0.3649490000000 1.0
END
