TITL C-599892-9790-795 2.74137226304275e-05 125000 -608.631671940784 0 0 100 (C1) n - 1
REM
REM in /home/nfs/bkarasulu/CARBON/AIRSS/Generating-Clusters/TERSOFF/Only-C1/FIRE-HFTN
REM
REM
REM
REM
REM
REM ./C.cell (11c1c37f851c82e70ff6c80c92926a4b)
REM AIRSS Version 0.9.1 bugfix July 2018 build 013d7b7c2542+ Fri, 06 Jul 2018 19:26:36 +0100
REM compiler GCC version 9.2.1 20190827 (Red Hat 9.2.1-1)
REM options -cpp -mtune=generic -march=x86-64 -g -O0 -fpre-include=/usr/include/finclude/math-vector-fortran.h
REM seed 944354553 -58149196 26692885 1682746810 800618626 -1184200029 -358906157 1262197107 691573662 -1144126666 704747139 -1969525709 1389683953 1124355652 533032044 380407319 -682269223 -571176928 1818709834 -1966154335 468209779 -789644230 1489681505 -2045315069 -234512222 -1669765115 251265225 2017349861 2137289671 -1968744046 1447035858 7599991 1529541316
REM
CELL 1.54180   50.00000   50.00000   50.00000   90.00000   90.00000   90.00000
LATT -1
SFAC C  
C      1  0.5310260000000  0.5265240000000  0.4425570000000 1.0
C      1  0.5415740000000  0.5951700000000  0.4317240000000 1.0
C      1  0.4077350000000  0.4947760000000  0.5834420000000 1.0
C      1  0.4079530000000  0.5631560000000  0.4857880000000 1.0
C      1  0.5581420000000  0.4640720000000  0.4536030000000 1.0
C      1  0.5576840000000  0.5488810000000  0.4816130000000 1.0
C      1  0.3911970000000  0.4949810000000  0.5623860000000 1.0
C      1  0.4758720000000  0.4809240000000  0.4845600000000 1.0
C      1  0.5061910000000  0.5137210000000  0.5360590000000 1.0
C      1  0.5790130000000  0.4683900000000  0.4723610000000 1.0
C      1  0.5595540000000  0.4325350000000  0.4995320000000 1.0
C      1  0.4663740000000  0.4128180000000  0.4800790000000 1.0
C      1  0.5010650000000  0.5319380000000  0.4353330000000 1.0
C      1  0.5039660000000  0.5777360000000  0.4811540000000 1.0
C      1  0.4566260000000  0.5633330000000  0.5122500000000 1.0
C      1  0.5102090000000  0.4546210000000  0.5042760000000 1.0
C      1  0.4170600000000  0.4640690000000  0.5025230000000 1.0
C      1  0.5000080000000  0.5174610000000  0.6008780000000 1.0
C      1  0.5138180000000  0.4885270000000  0.3975640000000 1.0
C      1  0.4575720000000  0.4311050000000  0.4583190000000 1.0
C      1  0.5196880000000  0.5971470000000  0.5230690000000 1.0
C      1  0.4940670000000  0.4847220000000  0.4172230000000 1.0
C      1  0.5477440000000  0.5281900000000  0.5561120000000 1.0
C      1  0.5874940000000  0.5158590000000  0.5202430000000 1.0
C      1  0.4961130000000  0.4617040000000  0.4812040000000 1.0
C      1  0.4459380000000  0.5232000000000  0.5391220000000 1.0
C      1  0.5492520000000  0.5166760000000  0.4195510000000 1.0
C      1  0.4592850000000  0.5044890000000  0.4452080000000 1.0
C      1  0.4871710000000  0.4153150000000  0.5009410000000 1.0
C      1  0.5154640000000  0.4071940000000  0.5009440000000 1.0
C      1  0.4456220000000  0.4633470000000  0.4237520000000 1.0
C      1  0.4655840000000  0.5633460000000  0.4248200000000 1.0
C      1  0.4918170000000  0.4601320000000  0.4328320000000 1.0
C      1  0.4305740000000  0.5644490000000  0.4986340000000 1.0
C      1  0.3929610000000  0.4927840000000  0.5356360000000 1.0
C      1  0.5034010000000  0.5525870000000  0.4962050000000 1.0
C      1  0.4430300000000  0.3998910000000  0.4915440000000 1.0
C      1  0.5181890000000  0.4992890000000  0.5131510000000 1.0
C      1  0.5912290000000  0.4941460000000  0.4710930000000 1.0
C      1  0.4856140000000  0.5024640000000  0.5820500000000 1.0
C      1  0.5367000000000  0.4176940000000  0.5451020000000 1.0
C      1  0.5756930000000  0.4559940000000  0.4971900000000 1.0
C      1  0.5158230000000  0.5987470000000  0.4390070000000 1.0
C      1  0.5572940000000  0.5215600000000  0.4891940000000 1.0
C      1  0.5158060000000  0.4229910000000  0.5638250000000 1.0
C      1  0.5553680000000  0.5730950000000  0.4386070000000 1.0
C      1  0.5411820000000  0.4791770000000  0.5663050000000 1.0
C      1  0.4299430000000  0.4409700000000  0.5150640000000 1.0
C      1  0.5767810000000  0.4927800000000  0.5362360000000 1.0
C      1  0.5801560000000  0.5450820000000  0.5263300000000 1.0
C      1  0.5287650000000  0.5021950000000  0.4618940000000 1.0
C      1  0.5397190000000  0.5757400000000  0.5181260000000 1.0
C      1  0.4303260000000  0.4401400000000  0.4633320000000 1.0
C      1  0.5217300000000  0.5526550000000  0.5188270000000 1.0
C      1  0.4555450000000  0.4470710000000  0.5268620000000 1.0
C      1  0.4550080000000  0.5504130000000  0.5397780000000 1.0
C      1  0.5272510000000  0.3983390000000  0.5258700000000 1.0
C      1  0.5137780000000  0.5325190000000  0.6170890000000 1.0
C      1  0.5744460000000  0.4650810000000  0.5254690000000 1.0
C      1  0.5935930000000  0.5056650000000  0.4452810000000 1.0
C      1  0.4407290000000  0.4965480000000  0.5304370000000 1.0
C      1  0.5767770000000  0.5137460000000  0.4258310000000 1.0
C      1  0.5832800000000  0.5106140000000  0.4924570000000 1.0
C      1  0.4834100000000  0.5087750000000  0.4298380000000 1.0
C      1  0.4764900000000  0.5444350000000  0.4989050000000 1.0
C      1  0.5089740000000  0.5972800000000  0.5497320000000 1.0
C      1  0.4708810000000  0.5910370000000  0.5116720000000 1.0
C      1  0.4980690000000  0.4962500000000  0.5575420000000 1.0
C      1  0.5195780000000  0.4252440000000  0.5906730000000 1.0
C      1  0.5323070000000  0.4749760000000  0.4537860000000 1.0
C      1  0.5327680000000  0.5074800000000  0.4899080000000 1.0
C      1  0.4330680000000  0.4939270000000  0.5917940000000 1.0
C      1  0.4891800000000  0.5580840000000  0.4379080000000 1.0
C      1  0.5166780000000  0.4740280000000  0.5529930000000 1.0
C      1  0.5574250000000  0.5003470000000  0.5567130000000 1.0
C      1  0.4176050000000  0.4632980000000  0.4738740000000 1.0
C      1  0.4699910000000  0.5644650000000  0.5594650000000 1.0
C      1  0.4581490000000  0.4743230000000  0.5345770000000 1.0
C      1  0.3934420000000  0.5014620000000  0.4543040000000 1.0
C      1  0.4151040000000  0.4849040000000  0.4551260000000 1.0
C      1  0.4595190000000  0.4946760000000  0.5887690000000 1.0
C      1  0.5564910000000  0.4358290000000  0.5367790000000 1.0
C      1  0.4898010000000  0.5826710000000  0.5622200000000 1.0
C      1  0.5184400000000  0.4722750000000  0.5236910000000 1.0
C      1  0.5085120000000  0.4600280000000  0.4556220000000 1.0
C      1  0.4666520000000  0.4469720000000  0.4351620000000 1.0
C      1  0.4981390000000  0.5967200000000  0.5025650000000 1.0
C      1  0.5364110000000  0.5031270000000  0.3984290000000 1.0
C      1  0.4373880000000  0.4875150000000  0.4367980000000 1.0
C      1  0.4903760000000  0.4237500000000  0.5512830000000 1.0
C      1  0.4770050000000  0.4278230000000  0.5265320000000 1.0
C      1  0.5010590000000  0.5792390000000  0.4532300000000 1.0
C      1  0.4153170000000  0.4874540000000  0.5193670000000 1.0
C      1  0.5235390000000  0.5351660000000  0.5410640000000 1.0
C      1  0.4641540000000  0.5019260000000  0.4728970000000 1.0
C      1  0.5642240000000  0.5630150000000  0.5067830000000 1.0
C      1  0.4258240000000  0.4139630000000  0.5074100000000 1.0
C      1  0.5481850000000  0.5513390000000  0.4548310000000 1.0
C      1  0.5381600000000  0.4190730000000  0.4874530000000 1.0
C      1  0.5691140000000  0.5466380000000  0.5528570000000 1.0
END
