TITL C-599896-8500-1451 0.287114818712053 125000 -427.71978701396 0 0 71 (C1) n - 1
REM
REM in /home/nfs/bkarasulu/CARBON/AIRSS/Generating-Clusters/TERSOFF/Only-C1/FIRE-HFTN
REM
REM
REM
REM
REM
REM ./C.cell (11c1c37f851c82e70ff6c80c92926a4b)
REM AIRSS Version 0.9.1 bugfix July 2018 build 013d7b7c2542+ Fri, 06 Jul 2018 19:26:36 +0100
REM compiler GCC version 9.2.1 20190827 (Red Hat 9.2.1-1)
REM options -cpp -mtune=generic -march=x86-64 -g -O0 -fpre-include=/usr/include/finclude/math-vector-fortran.h
REM seed -1221606896 1245515314 2061582357 521617203 1597139214 -1109871418 -876218650 -988410046 350053528 1797411997 862804682 -2017239740 125177492 -1888177561 -396349576 1216172461 -940238643 -1304168831 -2012922946 -507606142 -546346210 179316194 540899440 311340246 -297300079 -675279209 -1642831213 1856998400 -1529612298 543989630 -1204569207 -1408213163 1454562508
REM
CELL 1.54180   50.00000   50.00000   50.00000   90.00000   90.00000   90.00000
LATT -1
SFAC C  
C      1  0.4854540000000  0.5135540000000  0.4696520000000 1.0
C      1  0.5349690000000  0.4503470000000  0.5498240000000 1.0
C      1  0.4368800000000  0.4964390000000  0.4478250000000 1.0
C      1  0.5691280000000  0.4679660000000  0.4308240000000 1.0
C      1  0.5046140000000  0.5013900000000  0.4244110000000 1.0
C      1  0.5070200000000  0.4110530000000  0.5752420000000 1.0
C      1  0.4140710000000  0.5373780000000  0.5714860000000 1.0
C      1  0.4740320000000  0.5776520000000  0.4559900000000 1.0
C      1  0.4615360000000  0.5130840000000  0.4868970000000 1.0
C      1  0.5211330000000  0.5079260000000  0.5046990000000 1.0
C      1  0.4438220000000  0.4146710000000  0.4368330000000 1.0
C      1  0.5180770000000  0.5386160000000  0.5776230000000 1.0
C      1  0.5761720000000  0.4463800000000  0.5224060000000 1.0
C      1  0.3912370000000  0.5251000000000  0.5011240000000 1.0
C      1  0.4441530000000  0.5489850000000  0.5359330000000 1.0
C      1  0.5937430000000  0.4733070000000  0.4776400000000 1.0
C      1  0.5448270000000  0.4712830000000  0.4203810000000 1.0
C      1  0.5172950000000  0.4960200000000  0.5531090000000 1.0
C      1  0.4653180000000  0.5089110000000  0.5151100000000 1.0
C      1  0.5039540000000  0.4584110000000  0.4470810000000 1.0
C      1  0.5095340000000  0.4938770000000  0.5262880000000 1.0
C      1  0.4119250000000  0.5123130000000  0.4872240000000 1.0
C      1  0.5886460000000  0.5473620000000  0.4814770000000 1.0
C      1  0.4949060000000  0.5745320000000  0.4721660000000 1.0
C      1  0.4172530000000  0.5437630000000  0.5441830000000 1.0
C      1  0.5540780000000  0.4819860000000  0.5815840000000 1.0
C      1  0.5900870000000  0.5223400000000  0.4947670000000 1.0
C      1  0.5862030000000  0.4677330000000  0.4512480000000 1.0
C      1  0.4623410000000  0.5270050000000  0.5370110000000 1.0
C      1  0.4824580000000  0.5064440000000  0.4416440000000 1.0
C      1  0.5415260000000  0.5271520000000  0.5054900000000 1.0
C      1  0.4362360000000  0.5066790000000  0.4747910000000 1.0
C      1  0.4538220000000  0.5748810000000  0.5319470000000 1.0
C      1  0.4620810000000  0.4858830000000  0.4400140000000 1.0
C      1  0.3979540000000  0.5383610000000  0.5248620000000 1.0
C      1  0.5113730000000  0.4744130000000  0.4718520000000 1.0
C      1  0.4349090000000  0.5594230000000  0.4264780000000 1.0
C      1  0.5478550000000  0.4438360000000  0.5250270000000 1.0
C      1  0.4319540000000  0.5267530000000  0.5886330000000 1.0
C      1  0.5873790000000  0.4556830000000  0.4984650000000 1.0
C      1  0.5249900000000  0.4266970000000  0.4787320000000 1.0
C      1  0.5159010000000  0.4116140000000  0.4326610000000 1.0
C      1  0.3655620000000  0.5246920000000  0.4918560000000 1.0
C      1  0.5400980000000  0.5522000000000  0.4910480000000 1.0
C      1  0.4946230000000  0.5986830000000  0.5511300000000 1.0
C      1  0.5136720000000  0.5879540000000  0.5664250000000 1.0
C      1  0.5335830000000  0.4328920000000  0.5032700000000 1.0
C      1  0.5928310000000  0.4390800000000  0.5436120000000 1.0
C      1  0.4576490000000  0.5196960000000  0.5848340000000 1.0
C      1  0.4222040000000  0.5364910000000  0.4214060000000 1.0
C      1  0.5222180000000  0.5649410000000  0.5768670000000 1.0
C      1  0.6075060000000  0.4326090000000  0.5641530000000 1.0
C      1  0.5162930000000  0.5654290000000  0.4850640000000 1.0
C      1  0.5150280000000  0.4310920000000  0.4525810000000 1.0
C      1  0.4823770000000  0.4871610000000  0.5216470000000 1.0
C      1  0.4582500000000  0.4362540000000  0.4390800000000 1.0
C      1  0.5086950000000  0.5010150000000  0.4805110000000 1.0
C      1  0.5357570000000  0.4763830000000  0.5620580000000 1.0
C      1  0.4217060000000  0.5107220000000  0.4288690000000 1.0
C      1  0.6020380000000  0.4993110000000  0.4845130000000 1.0
C      1  0.4752300000000  0.5207850000000  0.5626780000000 1.0
C      1  0.4734820000000  0.4593940000000  0.4417840000000 1.0
C      1  0.5036610000000  0.5172230000000  0.5666410000000 1.0
C      1  0.5678400000000  0.5187740000000  0.5122480000000 1.0
C      1  0.4933990000000  0.3922960000000  0.5871700000000 1.0
C      1  0.4535700000000  0.5731780000000  0.4395890000000 1.0
C      1  0.5177890000000  0.4758420000000  0.4258170000000 1.0
C      1  0.5160860000000  0.3943240000000  0.4131660000000 1.0
C      1  0.5208080000000  0.4301160000000  0.5630660000000 1.0
C      1  0.4721150000000  0.5933070000000  0.5378840000000 1.0
C      1  0.5650810000000  0.5609500000000  0.4803960000000 1.0
END
