TITL C-599896-8500-1282 -0.171701821474396 125000 -157.241867920617 0 0 27 (C1) n - 1
REM
REM in /home/nfs/bkarasulu/CARBON/AIRSS/Generating-Clusters/TERSOFF/Only-C1/FIRE-HFTN
REM
REM
REM
REM
REM
REM ./C.cell (11c1c37f851c82e70ff6c80c92926a4b)
REM AIRSS Version 0.9.1 bugfix July 2018 build 013d7b7c2542+ Fri, 06 Jul 2018 19:26:36 +0100
REM compiler GCC version 9.2.1 20190827 (Red Hat 9.2.1-1)
REM options -cpp -mtune=generic -march=x86-64 -g -O0 -fpre-include=/usr/include/finclude/math-vector-fortran.h
REM seed 413685815 -1860371703 -42782977 -1953833421 385727962 1893922105 -850220379 1870583240 -2006577307 1240449792 101712044 128363199 1007372655 2073642888 -1059771447 1557782516 1638650861 1692832590 719388618 -1078619257 1149917513 -33665994 -2067334475 -2074465789 1544439029 1352518812 1447970547 1431952216 2026878145 -568354511 38026695 436043831 656060844
REM
CELL 1.54180   50.00000   50.00000   50.00000   90.00000   90.00000   90.00000
LATT -1
SFAC C  
C      1  0.5395040000000  0.5391690000000  0.4834910000000 1.0
C      1  0.5576460000000  0.4751090000000  0.4799180000000 1.0
C      1  0.5414010000000  0.5347160000000  0.5099490000000 1.0
C      1  0.5094530000000  0.4663400000000  0.4831960000000 1.0
C      1  0.4669780000000  0.4010480000000  0.5046830000000 1.0
C      1  0.5005680000000  0.4841100000000  0.4624960000000 1.0
C      1  0.4417840000000  0.5777800000000  0.5845630000000 1.0
C      1  0.5635020000000  0.4915550000000  0.4591740000000 1.0
C      1  0.4948830000000  0.4438190000000  0.4905380000000 1.0
C      1  0.4641930000000  0.5437500000000  0.5491480000000 1.0
C      1  0.4894040000000  0.5326890000000  0.5541250000000 1.0
C      1  0.4809370000000  0.4224420000000  0.4976090000000 1.0
C      1  0.5338320000000  0.4883120000000  0.5198250000000 1.0
C      1  0.5074320000000  0.4790320000000  0.4351890000000 1.0
C      1  0.4532490000000  0.3800070000000  0.5116410000000 1.0
C      1  0.4505660000000  0.5373160000000  0.5249460000000 1.0
C      1  0.4234020000000  0.5338820000000  0.5248840000000 1.0
C      1  0.5290780000000  0.4929530000000  0.4256650000000 1.0
C      1  0.4813950000000  0.5257440000000  0.4819660000000 1.0
C      1  0.4651920000000  0.5340510000000  0.5012620000000 1.0
C      1  0.5442870000000  0.5073310000000  0.4453030000000 1.0
C      1  0.5279070000000  0.5238430000000  0.4629200000000 1.0
C      1  0.5314070000000  0.5152440000000  0.5278280000000 1.0
C      1  0.4527160000000  0.5613520000000  0.5675400000000 1.0
C      1  0.5017920000000  0.5123660000000  0.4685980000000 1.0
C      1  0.5131570000000  0.5228390000000  0.5475060000000 1.0
C      1  0.5343380000000  0.4732030000000  0.4960370000000 1.0
END
