TITL C-599893-4344-1241 0.00297744695393138 125000 -375.07715072202 0 0 62 (C1) n - 1
REM
REM in /home/nfs/bkarasulu/CARBON/AIRSS/Generating-Clusters/TERSOFF/Only-C1/FIRE-HFTN
REM
REM
REM
REM
REM
REM ./C.cell (11c1c37f851c82e70ff6c80c92926a4b)
REM AIRSS Version 0.9.1 bugfix July 2018 build 013d7b7c2542+ Fri, 06 Jul 2018 19:26:36 +0100
REM compiler GCC version 9.2.1 20190827 (Red Hat 9.2.1-1)
REM options -cpp -mtune=generic -march=x86-64 -g -O0 -fpre-include=/usr/include/finclude/math-vector-fortran.h
REM seed 1936523763 -498103940 1373579136 -496722245 593943794 349658547 -1682677403 -660257929 863951836 -644962991 849161375 -1850080027 -482480338 71403650 -1131669477 1366291207 929150653 1329226961 770870612 -1130279936 -1164231420 -1444905492 -1428406851 1809904019 -581556398 -1074625583 624314012 1702757395 -397551728 1162876259 942209187 753945190 -950885768
REM
CELL 1.54180   50.00000   50.00000   50.00000   90.00000   90.00000   90.00000
LATT -1
SFAC C  
C      1  0.4635070000000  0.5341190000000  0.5557740000000 1.0
C      1  0.5889990000000  0.4839420000000  0.5309490000000 1.0
C      1  0.4908820000000  0.5289330000000  0.4425290000000 1.0
C      1  0.5051610000000  0.5817200000000  0.5804930000000 1.0
C      1  0.5062760000000  0.4538690000000  0.4474820000000 1.0
C      1  0.5187920000000  0.4073290000000  0.4556040000000 1.0
C      1  0.5002150000000  0.5552290000000  0.5819730000000 1.0
C      1  0.4696560000000  0.4850230000000  0.5596410000000 1.0
C      1  0.5443430000000  0.5292610000000  0.4609620000000 1.0
C      1  0.5353990000000  0.5278620000000  0.5376570000000 1.0
C      1  0.4934060000000  0.4256190000000  0.5259780000000 1.0
C      1  0.5016440000000  0.5990780000000  0.5601850000000 1.0
C      1  0.5031760000000  0.6000310000000  0.5081880000000 1.0
C      1  0.5436450000000  0.4803040000000  0.4582870000000 1.0
C      1  0.5274520000000  0.4588320000000  0.4658780000000 1.0
C      1  0.5558430000000  0.4508710000000  0.5539790000000 1.0
C      1  0.4045720000000  0.5159600000000  0.4481140000000 1.0
C      1  0.5344320000000  0.4350220000000  0.5451740000000 1.0
C      1  0.4613900000000  0.3969430000000  0.4346510000000 1.0
C      1  0.5311380000000  0.5050120000000  0.4524040000000 1.0
C      1  0.4483090000000  0.5280800000000  0.5030460000000 1.0
C      1  0.5046320000000  0.4777530000000  0.5038880000000 1.0
C      1  0.4725360000000  0.5419560000000  0.5014930000000 1.0
C      1  0.5047060000000  0.4409630000000  0.5496640000000 1.0
C      1  0.4556030000000  0.5071980000000  0.5463990000000 1.0
C      1  0.4685810000000  0.5698250000000  0.5036040000000 1.0
C      1  0.4959050000000  0.5283660000000  0.5118710000000 1.0
C      1  0.4824930000000  0.5903720000000  0.4900100000000 1.0
C      1  0.4838490000000  0.4689890000000  0.5203670000000 1.0
C      1  0.5377590000000  0.4210380000000  0.5186810000000 1.0
C      1  0.4528430000000  0.5598670000000  0.5485820000000 1.0
C      1  0.3871140000000  0.5318380000000  0.4370380000000 1.0
C      1  0.5079060000000  0.5359670000000  0.5384100000000 1.0
C      1  0.4431580000000  0.4820760000000  0.5005050000000 1.0
C      1  0.5179330000000  0.4557490000000  0.4920610000000 1.0
C      1  0.4902250000000  0.5962870000000  0.5346990000000 1.0
C      1  0.5037630000000  0.5517980000000  0.4496700000000 1.0
C      1  0.4916860000000  0.5378770000000  0.5614440000000 1.0
C      1  0.4425150000000  0.4847320000000  0.4715480000000 1.0
C      1  0.5023820000000  0.5032090000000  0.4455980000000 1.0
C      1  0.4881690000000  0.4656350000000  0.5489800000000 1.0
C      1  0.5290970000000  0.5535500000000  0.4625750000000 1.0
C      1  0.5127960000000  0.5046320000000  0.5044330000000 1.0
C      1  0.5487190000000  0.4040060000000  0.4985390000000 1.0
C      1  0.4884550000000  0.4774860000000  0.4466100000000 1.0
C      1  0.4993870000000  0.4260030000000  0.4456950000000 1.0
C      1  0.4590640000000  0.4612660000000  0.5099620000000 1.0
C      1  0.5868830000000  0.5160200000000  0.4898000000000 1.0
C      1  0.4714530000000  0.4210420000000  0.4424030000000 1.0
C      1  0.5132510000000  0.4309610000000  0.5052410000000 1.0
C      1  0.5287240000000  0.5928140000000  0.4987430000000 1.0
C      1  0.5933630000000  0.5004730000000  0.5104850000000 1.0
C      1  0.5378230000000  0.4000930000000  0.4736410000000 1.0
C      1  0.5699520000000  0.5270360000000  0.4723600000000 1.0
C      1  0.4662820000000  0.5785410000000  0.5316680000000 1.0
C      1  0.4549930000000  0.4435790000000  0.4477600000000 1.0
C      1  0.5358920000000  0.5747760000000  0.4799060000000 1.0
C      1  0.4612330000000  0.4706940000000  0.4544490000000 1.0
C      1  0.4225120000000  0.5001650000000  0.4595360000000 1.0
C      1  0.5754540000000  0.4676230000000  0.5471060000000 1.0
C      1  0.5384420000000  0.5098000000000  0.5171330000000 1.0
C      1  0.4442340000000  0.5049020000000  0.5184960000000 1.0
END
