TITL C-599890-3321-1387 324.849397271139 125000 -994.407863350835 0 0 161 (C1) n - 1
REM
REM in /home/nfs/bkarasulu/CARBON/AIRSS/Generating-Clusters/TERSOFF/Only-C1/FIRE-HFTN
REM
REM
REM
REM
REM
REM ./C.cell (11c1c37f851c82e70ff6c80c92926a4b)
REM AIRSS Version 0.9.1 bugfix July 2018 build 013d7b7c2542+ Fri, 06 Jul 2018 19:26:36 +0100
REM compiler GCC version 9.2.1 20190827 (Red Hat 9.2.1-1)
REM options -cpp -mtune=generic -march=x86-64 -g -O0 -fpre-include=/usr/include/finclude/math-vector-fortran.h
REM seed 2062197353 965063920 1123960530 1882890979 748043629 -603783762 -1905368057 479134797 1799761667 -1267071090 1878562406 1016956924 100386996 297435782 1373586442 1334325509 1270615036 -850041159 -905910640 1168150985 -1804142402 -575898349 1406304285 -452261279 -1868584858 36108155 505185074 674002905 -1373942517 734946785 -1142898185 1220924538 556554552
REM
CELL 1.54180   50.00000   50.00000   50.00000   90.00000   90.00000   90.00000
LATT -1
SFAC C  
C      1  0.5844080000000  0.5447590000000  0.4755700000000 1.0
C      1  0.4489690000000  0.5607450000000  0.4181450000000 1.0
C      1  0.5592610000000  0.4269950000000  0.4589380000000 1.0
C      1  0.5321850000000  0.4650970000000  0.5026100000000 1.0
C      1  0.4571930000000  0.6094720000000  0.4282210000000 1.0
C      1  0.5248760000000  0.4516900000000  0.5555960000000 1.0
C      1  0.4800090000000  0.4338080000000  0.4693790000000 1.0
C      1  0.4853570000000  0.4817650000000  0.4667640000000 1.0
C      1  0.4855970000000  0.5656070000000  0.5066830000000 1.0
C      1  0.4009990000000  0.5644930000000  0.4821960000000 1.0
C      1  0.4623390000000  0.6081410000000  0.4777440000000 1.0
C      1  0.5096450000000  0.5831630000000  0.4339140000000 1.0
C      1  0.5000400000000  0.6113240000000  0.5333220000000 1.0
C      1  0.5233820000000  0.4262740000000  0.5306870000000 1.0
C      1  0.4117080000000  0.5063130000000  0.5035950000000 1.0
C      1  0.5737460000000  0.4990230000000  0.4368670000000 1.0
C      1  0.4436650000000  0.5584350000000  0.5335600000000 1.0
C      1  0.4941910000000  0.4169900000000  0.5198830000000 1.0
C      1  0.5870240000000  0.4373510000000  0.5243080000000 1.0
C      1  0.5045310000000  0.5597270000000  0.5962030000000 1.0
C      1  0.4934500000000  0.5891180000000  0.5509490000000 1.0
C      1  0.4908720000000  0.5428440000000  0.5454390000000 1.0
C      1  0.5572540000000  0.4244940000000  0.4880200000000 1.0
C      1  0.5063990000000  0.5281400000000  0.3340250000000 1.0
C      1  0.4213800000000  0.6005910000000  0.5055630000000 1.0
C      1  0.5033350000000  0.5816520000000  0.3849150000000 1.0
C      1  0.5013920000000  0.5033380000000  0.4743380000000 1.0
C      1  0.4616000000000  0.4692120000000  0.5295620000000 1.0
C      1  0.5042380000000  0.4540550000000  0.5762640000000 1.0
C      1  0.5306500000000  0.4253260000000  0.6357230000000 1.0
C      1  0.5464620000000  0.4046420000000  0.6299790000000 1.0
C      1  0.4420740000000  0.5363540000000  0.5965760000000 1.0
C      1  0.4787780000000  0.5251880000000  0.4303510000000 1.0
C      1  0.5808830000000  0.4655070000000  0.5217260000000 1.0
C      1  0.5212380000000  0.4532740000000  0.4510930000000 1.0
C      1  0.4461620000000  0.6100660000000  0.4538460000000 1.0
C      1  0.5097670000000  0.5236410000000  0.5388050000000 1.0
C      1  0.4850910000000  0.3437580000000  0.5214310000000 1.0
C      1  0.5640390000000  0.4092750000000  0.5580970000000 1.0
C      1  0.4964050000000  0.5507170000000  0.4858400000000 1.0
C      1  0.5410380000000  0.4040490000000  0.5416850000000 1.0
C      1  0.4312820000000  0.4741440000000  0.4614410000000 1.0
C      1  0.4867290000000  0.3180590000000  0.5151820000000 1.0
C      1  0.5352680000000  0.5352520000000  0.5336970000000 1.0
C      1  0.5191540000000  0.4465320000000  0.6245140000000 1.0
C      1  0.4162810000000  0.4659740000000  0.5669960000000 1.0
C      1  0.5778950000000  0.4469900000000  0.4470020000000 1.0
C      1  0.5439310000000  0.5483730000000  0.5105050000000 1.0
C      1  0.6018340000000  0.4549250000000  0.4606890000000 1.0
C      1  0.4147970000000  0.5636770000000  0.5330280000000 1.0
C      1  0.4642140000000  0.5386700000000  0.4079160000000 1.0
C      1  0.5387840000000  0.5314890000000  0.4877760000000 1.0
C      1  0.4684110000000  0.4204400000000  0.4233430000000 1.0
C      1  0.5782450000000  0.5423260000000  0.6055270000000 1.0
C      1  0.4953230000000  0.5068690000000  0.5963190000000 1.0
C      1  0.5525830000000  0.5748760000000  0.5018200000000 1.0
C      1  0.4970650000000  0.5334900000000  0.6050990000000 1.0
C      1  0.5145680000000  0.4620950000000  0.6022450000000 1.0
C      1  0.4629940000000  0.4512270000000  0.5089590000000 1.0
C      1  0.5370030000000  0.3782030000000  0.5332340000000 1.0
C      1  0.5460450000000  0.4735920000000  0.5587460000000 1.0
C      1  0.5076360000000  0.5250210000000  0.4216130000000 1.0
C      1  0.4884470000000  0.2923630000000  0.5089090000000 1.0
C      1  0.4328540000000  0.5219580000000  0.4947950000000 1.0
C      1  0.4622460000000  0.5414580000000  0.5526360000000 1.0
C      1  0.4791680000000  0.4678810000000  0.5726940000000 1.0
C      1  0.3842640000000  0.5158290000000  0.5039840000000 1.0
C      1  0.5815290000000  0.4211130000000  0.5020270000000 1.0
C      1  0.5594350000000  0.3942530000000  0.6091580000000 1.0
C      1  0.5042020000000  0.5223080000000  0.3928440000000 1.0
C      1  0.5868220000000  0.4245840000000  0.5497320000000 1.0
C      1  0.5962390000000  0.4997920000000  0.5865190000000 1.0
C      1  0.4564450000000  0.5121670000000  0.5533650000000 1.0
C      1  0.4672930000000  0.5199970000000  0.3596240000000 1.0
C      1  0.5535760000000  0.5448170000000  0.5920430000000 1.0
C      1  0.4837990000000  0.4401360000000  0.3768450000000 1.0
C      1  0.6047860000000  0.5299630000000  0.4581130000000 1.0
C      1  0.5723850000000  0.4775550000000  0.5466080000000 1.0
C      1  0.5974670000000  0.5422930000000  0.5023890000000 1.0
C      1  0.5777130000000  0.4780690000000  0.4949560000000 1.0
C      1  0.3725860000000  0.5126750000000  0.4786280000000 1.0
C      1  0.5115400000000  0.5713790000000  0.3616360000000 1.0
C      1  0.5595920000000  0.5280000000000  0.4697070000000 1.0
C      1  0.4362020000000  0.4457850000000  0.5635560000000 1.0
C      1  0.4876440000000  0.5089270000000  0.3427570000000 1.0
C      1  0.4952810000000  0.5671550000000  0.5329580000000 1.0
C      1  0.4770990000000  0.5290130000000  0.3842580000000 1.0
C      1  0.4131030000000  0.4990210000000  0.4501450000000 1.0
C      1  0.4484410000000  0.5953000000000  0.4990420000000 1.0
C      1  0.4646180000000  0.5852790000000  0.4160800000000 1.0
C      1  0.5543080000000  0.5207360000000  0.4421100000000 1.0
C      1  0.5345570000000  0.5980440000000  0.4973770000000 1.0
C      1  0.4302930000000  0.5224060000000  0.4431480000000 1.0
C      1  0.4982980000000  0.5003310000000  0.5277930000000 1.0
C      1  0.4928820000000  0.5833150000000  0.4109660000000 1.0
C      1  0.4205470000000  0.4864250000000  0.5888740000000 1.0
C      1  0.4051300000000  0.4762650000000  0.5415240000000 1.0
C      1  0.4598490000000  0.4293790000000  0.4487460000000 1.0
C      1  0.4767170000000  0.4264480000000  0.3986450000000 1.0
C      1  0.5985990000000  0.4803490000000  0.4741190000000 1.0
C      1  0.5476390000000  0.5215470000000  0.5770590000000 1.0
C      1  0.4563680000000  0.5671290000000  0.5064920000000 1.0
C      1  0.5923330000000  0.4943880000000  0.5590970000000 1.0
C      1  0.5138690000000  0.5524690000000  0.3428010000000 1.0
C      1  0.4208860000000  0.5971130000000  0.4540340000000 1.0
C      1  0.5361570000000  0.4369250000000  0.5049880000000 1.0
C      1  0.6293190000000  0.4311810000000  0.5823350000000 1.0
C      1  0.5971680000000  0.5024670000000  0.4546390000000 1.0
C      1  0.4411730000000  0.5215950000000  0.3520830000000 1.0
C      1  0.4281240000000  0.5513960000000  0.4381450000000 1.0
C      1  0.4210860000000  0.4650110000000  0.4891080000000 1.0
C      1  0.5635370000000  0.4722270000000  0.4385860000000 1.0
C      1  0.4295270000000  0.5113110000000  0.5982720000000 1.0
C      1  0.6070770000000  0.5107550000000  0.5416810000000 1.0
C      1  0.5323890000000  0.5364930000000  0.4313220000000 1.0
C      1  0.5353880000000  0.6008980000000  0.4677000000000 1.0
C      1  0.4059980000000  0.5764110000000  0.5081900000000 1.0
C      1  0.5519690000000  0.5800390000000  0.4549930000000 1.0
C      1  0.4259970000000  0.5138460000000  0.5533060000000 1.0
C      1  0.5189510000000  0.4900340000000  0.5979960000000 1.0
C      1  0.4788860000000  0.3963990000000  0.5333280000000 1.0
C      1  0.5413740000000  0.4727210000000  0.4570350000000 1.0
C      1  0.5334590000000  0.5654320000000  0.4366380000000 1.0
C      1  0.5500850000000  0.4768710000000  0.4844880000000 1.0
C      1  0.5649370000000  0.3969700000000  0.5833170000000 1.0
C      1  0.3789930000000  0.5168160000000  0.5320230000000 1.0
C      1  0.4601810000000  0.4578400000000  0.5552690000000 1.0
C      1  0.4578570000000  0.5130780000000  0.4454810000000 1.0
C      1  0.5080110000000  0.6093520000000  0.5052580000000 1.0
C      1  0.3993850000000  0.5047700000000  0.5480390000000 1.0
C      1  0.6091090000000  0.4270230000000  0.5664170000000 1.0
C      1  0.4132740000000  0.4784730000000  0.5128200000000 1.0
C      1  0.3859510000000  0.5031950000000  0.4569110000000 1.0
C      1  0.4910680000000  0.6095380000000  0.4794730000000 1.0
C      1  0.4959080000000  0.4562720000000  0.4616440000000 1.0
C      1  0.5118110000000  0.5280590000000  0.4811380000000 1.0
C      1  0.6078240000000  0.5295640000000  0.5230970000000 1.0
C      1  0.4891550000000  0.4582030000000  0.3579340000000 1.0
C      1  0.4697040000000  0.4964950000000  0.5305430000000 1.0
C      1  0.4913210000000  0.4811530000000  0.3444000000000 1.0
C      1  0.5388820000000  0.4949900000000  0.5779540000000 1.0
C      1  0.4561560000000  0.4024120000000  0.5491290000000 1.0
C      1  0.4901360000000  0.2670920000000  0.5027290000000 1.0
C      1  0.4372460000000  0.4178990000000  0.5605300000000 1.0
C      1  0.4139810000000  0.5695540000000  0.4566450000000 1.0
C      1  0.5325790000000  0.5635210000000  0.5952230000000 1.0
C      1  0.5944760000000  0.5207070000000  0.6034790000000 1.0
C      1  0.4463690000000  0.5443870000000  0.4896970000000 1.0
C      1  0.5334930000000  0.4280850000000  0.4465520000000 1.0
C      1  0.4591330000000  0.5543460000000  0.5803050000000 1.0
C      1  0.6266730000000  0.5418930000000  0.4472820000000 1.0
C      1  0.4373000000000  0.4471510000000  0.4485530000000 1.0
C      1  0.5139170000000  0.4803880000000  0.5165260000000 1.0
C      1  0.4593250000000  0.4883860000000  0.4593630000000 1.0
C      1  0.5699960000000  0.5715940000000  0.4765690000000 1.0
C      1  0.4793290000000  0.4309320000000  0.4982540000000 1.0
C      1  0.4840350000000  0.3694910000000  0.5276420000000 1.0
C      1  0.3989850000000  0.5635870000000  0.5553340000000 1.0
C      1  0.5083010000000  0.6018930000000  0.4566210000000 1.0
C      1  0.4835020000000  0.5728620000000  0.5809290000000 1.0
C      1  0.4753090000000  0.4959660000000  0.5792280000000 1.0
END
