TITL C-599892-9790-885 0.0471741182283004 125000 -655.872056465515 0 0 110 (C1) n - 1
REM
REM in /home/nfs/bkarasulu/CARBON/AIRSS/Generating-Clusters/TERSOFF/Only-C1/FIRE-HFTN
REM
REM
REM
REM
REM
REM ./C.cell (11c1c37f851c82e70ff6c80c92926a4b)
REM AIRSS Version 0.9.1 bugfix July 2018 build 013d7b7c2542+ Fri, 06 Jul 2018 19:26:36 +0100
REM compiler GCC version 9.2.1 20190827 (Red Hat 9.2.1-1)
REM options -cpp -mtune=generic -march=x86-64 -g -O0 -fpre-include=/usr/include/finclude/math-vector-fortran.h
REM seed 3934669 -1112194780 -1193039616 1110855540 1700476784 -869302231 471230353 87778574 1239957284 -593350721 1482176496 522064832 864039136 -1994469582 2147029000 350993102 -833730733 -1949790578 1731703679 -1714564627 -1840338249 -581358097 617831210 1199036024 -619486821 -1217537049 -1930109824 492705242 -1098464249 1686880296 1574634851 -199845175 1918875424
REM
CELL 1.54180   50.00000   50.00000   50.00000   90.00000   90.00000   90.00000
LATT -1
SFAC C  
C      1  0.5732480000000  0.4977000000000  0.5822810000000 1.0
C      1  0.5905790000000  0.4565910000000  0.4926240000000 1.0
C      1  0.5249890000000  0.4263080000000  0.5765350000000 1.0
C      1  0.5506640000000  0.4289310000000  0.4849060000000 1.0
C      1  0.5640190000000  0.5436140000000  0.4560570000000 1.0
C      1  0.3644800000000  0.4107920000000  0.5360180000000 1.0
C      1  0.5237680000000  0.4229520000000  0.4742750000000 1.0
C      1  0.4269850000000  0.4783670000000  0.4464640000000 1.0
C      1  0.5687710000000  0.4499970000000  0.4739390000000 1.0
C      1  0.4951710000000  0.5973280000000  0.4574120000000 1.0
C      1  0.4348680000000  0.4638480000000  0.4699760000000 1.0
C      1  0.4493610000000  0.5216450000000  0.4886480000000 1.0
C      1  0.5177610000000  0.4877740000000  0.4733870000000 1.0
C      1  0.4153720000000  0.4859330000000  0.5133630000000 1.0
C      1  0.3919900000000  0.5414180000000  0.5349310000000 1.0
C      1  0.4656920000000  0.4486690000000  0.4329910000000 1.0
C      1  0.4682730000000  0.4839500000000  0.5202900000000 1.0
C      1  0.5834080000000  0.5079850000000  0.6053470000000 1.0
C      1  0.5490840000000  0.4850480000000  0.5092110000000 1.0
C      1  0.5203760000000  0.5202800000000  0.5022630000000 1.0
C      1  0.4867990000000  0.5498860000000  0.4877810000000 1.0
C      1  0.4916990000000  0.4635360000000  0.4291830000000 1.0
C      1  0.5361670000000  0.5042710000000  0.4322060000000 1.0
C      1  0.4865540000000  0.4027850000000  0.5387450000000 1.0
C      1  0.5109920000000  0.5696950000000  0.5709540000000 1.0
C      1  0.5810530000000  0.5279440000000  0.5436190000000 1.0
C      1  0.4646190000000  0.4568660000000  0.5296340000000 1.0
C      1  0.4586770000000  0.4460190000000  0.4634230000000 1.0
C      1  0.5265600000000  0.3924960000000  0.6173000000000 1.0
C      1  0.4531580000000  0.6266500000000  0.4745110000000 1.0
C      1  0.4054280000000  0.5477000000000  0.4665950000000 1.0
C      1  0.4122650000000  0.5258970000000  0.5496890000000 1.0
C      1  0.5449840000000  0.5633010000000  0.4464510000000 1.0
C      1  0.4552170000000  0.5681780000000  0.5242030000000 1.0
C      1  0.4591600000000  0.5464340000000  0.4800810000000 1.0
C      1  0.5260840000000  0.4095810000000  0.5970430000000 1.0
C      1  0.5353190000000  0.5003350000000  0.4913090000000 1.0
C      1  0.4422050000000  0.4671410000000  0.4245740000000 1.0
C      1  0.4051840000000  0.5613330000000  0.5186580000000 1.0
C      1  0.5409360000000  0.4682190000000  0.5576110000000 1.0
C      1  0.4895930000000  0.4912290000000  0.4353240000000 1.0
C      1  0.4293200000000  0.4388300000000  0.5568380000000 1.0
C      1  0.5499060000000  0.4813050000000  0.5811210000000 1.0
C      1  0.5838710000000  0.4775460000000  0.5388550000000 1.0
C      1  0.5260610000000  0.4443180000000  0.5553250000000 1.0
C      1  0.4133920000000  0.5026880000000  0.4473280000000 1.0
C      1  0.5145390000000  0.5876300000000  0.4761370000000 1.0
C      1  0.5609900000000  0.5164930000000  0.4468950000000 1.0
C      1  0.4267730000000  0.4393470000000  0.5094840000000 1.0
C      1  0.5670760000000  0.5951420000000  0.5081810000000 1.0
C      1  0.4560640000000  0.4376100000000  0.5086200000000 1.0
C      1  0.5404100000000  0.5846730000000  0.4652730000000 1.0
C      1  0.4521800000000  0.5364740000000  0.4085870000000 1.0
C      1  0.4721060000000  0.4171590000000  0.5568480000000 1.0
C      1  0.5868970000000  0.5542940000000  0.5052550000000 1.0
C      1  0.5551460000000  0.4763870000000  0.5345280000000 1.0
C      1  0.5059050000000  0.5677640000000  0.4145900000000 1.0
C      1  0.4746950000000  0.6145430000000  0.4649410000000 1.0
C      1  0.5191820000000  0.4535350000000  0.4317620000000 1.0
C      1  0.5042110000000  0.5407530000000  0.4064770000000 1.0
C      1  0.5032910000000  0.4149800000000  0.5194930000000 1.0
C      1  0.4776510000000  0.5325980000000  0.4013920000000 1.0
C      1  0.5629850000000  0.5595800000000  0.5468250000000 1.0
C      1  0.4936920000000  0.5222930000000  0.4950380000000 1.0
C      1  0.5096960000000  0.4600440000000  0.5120920000000 1.0
C      1  0.6029450000000  0.5103710000000  0.4995740000000 1.0
C      1  0.4150650000000  0.5308600000000  0.4459040000000 1.0
C      1  0.5114350000000  0.5016410000000  0.4497050000000 1.0
C      1  0.4032820000000  0.5597260000000  0.4905990000000 1.0
C      1  0.4214870000000  0.4640950000000  0.4955470000000 1.0
C      1  0.5638180000000  0.5860420000000  0.4813510000000 1.0
C      1  0.5044400000000  0.4677180000000  0.4869390000000 1.0
C      1  0.5982080000000  0.5006020000000  0.4750400000000 1.0
C      1  0.5652480000000  0.4689210000000  0.4522690000000 1.0
C      1  0.3883480000000  0.4212150000000  0.5351100000000 1.0
C      1  0.4540670000000  0.5553260000000  0.5769630000000 1.0
C      1  0.4653580000000  0.3992040000000  0.4078860000000 1.0
C      1  0.5221660000000  0.5621810000000  0.5228750000000 1.0
C      1  0.5250180000000  0.5333210000000  0.5254710000000 1.0
C      1  0.4170030000000  0.5011110000000  0.5360540000000 1.0
C      1  0.4313850000000  0.5402870000000  0.4249170000000 1.0
C      1  0.4723220000000  0.5482070000000  0.5304570000000 1.0
C      1  0.5760230000000  0.5737420000000  0.5249370000000 1.0
C      1  0.5850350000000  0.5021030000000  0.5563000000000 1.0
C      1  0.5212600000000  0.4294230000000  0.4466770000000 1.0
C      1  0.4840700000000  0.5553770000000  0.5735160000000 1.0
C      1  0.5428320000000  0.4722870000000  0.4324660000000 1.0
C      1  0.4291250000000  0.5668620000000  0.5346630000000 1.0
C      1  0.5106990000000  0.5230170000000  0.5475460000000 1.0
C      1  0.5256600000000  0.5220770000000  0.4100640000000 1.0
C      1  0.5612820000000  0.4181270000000  0.5094720000000 1.0
C      1  0.4986440000000  0.4186500000000  0.4904160000000 1.0
C      1  0.5927530000000  0.5296460000000  0.5171400000000 1.0
C      1  0.5799330000000  0.4287600000000  0.5267540000000 1.0
C      1  0.5067270000000  0.5696690000000  0.4974040000000 1.0
C      1  0.4135870000000  0.4326160000000  0.5338370000000 1.0
C      1  0.4576390000000  0.4416750000000  0.5539650000000 1.0
C      1  0.5779920000000  0.4950330000000  0.4564370000000 1.0
C      1  0.5769850000000  0.5587930000000  0.4784630000000 1.0
C      1  0.4700810000000  0.5057040000000  0.5016000000000 1.0
C      1  0.4976450000000  0.5870740000000  0.4312030000000 1.0
C      1  0.5148510000000  0.4391460000000  0.5298540000000 1.0
C      1  0.4310890000000  0.5484590000000  0.5589420000000 1.0
C      1  0.5923640000000  0.4547660000000  0.5218200000000 1.0
C      1  0.4716720000000  0.4313800000000  0.4850300000000 1.0
C      1  0.4863250000000  0.5359200000000  0.5518340000000 1.0
C      1  0.5269610000000  0.3756580000000  0.6372000000000 1.0
C      1  0.5332080000000  0.5694180000000  0.5501280000000 1.0
C      1  0.4313430000000  0.6364720000000  0.4848660000000 1.0
C      1  0.4650680000000  0.4227060000000  0.4191100000000 1.0
END
