TITL C-599894-471-830 0.000143214321329622 125000 -808.987050859216 0 0 133 (C1) n - 1
REM
REM in /home/nfs/bkarasulu/CARBON/AIRSS/Generating-Clusters/TERSOFF/Only-C1/FIRE-HFTN
REM
REM
REM
REM
REM
REM ./C.cell (11c1c37f851c82e70ff6c80c92926a4b)
REM AIRSS Version 0.9.1 bugfix July 2018 build 013d7b7c2542+ Fri, 06 Jul 2018 19:26:36 +0100
REM compiler GCC version 9.2.1 20190827 (Red Hat 9.2.1-1)
REM options -cpp -mtune=generic -march=x86-64 -g -O0 -fpre-include=/usr/include/finclude/math-vector-fortran.h
REM seed 648963376 1396929575 -2049702927 1186717735 889874909 2126226250 642360413 -519012512 -165286348 1426410120 993757483 -1877641942 -446312254 76141719 -222632310 1126583727 426462791 -2141766373 1285738988 497728292 831755974 1755826936 -300984292 -1719889348 1498651403 303448342 -682479403 -1950720326 -1364788100 1400730339 -1189788256 1565944507 1434006741
REM
CELL 1.54180   50.00000   50.00000   50.00000   90.00000   90.00000   90.00000
LATT -1
SFAC C  
C      1  0.5506890000000  0.6299700000000  0.5106810000000 1.0
C      1  0.4356330000000  0.4877870000000  0.4806960000000 1.0
C      1  0.5000400000000  0.4333740000000  0.5695100000000 1.0
C      1  0.4353770000000  0.5012420000000  0.4107630000000 1.0
C      1  0.4501620000000  0.4006460000000  0.4996360000000 1.0
C      1  0.5823880000000  0.4449180000000  0.5380360000000 1.0
C      1  0.4426040000000  0.5184570000000  0.5281940000000 1.0
C      1  0.4262810000000  0.4175690000000  0.4975020000000 1.0
C      1  0.4233650000000  0.5595870000000  0.4526300000000 1.0
C      1  0.5963070000000  0.5025410000000  0.5641200000000 1.0
C      1  0.5005890000000  0.4071810000000  0.4497460000000 1.0
C      1  0.4226050000000  0.4643340000000  0.4672260000000 1.0
C      1  0.5540250000000  0.4918160000000  0.4411510000000 1.0
C      1  0.4046680000000  0.5629890000000  0.5727780000000 1.0
C      1  0.5224470000000  0.4708910000000  0.3955900000000 1.0
C      1  0.4899580000000  0.4619460000000  0.6072090000000 1.0
C      1  0.5738580000000  0.5133240000000  0.6072880000000 1.0
C      1  0.5039830000000  0.5590990000000  0.5221360000000 1.0
C      1  0.4237080000000  0.5979530000000  0.5448580000000 1.0
C      1  0.5125000000000  0.5239320000000  0.4668820000000 1.0
C      1  0.5701050000000  0.4688360000000  0.5251240000000 1.0
C      1  0.5937540000000  0.4149970000000  0.4893620000000 1.0
C      1  0.5176110000000  0.5645430000000  0.4387250000000 1.0
C      1  0.4160650000000  0.5449100000000  0.5886540000000 1.0
C      1  0.5442490000000  0.5406050000000  0.5829250000000 1.0
C      1  0.6092870000000  0.5523250000000  0.5151080000000 1.0
C      1  0.5109240000000  0.5463950000000  0.4166520000000 1.0
C      1  0.5400160000000  0.4862420000000  0.4659970000000 1.0
C      1  0.5476880000000  0.5803520000000  0.4724880000000 1.0
C      1  0.5475910000000  0.4169960000000  0.4505530000000 1.0
C      1  0.4977640000000  0.3942660000000  0.5037430000000 1.0
C      1  0.5256010000000  0.4033460000000  0.4628980000000 1.0
C      1  0.4576320000000  0.3987770000000  0.5287750000000 1.0
C      1  0.4555180000000  0.4820470000000  0.4053790000000 1.0
C      1  0.4810840000000  0.5239800000000  0.5748090000000 1.0
C      1  0.5467150000000  0.4601090000000  0.5077610000000 1.0
C      1  0.4227770000000  0.4659790000000  0.4378340000000 1.0
C      1  0.5504290000000  0.5302110000000  0.6090190000000 1.0
C      1  0.6009920000000  0.5071670000000  0.5357240000000 1.0
C      1  0.4120050000000  0.4906680000000  0.4260610000000 1.0
C      1  0.4069820000000  0.5811910000000  0.4519670000000 1.0
C      1  0.5271180000000  0.5996150000000  0.5394910000000 1.0
C      1  0.4555650000000  0.5452970000000  0.5357620000000 1.0
C      1  0.4738200000000  0.3923450000000  0.4860610000000 1.0
C      1  0.4200380000000  0.5360720000000  0.4376440000000 1.0
C      1  0.5491620000000  0.4446640000000  0.4454820000000 1.0
C      1  0.4011280000000  0.5824450000000  0.5527870000000 1.0
C      1  0.5354680000000  0.6072880000000  0.5134220000000 1.0
C      1  0.4783710000000  0.6157930000000  0.5871220000000 1.0
C      1  0.4766600000000  0.5455430000000  0.5566730000000 1.0
C      1  0.6044870000000  0.4373590000000  0.4795060000000 1.0
C      1  0.4740010000000  0.5260690000000  0.4915370000000 1.0
C      1  0.4632800000000  0.4979660000000  0.5301890000000 1.0
C      1  0.5744470000000  0.4001720000000  0.5003480000000 1.0
C      1  0.5943550000000  0.5343170000000  0.5287040000000 1.0
C      1  0.5992930000000  0.4887420000000  0.4884250000000 1.0
C      1  0.4864150000000  0.5507920000000  0.4035330000000 1.0
C      1  0.5598310000000  0.5393770000000  0.4446920000000 1.0
C      1  0.4356420000000  0.5288970000000  0.5971340000000 1.0
C      1  0.4537240000000  0.6226590000000  0.5796370000000 1.0
C      1  0.5053010000000  0.5094690000000  0.5707750000000 1.0
C      1  0.4844540000000  0.5299960000000  0.4629320000000 1.0
C      1  0.5825790000000  0.5317620000000  0.4599650000000 1.0
C      1  0.4955510000000  0.4335270000000  0.4410000000000 1.0
C      1  0.5104630000000  0.5867850000000  0.5588270000000 1.0
C      1  0.4464640000000  0.5571810000000  0.4684400000000 1.0
C      1  0.5023930000000  0.4548240000000  0.4586130000000 1.0
C      1  0.5479810000000  0.5172420000000  0.4298040000000 1.0
C      1  0.4008780000000  0.5145590000000  0.4373090000000 1.0
C      1  0.5284910000000  0.5925280000000  0.4898240000000 1.0
C      1  0.4396440000000  0.5897250000000  0.5230570000000 1.0
C      1  0.3767070000000  0.5864550000000  0.5411770000000 1.0
C      1  0.5287370000000  0.5248390000000  0.5638730000000 1.0
C      1  0.5253910000000  0.4750580000000  0.5449010000000 1.0
C      1  0.4659540000000  0.5111370000000  0.4480410000000 1.0
C      1  0.4432860000000  0.4682680000000  0.5631560000000 1.0
C      1  0.4866150000000  0.3996840000000  0.5304570000000 1.0
C      1  0.4450080000000  0.4581700000000  0.4190070000000 1.0
C      1  0.4720350000000  0.4499570000000  0.4970840000000 1.0
C      1  0.5695020000000  0.5387750000000  0.5419990000000 1.0
C      1  0.6064700000000  0.4639160000000  0.4773020000000 1.0
C      1  0.5010940000000  0.5854670000000  0.4833730000000 1.0
C      1  0.4990860000000  0.5622630000000  0.5497790000000 1.0
C      1  0.4587530000000  0.5695760000000  0.5179740000000 1.0
C      1  0.4460540000000  0.4122330000000  0.4024770000000 1.0
C      1  0.5734560000000  0.4843190000000  0.5700130000000 1.0
C      1  0.5080420000000  0.4812190000000  0.5663830000000 1.0
C      1  0.4867050000000  0.4368830000000  0.4145080000000 1.0
C      1  0.5540830000000  0.4862590000000  0.5466310000000 1.0
C      1  0.4963040000000  0.5749610000000  0.4567390000000 1.0
C      1  0.5936330000000  0.4270290000000  0.5532880000000 1.0
C      1  0.5384510000000  0.5167700000000  0.5091870000000 1.0
C      1  0.4461000000000  0.5356730000000  0.4873780000000 1.0
C      1  0.5589410000000  0.4661180000000  0.4276040000000 1.0
C      1  0.5920910000000  0.4879210000000  0.5160360000000 1.0
C      1  0.4584990000000  0.4346310000000  0.4116230000000 1.0
C      1  0.4155400000000  0.4165690000000  0.5247090000000 1.0
C      1  0.4812890000000  0.4927840000000  0.4005100000000 1.0
C      1  0.5898740000000  0.5248340000000  0.5834920000000 1.0
C      1  0.4611060000000  0.5436770000000  0.4086080000000 1.0
C      1  0.4339400000000  0.6169920000000  0.5627130000000 1.0
C      1  0.4995300000000  0.6012010000000  0.5800410000000 1.0
C      1  0.5237620000000  0.3960910000000  0.4910960000000 1.0
C      1  0.5441270000000  0.5628660000000  0.4502910000000 1.0
C      1  0.5496620000000  0.4659630000000  0.4009790000000 1.0
C      1  0.4826140000000  0.5051640000000  0.5099040000000 1.0
C      1  0.5473330000000  0.5172210000000  0.5383510000000 1.0
C      1  0.5097160000000  0.4962300000000  0.4021560000000 1.0
C      1  0.5031200000000  0.4859900000000  0.4983170000000 1.0
C      1  0.4735020000000  0.5580750000000  0.4573670000000 1.0
C      1  0.5301040000000  0.4597300000000  0.4616570000000 1.0
C      1  0.4204870000000  0.4390580000000  0.4801880000000 1.0
C      1  0.5685430000000  0.4862210000000  0.5981000000000 1.0
C      1  0.4629250000000  0.4517410000000  0.5221350000000 1.0
C      1  0.4465000000000  0.5248340000000  0.4261130000000 1.0
C      1  0.4790420000000  0.3917460000000  0.4587210000000 1.0
C      1  0.4624580000000  0.4880980000000  0.4659580000000 1.0
C      1  0.4318920000000  0.5138060000000  0.4999020000000 1.0
C      1  0.4857260000000  0.5733620000000  0.5051660000000 1.0
C      1  0.4848440000000  0.4694530000000  0.4779510000000 1.0
C      1  0.4988280000000  0.4589850000000  0.5815310000000 1.0
C      1  0.5235360000000  0.5200070000000  0.4140900000000 1.0
C      1  0.5047230000000  0.4484560000000  0.3960740000000 1.0
C      1  0.4342190000000  0.4056780000000  0.5439890000000 1.0
C      1  0.5203180000000  0.4686230000000  0.5170310000000 1.0
C      1  0.5486870000000  0.3938120000000  0.5038780000000 1.0
C      1  0.5711600000000  0.5441450000000  0.5703740000000 1.0
C      1  0.4302430000000  0.4024840000000  0.5705880000000 1.0
C      1  0.5252400000000  0.5041320000000  0.4848680000000 1.0
C      1  0.4984850000000  0.4134590000000  0.5517430000000 1.0
C      1  0.5955180000000  0.5123000000000  0.4732820000000 1.0
C      1  0.4605090000000  0.5197350000000  0.5933080000000 1.0
C      1  0.4569230000000  0.4723910000000  0.5399400000000 1.0
END
