TITL C-599895-9959-1090 -2.56039914398858e-05 125000 -191.142500915841 0 0 33 (C1) n - 1
REM
REM in /home/nfs/bkarasulu/CARBON/AIRSS/Generating-Clusters/TERSOFF/Only-C1/FIRE-HFTN
REM
REM
REM
REM
REM
REM ./C.cell (11c1c37f851c82e70ff6c80c92926a4b)
REM AIRSS Version 0.9.1 bugfix July 2018 build 013d7b7c2542+ Fri, 06 Jul 2018 19:26:36 +0100
REM compiler GCC version 9.2.1 20190827 (Red Hat 9.2.1-1)
REM options -cpp -mtune=generic -march=x86-64 -g -O0 -fpre-include=/usr/include/finclude/math-vector-fortran.h
REM seed 1291933069 -23414756 1911191290 1021731200 -1408602681 -298980684 -926684395 -1578030965 1494493699 2047500349 1869267641 2105882047 112734306 1537402427 -866794063 -2087910998 3004410 1219567051 -1674402369 1738307272 977653381 -1573425813 785943765 -881693955 -1907748729 -489403734 535373731 1580338919 104685975 1855688166 716845750 -553675115 1508556992
REM
CELL 1.54180   50.00000   50.00000   50.00000   90.00000   90.00000   90.00000
LATT -1
SFAC C  
C      1  0.5093960000000  0.5784170000000  0.4912670000000 1.0
C      1  0.4249920000000  0.4835080000000  0.4615990000000 1.0
C      1  0.4409320000000  0.5077910000000  0.4998590000000 1.0
C      1  0.5189940000000  0.4700450000000  0.4739180000000 1.0
C      1  0.4639530000000  0.4442790000000  0.5214430000000 1.0
C      1  0.5484760000000  0.4836890000000  0.5062840000000 1.0
C      1  0.4584460000000  0.5477660000000  0.5281810000000 1.0
C      1  0.5436040000000  0.4615070000000  0.4873830000000 1.0
C      1  0.4699330000000  0.4755220000000  0.4765100000000 1.0
C      1  0.5314790000000  0.4603450000000  0.5440090000000 1.0
C      1  0.5270400000000  0.5088560000000  0.4219570000000 1.0
C      1  0.5045260000000  0.4579850000000  0.5370190000000 1.0
C      1  0.5194660000000  0.5665420000000  0.4694740000000 1.0
C      1  0.5002060000000  0.5160970000000  0.5571960000000 1.0
C      1  0.4858570000000  0.5546960000000  0.5303640000000 1.0
C      1  0.4900740000000  0.5240860000000  0.4901960000000 1.0
C      1  0.4891140000000  0.4934350000000  0.5663330000000 1.0
C      1  0.4435920000000  0.5288120000000  0.5162140000000 1.0
C      1  0.4452210000000  0.4889260000000  0.4792590000000 1.0
C      1  0.4966950000000  0.5756430000000  0.5147850000000 1.0
C      1  0.5248770000000  0.5450280000000  0.4545210000000 1.0
C      1  0.4909130000000  0.4505960000000  0.5116120000000 1.0
C      1  0.5256490000000  0.5174170000000  0.4484620000000 1.0
C      1  0.5105970000000  0.5206950000000  0.5088920000000 1.0
C      1  0.5032920000000  0.5318070000000  0.5341850000000 1.0
C      1  0.5281650000000  0.5001530000000  0.3974190000000 1.0
C      1  0.5507270000000  0.4755670000000  0.5329800000000 1.0
C      1  0.4600080000000  0.4551720000000  0.5466880000000 1.0
C      1  0.5326540000000  0.5066520000000  0.4975800000000 1.0
C      1  0.4841680000000  0.4679580000000  0.5559980000000 1.0
C      1  0.5583750000000  0.4392370000000  0.4830230000000 1.0
C      1  0.5249400000000  0.4986980000000  0.4695580000000 1.0
C      1  0.4936380000000  0.4630750000000  0.4858320000000 1.0
END
