TITL C-599892-9790-55 280037.252459569 125000 -887.59642355922 0 0 146 (C1) n - 1
REM
REM in /home/nfs/bkarasulu/CARBON/AIRSS/Generating-Clusters/TERSOFF/Only-C1/FIRE-HFTN
REM
REM
REM
REM
REM
REM ./C.cell (11c1c37f851c82e70ff6c80c92926a4b)
REM AIRSS Version 0.9.1 bugfix July 2018 build 013d7b7c2542+ Fri, 06 Jul 2018 19:26:36 +0100
REM compiler GCC version 9.2.1 20190827 (Red Hat 9.2.1-1)
REM options -cpp -mtune=generic -march=x86-64 -g -O0 -fpre-include=/usr/include/finclude/math-vector-fortran.h
REM seed -1245463870 -626034085 435798090 -1089577059 1568986590 1961632994 -1272989062 557000684 -1305555992 -203722513 -81104419 -545455478 217784685 842254774 -680581532 -1282628527 1489049943 -667910111 826582708 559449367 -1205138989 -1751267731 1995528949 -1423505597 82626531 1032314353 -540564485 134094923 2044203688 -121335999 -1056855589 -1219801620 1543478198
REM
CELL 1.54180   50.00000   50.00000   50.00000   90.00000   90.00000   90.00000
LATT -1
SFAC C  
C      1  0.4358270000000  0.4915750000000  0.5558850000000 1.0
C      1  0.4273680000000  0.5700300000000  0.4702130000000 1.0
C      1  0.5362370000000  0.5625740000000  0.5854300000000 1.0
C      1  0.5809400000000  0.5047180000000  0.5850980000000 1.0
C      1  0.5238100000000  0.4548080000000  0.5155270000000 1.0
C      1  0.4927480000000  0.4609370000000  0.5937560000000 1.0
C      1  0.5220380000000  0.4884770000000  0.4521450000000 1.0
C      1  0.4498740000000  0.4418880000000  0.4719530000000 1.0
C      1  0.4652010000000  0.4330640000000  0.5232640000000 1.0
C      1  0.4480970000000  0.5530600000000  0.4792180000000 1.0
C      1  0.4929250000000  0.5693950000000  0.4244430000000 1.0
C      1  0.5867670000000  0.5769910000000  0.5231470000000 1.0
C      1  0.5457630000000  0.4301350000000  0.4121170000000 1.0
C      1  0.5079120000000  0.5903880000000  0.5422210000000 1.0
C      1  0.3801140000000  0.4472600000000  0.5634300000000 1.0
C      1  0.5844340000000  0.4302810000000  0.5446650000000 1.0
C      1  0.4703660000000  0.4827990000000  0.5051300000000 1.0
C      1  0.5406150000000  0.5045370000000  0.5228190000000 1.0
C      1  0.5309800000000  0.5516190000000  0.4680860000000 1.0
C      1  0.4354290000000  0.4890330000000  0.4460720000000 1.0
C      1  0.4968820000000  0.5700530000000  0.4978440000000 1.0
C      1  0.5783400000000  0.4820740000000  0.4274730000000 1.0
C      1  0.4681410000000  0.5272050000000  0.5480930000000 1.0
C      1  0.4144460000000  0.5351220000000  0.5754280000000 1.0
C      1  0.4566690000000  0.4798380000000  0.5711330000000 1.0
C      1  0.4641450000000  0.5704950000000  0.4179510000000 1.0
C      1  0.4771280000000  0.4389800000000  0.5808910000000 1.0
C      1  0.6335670000000  0.4761420000000  0.5355150000000 1.0
C      1  0.4792050000000  0.5185910000000  0.4651010000000 1.0
C      1  0.4782490000000  0.4587090000000  0.5203930000000 1.0
C      1  0.4693460000000  0.5642200000000  0.4939810000000 1.0
C      1  0.4296070000000  0.4439890000000  0.5537780000000 1.0
C      1  0.5113210000000  0.5554380000000  0.4086370000000 1.0
C      1  0.5029640000000  0.4619950000000  0.5322860000000 1.0
C      1  0.5460050000000  0.4551980000000  0.3991870000000 1.0
C      1  0.3938670000000  0.3971530000000  0.4516630000000 1.0
C      1  0.4410340000000  0.4823840000000  0.5070820000000 1.0
C      1  0.4498910000000  0.5486180000000  0.4061460000000 1.0
C      1  0.4838930000000  0.5052980000000  0.5405820000000 1.0
C      1  0.5204120000000  0.4158510000000  0.5685710000000 1.0
C      1  0.5028610000000  0.4784010000000  0.3838530000000 1.0
C      1  0.4589920000000  0.5682590000000  0.5909960000000 1.0
C      1  0.4433050000000  0.4183600000000  0.4532160000000 1.0
C      1  0.5891430000000  0.5836940000000  0.4972300000000 1.0
C      1  0.4327020000000  0.4545440000000  0.5019290000000 1.0
C      1  0.5245880000000  0.4961490000000  0.5641950000000 1.0
C      1  0.4870690000000  0.5324290000000  0.6094950000000 1.0
C      1  0.4851660000000  0.5593660000000  0.6023870000000 1.0
C      1  0.4784570000000  0.4323540000000  0.4808530000000 1.0
C      1  0.4438960000000  0.5720370000000  0.5343330000000 1.0
C      1  0.4142050000000  0.5221530000000  0.5274290000000 1.0
C      1  0.5354940000000  0.4799740000000  0.5843210000000 1.0
C      1  0.5462830000000  0.5455880000000  0.4443890000000 1.0
C      1  0.5698000000000  0.4707690000000  0.4028300000000 1.0
C      1  0.4053340000000  0.5399850000000  0.5480910000000 1.0
C      1  0.4788390000000  0.4158790000000  0.5051450000000 1.0
C      1  0.5496180000000  0.4084780000000  0.4970510000000 1.0
C      1  0.4530030000000  0.5916660000000  0.4352690000000 1.0
C      1  0.5214370000000  0.4578740000000  0.5949010000000 1.0
C      1  0.4179460000000  0.4071110000000  0.4519770000000 1.0
C      1  0.5811450000000  0.5295880000000  0.4966420000000 1.0
C      1  0.4983720000000  0.5841070000000  0.4494480000000 1.0
C      1  0.4360990000000  0.5313460000000  0.3622900000000 1.0
C      1  0.4886760000000  0.5049880000000  0.5116800000000 1.0
C      1  0.6249150000000  0.5269360000000  0.5131870000000 1.0
C      1  0.5674470000000  0.5252670000000  0.5980370000000 1.0
C      1  0.5262400000000  0.4895010000000  0.4239140000000 1.0
C      1  0.5317600000000  0.5407320000000  0.4208670000000 1.0
C      1  0.4920260000000  0.5141440000000  0.5889750000000 1.0
C      1  0.3317710000000  0.4319160000000  0.5499570000000 1.0
C      1  0.5029230000000  0.5462230000000  0.3832800000000 1.0
C      1  0.5568120000000  0.4344030000000  0.5430740000000 1.0
C      1  0.5143100000000  0.4250730000000  0.4487390000000 1.0
C      1  0.5128120000000  0.5224420000000  0.5680820000000 1.0
C      1  0.4366140000000  0.5171290000000  0.4455520000000 1.0
C      1  0.5200000000000  0.6133730000000  0.5337170000000 1.0
C      1  0.5943080000000  0.5558320000000  0.5401950000000 1.0
C      1  0.4459040000000  0.4659110000000  0.4544810000000 1.0
C      1  0.5763770000000  0.5394660000000  0.5553870000000 1.0
C      1  0.6072310000000  0.4700490000000  0.5312800000000 1.0
C      1  0.5223730000000  0.4707430000000  0.4027200000000 1.0
C      1  0.4109080000000  0.4865800000000  0.5701800000000 1.0
C      1  0.5995180000000  0.4430680000000  0.5241650000000 1.0
C      1  0.5645950000000  0.4369070000000  0.4565480000000 1.0
C      1  0.5863000000000  0.5108650000000  0.4342920000000 1.0
C      1  0.4533700000000  0.5289520000000  0.4653070000000 1.0
C      1  0.4796110000000  0.4874380000000  0.5878870000000 1.0
C      1  0.4930390000000  0.4115600000000  0.4351760000000 1.0
C      1  0.5790340000000  0.4629630000000  0.4504360000000 1.0
C      1  0.5935770000000  0.5760320000000  0.4719330000000 1.0
C      1  0.5363020000000  0.4142600000000  0.5446060000000 1.0
C      1  0.5296290000000  0.4040970000000  0.5179700000000 1.0
C      1  0.4962810000000  0.5885590000000  0.5679030000000 1.0
C      1  0.4660580000000  0.4095040000000  0.4379380000000 1.0
C      1  0.4055610000000  0.4584360000000  0.5633380000000 1.0
C      1  0.3892670000000  0.5082920000000  0.6087020000000 1.0
C      1  0.3870400000000  0.5603300000000  0.5426920000000 1.0
C      1  0.5127820000000  0.5403320000000  0.5370360000000 1.0
C      1  0.4562410000000  0.5368490000000  0.3807660000000 1.0
C      1  0.3764550000000  0.4849990000000  0.3430020000000 1.0
C      1  0.4531660000000  0.4503850000000  0.5701160000000 1.0
C      1  0.5858250000000  0.4891450000000  0.5360910000000 1.0
C      1  0.5855620000000  0.4776900000000  0.4745710000000 1.0
C      1  0.5615900000000  0.4817470000000  0.4888940000000 1.0
C      1  0.4368600000000  0.4380020000000  0.5259260000000 1.0
C      1  0.4828570000000  0.5274330000000  0.3768410000000 1.0
C      1  0.4041540000000  0.5096710000000  0.5858620000000 1.0
C      1  0.5088560000000  0.5713150000000  0.5881060000000 1.0
C      1  0.4305310000000  0.4989470000000  0.5283240000000 1.0
C      1  0.5835310000000  0.5096780000000  0.5564570000000 1.0
C      1  0.5695950000000  0.4243410000000  0.4829280000000 1.0
C      1  0.3953310000000  0.5028420000000  0.3452690000000 1.0
C      1  0.3555650000000  0.4388720000000  0.5580300000000 1.0
C      1  0.5610670000000  0.4834290000000  0.5197470000000 1.0
C      1  0.4565270000000  0.5501950000000  0.5413040000000 1.0
C      1  0.5114980000000  0.5724980000000  0.4721230000000 1.0
C      1  0.4349260000000  0.5522610000000  0.5876210000000 1.0
C      1  0.4154570000000  0.5191310000000  0.3509970000000 1.0
C      1  0.5167740000000  0.5197710000000  0.5122880000000 1.0
C      1  0.5045960000000  0.4392180000000  0.4715940000000 1.0
C      1  0.5419440000000  0.4277670000000  0.4401990000000 1.0
C      1  0.5594550000000  0.5466750000000  0.5796250000000 1.0
C      1  0.3706550000000  0.5798950000000  0.5374180000000 1.0
C      1  0.5491040000000  0.4570330000000  0.5275510000000 1.0
C      1  0.5020490000000  0.4010260000000  0.5114270000000 1.0
C      1  0.5277050000000  0.5316630000000  0.4874930000000 1.0
C      1  0.4330660000000  0.5328810000000  0.4226280000000 1.0
C      1  0.6114410000000  0.5070970000000  0.4487760000000 1.0
C      1  0.5926150000000  0.4329680000000  0.4982100000000 1.0
C      1  0.4919170000000  0.4169180000000  0.5704660000000 1.0
C      1  0.5741290000000  0.5374010000000  0.4422490000000 1.0
C      1  0.6069410000000  0.4970920000000  0.4750040000000 1.0
C      1  0.4757390000000  0.6022560000000  0.4502070000000 1.0
C      1  0.5036910000000  0.4846030000000  0.5486210000000 1.0
C      1  0.4980260000000  0.5010550000000  0.4594300000000 1.0
C      1  0.4291510000000  0.5873860000000  0.4495380000000 1.0
C      1  0.5211360000000  0.4558590000000  0.4872550000000 1.0
C      1  0.5335940000000  0.5142390000000  0.4133400000000 1.0
C      1  0.4680200000000  0.5900950000000  0.5738560000000 1.0
C      1  0.5362720000000  0.4766120000000  0.4744980000000 1.0
C      1  0.5315580000000  0.4317670000000  0.5898600000000 1.0
C      1  0.5914060000000  0.5578450000000  0.4522980000000 1.0
C      1  0.4894330000000  0.5000060000000  0.3750220000000 1.0
C      1  0.6195030000000  0.5439000000000  0.5336610000000 1.0
C      1  0.5070640000000  0.5671100000000  0.5256130000000 1.0
C      1  0.6057360000000  0.5170970000000  0.4950480000000 1.0
END
