TITL C-599891-72-529 0.00011090812811346 125000 -204.079445046155 0 0 35 (C1) n - 1
REM
REM in /home/nfs/bkarasulu/CARBON/AIRSS/Generating-Clusters/TERSOFF/Only-C1/FIRE-HFTN
REM
REM
REM
REM
REM
REM ./C.cell (11c1c37f851c82e70ff6c80c92926a4b)
REM AIRSS Version 0.9.1 bugfix July 2018 build 013d7b7c2542+ Fri, 06 Jul 2018 19:26:36 +0100
REM compiler GCC version 9.2.1 20190827 (Red Hat 9.2.1-1)
REM options -cpp -mtune=generic -march=x86-64 -g -O0 -fpre-include=/usr/include/finclude/math-vector-fortran.h
REM seed 2135715479 -716821097 1474117531 -705546006 848075172 1682072345 274759400 1212992450 613750070 482306899 -1857643294 1281967779 171954810 -385093799 773191463 -1906860587 1924523099 -216161807 -37433904 2071000679 -1113254215 481394350 750299347 713740117 -143101674 -800651871 -30407353 814471747 1620903162 -2026107908 152409773 -1213402369 -1471717826
REM
CELL 1.54180   50.00000   50.00000   50.00000   90.00000   90.00000   90.00000
LATT -1
SFAC C  
C      1  0.4305230000000  0.5219070000000  0.4915590000000 1.0
C      1  0.5328160000000  0.3912560000000  0.4932100000000 1.0
C      1  0.5524520000000  0.4020990000000  0.4758370000000 1.0
C      1  0.5522120000000  0.4281440000000  0.4682810000000 1.0
C      1  0.4735820000000  0.4980020000000  0.4504120000000 1.0
C      1  0.4898520000000  0.4839360000000  0.5478140000000 1.0
C      1  0.5613320000000  0.5557180000000  0.5354650000000 1.0
C      1  0.4428540000000  0.5469010000000  0.4965970000000 1.0
C      1  0.5322460000000  0.3653510000000  0.5013990000000 1.0
C      1  0.5314980000000  0.5006520000000  0.4673460000000 1.0
C      1  0.4873710000000  0.5071920000000  0.5632590000000 1.0
C      1  0.4593590000000  0.4842200000000  0.4706690000000 1.0
C      1  0.4915210000000  0.4551540000000  0.5023930000000 1.0
C      1  0.4674330000000  0.5466210000000  0.5421530000000 1.0
C      1  0.5355110000000  0.5366360000000  0.4990350000000 1.0
C      1  0.5376750000000  0.5445620000000  0.5257900000000 1.0
C      1  0.5138350000000  0.4108770000000  0.5009620000000 1.0
C      1  0.4717160000000  0.4632960000000  0.4843460000000 1.0
C      1  0.4825000000000  0.5057830000000  0.5901260000000 1.0
C      1  0.5123770000000  0.4382690000000  0.4936380000000 1.0
C      1  0.4499010000000  0.5528940000000  0.5230690000000 1.0
C      1  0.4992300000000  0.5828290000000  0.4900520000000 1.0
C      1  0.4573900000000  0.5437450000000  0.4497010000000 1.0
C      1  0.4998310000000  0.5380320000000  0.4661270000000 1.0
C      1  0.5333320000000  0.4477950000000  0.4761740000000 1.0
C      1  0.5349930000000  0.4743640000000  0.4680470000000 1.0
C      1  0.5155790000000  0.5411010000000  0.5426110000000 1.0
C      1  0.4871900000000  0.5611210000000  0.4790120000000 1.0
C      1  0.4581820000000  0.5578270000000  0.4751640000000 1.0
C      1  0.4901470000000  0.5324080000000  0.5503650000000 1.0
C      1  0.4918170000000  0.4663520000000  0.5280420000000 1.0
C      1  0.4799090000000  0.5252680000000  0.4484520000000 1.0
C      1  0.4373330000000  0.4977570000000  0.4820170000000 1.0
C      1  0.5230730000000  0.5257270000000  0.4764080000000 1.0
C      1  0.5834270000000  0.5662060000000  0.5444660000000 1.0
END
