TITL C-599897-7526-902 0.0144360143200825 125000 -469.923493483249 0 0 78 (C1) n - 1
REM
REM in /home/nfs/bkarasulu/CARBON/AIRSS/Generating-Clusters/TERSOFF/Only-C1/FIRE-HFTN
REM
REM
REM
REM
REM
REM ./C.cell (11c1c37f851c82e70ff6c80c92926a4b)
REM AIRSS Version 0.9.1 bugfix July 2018 build 013d7b7c2542+ Fri, 06 Jul 2018 19:26:36 +0100
REM compiler GCC version 9.2.1 20190827 (Red Hat 9.2.1-1)
REM options -cpp -mtune=generic -march=x86-64 -g -O0 -fpre-include=/usr/include/finclude/math-vector-fortran.h
REM seed -1857819023 286813935 1143021154 -1107431396 -1713577655 1568955260 -1766542037 -1201008284 889532067 955546566 -157677772 -178650684 383225710 581976132 -1166186815 -1192412950 -957435239 -1383798657 800310066 -928541618 368021093 1371459834 -165874392 -1561325464 -436695831 1143566545 -1535360908 1423002957 -1667062275 -1804735484 830902575 170011221 -1619730771
REM
CELL 1.54180   50.00000   50.00000   50.00000   90.00000   90.00000   90.00000
LATT -1
SFAC C  
C      1  0.5705250000000  0.5738810000000  0.4816400000000 1.0
C      1  0.5351810000000  0.5234450000000  0.5082480000000 1.0
C      1  0.5187580000000  0.5012160000000  0.6128270000000 1.0
C      1  0.5222990000000  0.4494270000000  0.5852400000000 1.0
C      1  0.4306120000000  0.5406500000000  0.4621380000000 1.0
C      1  0.4839720000000  0.5767330000000  0.4869350000000 1.0
C      1  0.4532460000000  0.4860720000000  0.4239250000000 1.0
C      1  0.4925450000000  0.5035580000000  0.6015070000000 1.0
C      1  0.4696260000000  0.5837520000000  0.5105470000000 1.0
C      1  0.4439410000000  0.5443460000000  0.5077060000000 1.0
C      1  0.4689290000000  0.5745110000000  0.4623970000000 1.0
C      1  0.5562490000000  0.5106190000000  0.4198290000000 1.0
C      1  0.4559260000000  0.5186930000000  0.5024450000000 1.0
C      1  0.5228090000000  0.4332350000000  0.4914090000000 1.0
C      1  0.5029170000000  0.5457950000000  0.5406310000000 1.0
C      1  0.5740560000000  0.5534050000000  0.4987120000000 1.0
C      1  0.5643130000000  0.5008280000000  0.4459810000000 1.0
C      1  0.5645650000000  0.5253690000000  0.4984820000000 1.0
C      1  0.5319140000000  0.5114270000000  0.5609770000000 1.0
C      1  0.5079290000000  0.5013910000000  0.4434490000000 1.0
C      1  0.4763700000000  0.4278840000000  0.4694670000000 1.0
C      1  0.4814970000000  0.5127390000000  0.4922450000000 1.0
C      1  0.5441630000000  0.4743910000000  0.5091900000000 1.0
C      1  0.4326680000000  0.4945870000000  0.5339120000000 1.0
C      1  0.4627470000000  0.4447950000000  0.4536830000000 1.0
C      1  0.5249200000000  0.4960530000000  0.5068270000000 1.0
C      1  0.5676290000000  0.4631410000000  0.5759150000000 1.0
C      1  0.4670920000000  0.4934390000000  0.4001520000000 1.0
C      1  0.4914700000000  0.4954530000000  0.3889500000000 1.0
C      1  0.4736600000000  0.5481590000000  0.5440790000000 1.0
C      1  0.4363020000000  0.4983570000000  0.5058150000000 1.0
C      1  0.4991940000000  0.4240490000000  0.4828940000000 1.0
C      1  0.5670010000000  0.5147480000000  0.4699860000000 1.0
C      1  0.5569360000000  0.5791760000000  0.4591850000000 1.0
C      1  0.4567810000000  0.4392380000000  0.6228840000000 1.0
C      1  0.5416670000000  0.4160870000000  0.3983120000000 1.0
C      1  0.4583190000000  0.5617060000000  0.5246230000000 1.0
C      1  0.4772170000000  0.4539530000000  0.6110880000000 1.0
C      1  0.4969580000000  0.4916770000000  0.5036220000000 1.0
C      1  0.5209500000000  0.5490700000000  0.4392770000000 1.0
C      1  0.5492470000000  0.4655570000000  0.4178420000000 1.0
C      1  0.4019840000000  0.4745500000000  0.4796920000000 1.0
C      1  0.5598810000000  0.4719150000000  0.4440750000000 1.0
C      1  0.5460570000000  0.4401280000000  0.4073580000000 1.0
C      1  0.5574880000000  0.4559790000000  0.4667520000000 1.0
C      1  0.5074150000000  0.5278590000000  0.4515860000000 1.0
C      1  0.4754300000000  0.4819640000000  0.6076970000000 1.0
C      1  0.5023660000000  0.5552100000000  0.4917430000000 1.0
C      1  0.5107960000000  0.5296620000000  0.5632930000000 1.0
C      1  0.4953120000000  0.5320160000000  0.4765450000000 1.0
C      1  0.4643910000000  0.5268280000000  0.5624810000000 1.0
C      1  0.4846350000000  0.4691750000000  0.5130190000000 1.0
C      1  0.5401800000000  0.4845440000000  0.6119130000000 1.0
C      1  0.4949040000000  0.4783060000000  0.4443650000000 1.0
C      1  0.4504670000000  0.5579420000000  0.4508100000000 1.0
C      1  0.5734390000000  0.4685640000000  0.5500050000000 1.0
C      1  0.4685570000000  0.4690420000000  0.4409780000000 1.0
C      1  0.4444110000000  0.5081960000000  0.5545280000000 1.0
C      1  0.5182750000000  0.4942110000000  0.3899720000000 1.0
C      1  0.5676470000000  0.4807000000000  0.5250100000000 1.0
C      1  0.4272530000000  0.5118170000000  0.4583190000000 1.0
C      1  0.4877380000000  0.5205470000000  0.5791470000000 1.0
C      1  0.4215270000000  0.4943890000000  0.4815080000000 1.0
C      1  0.5157580000000  0.4605450000000  0.5600590000000 1.0
C      1  0.5428610000000  0.4528900000000  0.4905780000000 1.0
C      1  0.4295550000000  0.4995140000000  0.4324710000000 1.0
C      1  0.5232030000000  0.4856080000000  0.5537560000000 1.0
C      1  0.5421590000000  0.4905020000000  0.4041470000000 1.0
C      1  0.5463300000000  0.4624340000000  0.5949880000000 1.0
C      1  0.5573250000000  0.5192660000000  0.5669550000000 1.0
C      1  0.5167460000000  0.5455170000000  0.5151530000000 1.0
C      1  0.4079760000000  0.5005180000000  0.4155170000000 1.0
C      1  0.5009750000000  0.4417420000000  0.6017680000000 1.0
C      1  0.3845210000000  0.4554000000000  0.4769740000000 1.0
C      1  0.4240370000000  0.5499320000000  0.4885370000000 1.0
C      1  0.4375920000000  0.4254700000000  0.6339040000000 1.0
C      1  0.5385970000000  0.5688380000000  0.4427050000000 1.0
C      1  0.5791080000000  0.5056680000000  0.5167190000000 1.0
END
