TITL C-599893-4344-517 4589.48469519024 125000 -1210.88693717131 0 0 196 (C1) n - 1
REM
REM in /home/nfs/bkarasulu/CARBON/AIRSS/Generating-Clusters/TERSOFF/Only-C1/FIRE-HFTN
REM
REM
REM
REM
REM
REM ./C.cell (11c1c37f851c82e70ff6c80c92926a4b)
REM AIRSS Version 0.9.1 bugfix July 2018 build 013d7b7c2542+ Fri, 06 Jul 2018 19:26:36 +0100
REM compiler GCC version 9.2.1 20190827 (Red Hat 9.2.1-1)
REM options -cpp -mtune=generic -march=x86-64 -g -O0 -fpre-include=/usr/include/finclude/math-vector-fortran.h
REM seed -1096688057 8091781 -1306105505 -1649090583 1788060277 1986244243 970981106 854332606 1980453790 -159839025 567791342 -1981296116 1507672961 1507205622 1684627134 1262388641 151603188 -78754289 -2017226781 1631847968 1310490681 505245326 1546247073 156639874 1652906025 -603262854 -1975694933 41696186 1152866175 1842747884 564594666 -797792609 2146323087
REM
CELL 1.54180   50.00000   50.00000   50.00000   90.00000   90.00000   90.00000
LATT -1
SFAC C  
C      1  0.5835730000000  0.5769480000000  0.5626250000000 1.0
C      1  0.4453210000000  0.5159650000000  0.4258430000000 1.0
C      1  0.4984420000000  0.4446980000000  0.3097470000000 1.0
C      1  0.4982800000000  0.6141160000000  0.5414350000000 1.0
C      1  0.5514040000000  0.5069440000000  0.5214400000000 1.0
C      1  0.6259970000000  0.5268840000000  0.4940070000000 1.0
C      1  0.5336670000000  0.5331690000000  0.5641310000000 1.0
C      1  0.3902810000000  0.5348260000000  0.5071810000000 1.0
C      1  0.5151670000000  0.5474820000000  0.5213570000000 1.0
C      1  0.4828010000000  0.3826090000000  0.4487690000000 1.0
C      1  0.4162530000000  0.5150790000000  0.4318250000000 1.0
C      1  0.5894850000000  0.4691990000000  0.4464960000000 1.0
C      1  0.5562520000000  0.4607570000000  0.3895730000000 1.0
C      1  0.4670480000000  0.4637570000000  0.3492830000000 1.0
C      1  0.5921460000000  0.5422620000000  0.4126290000000 1.0
C      1  0.4412340000000  0.4427670000000  0.4432220000000 1.0
C      1  0.3755380000000  0.4851150000000  0.5103860000000 1.0
C      1  0.5746380000000  0.4510710000000  0.5475270000000 1.0
C      1  0.5631150000000  0.4714690000000  0.4880790000000 1.0
C      1  0.5931870000000  0.5800980000000  0.5350890000000 1.0
C      1  0.5034980000000  0.5928840000000  0.4931860000000 1.0
C      1  0.4869270000000  0.3641430000000  0.4965030000000 1.0
C      1  0.4239900000000  0.4505170000000  0.4647840000000 1.0
C      1  0.4694840000000  0.4504570000000  0.5996730000000 1.0
C      1  0.5867570000000  0.5363340000000  0.5302510000000 1.0
C      1  0.4747060000000  0.4778240000000  0.5509010000000 1.0
C      1  0.5578090000000  0.4360470000000  0.4402340000000 1.0
C      1  0.5129500000000  0.3852520000000  0.5402150000000 1.0
C      1  0.4625740000000  0.5402640000000  0.4626480000000 1.0
C      1  0.4814050000000  0.5869940000000  0.4724770000000 1.0
C      1  0.5748580000000  0.5523330000000  0.5760700000000 1.0
C      1  0.5882500000000  0.5563260000000  0.4783290000000 1.0
C      1  0.5660560000000  0.5308900000000  0.5110190000000 1.0
C      1  0.5524410000000  0.4988660000000  0.4526980000000 1.0
C      1  0.5341870000000  0.5824500000000  0.5433950000000 1.0
C      1  0.4163220000000  0.5309970000000  0.5787980000000 1.0
C      1  0.4828660000000  0.4263620000000  0.5937060000000 1.0
C      1  0.5542180000000  0.5116640000000  0.5525500000000 1.0
C      1  0.4810600000000  0.5457140000000  0.6052570000000 1.0
C      1  0.4862620000000  0.4602470000000  0.3944130000000 1.0
C      1  0.4980360000000  0.5678530000000  0.5108710000000 1.0
C      1  0.5185100000000  0.4730680000000  0.4299470000000 1.0
C      1  0.4742630000000  0.5708620000000  0.5259200000000 1.0
C      1  0.5060990000000  0.4438360000000  0.5472530000000 1.0
C      1  0.4967040000000  0.4919280000000  0.5607580000000 1.0
C      1  0.5076030000000  0.5192170000000  0.4634690000000 1.0
C      1  0.4794030000000  0.4759120000000  0.3717130000000 1.0
C      1  0.5386810000000  0.3987420000000  0.5462620000000 1.0
C      1  0.5839380000000  0.4405370000000  0.4544550000000 1.0
C      1  0.3804610000000  0.4566070000000  0.5069960000000 1.0
C      1  0.6206980000000  0.4723510000000  0.4958780000000 1.0
C      1  0.5910970000000  0.4890670000000  0.6135870000000 1.0
C      1  0.3874510000000  0.5406700000000  0.4608950000000 1.0
C      1  0.4381130000000  0.5495920000000  0.5836310000000 1.0
C      1  0.4533320000000  0.4998260000000  0.6199290000000 1.0
C      1  0.3964710000000  0.5324840000000  0.5572530000000 1.0
C      1  0.6049070000000  0.4497110000000  0.5040070000000 1.0
C      1  0.4351460000000  0.5940880000000  0.5632900000000 1.0
C      1  0.4681590000000  0.5596440000000  0.4135130000000 1.0
C      1  0.6004780000000  0.5153860000000  0.4236910000000 1.0
C      1  0.4654670000000  0.3934410000000  0.5461950000000 1.0
C      1  0.5717850000000  0.5588990000000  0.4260020000000 1.0
C      1  0.5557670000000  0.5492420000000  0.5990070000000 1.0
C      1  0.4788620000000  0.4599880000000  0.4671250000000 1.0
C      1  0.4221770000000  0.5972820000000  0.5391200000000 1.0
C      1  0.5314630000000  0.4176740000000  0.5763250000000 1.0
C      1  0.5328910000000  0.4978110000000  0.4302650000000 1.0
C      1  0.4707540000000  0.5003940000000  0.4257990000000 1.0
C      1  0.4524780000000  0.5184180000000  0.5284930000000 1.0
C      1  0.5608510000000  0.4625130000000  0.5696030000000 1.0
C      1  0.5069850000000  0.5210590000000  0.5248670000000 1.0
C      1  0.4543380000000  0.5950330000000  0.4685080000000 1.0
C      1  0.5020350000000  0.4113540000000  0.5793610000000 1.0
C      1  0.4978560000000  0.5223510000000  0.6084860000000 1.0
C      1  0.4664860000000  0.5178940000000  0.5046390000000 1.0
C      1  0.5564840000000  0.4119500000000  0.5259290000000 1.0
C      1  0.4058290000000  0.5425740000000  0.4392030000000 1.0
C      1  0.3794060000000  0.5090060000000  0.4949510000000 1.0
C      1  0.4918210000000  0.5133380000000  0.4406970000000 1.0
C      1  0.4482060000000  0.5638430000000  0.5207680000000 1.0
C      1  0.4963870000000  0.4402850000000  0.4748590000000 1.0
C      1  0.4991470000000  0.6150370000000  0.5137290000000 1.0
C      1  0.5337670000000  0.5567560000000  0.4820580000000 1.0
C      1  0.4895860000000  0.4266310000000  0.4986690000000 1.0
C      1  0.4804470000000  0.5401230000000  0.5607400000000 1.0
C      1  0.5046320000000  0.6259270000000  0.4136020000000 1.0
C      1  0.5479160000000  0.5917490000000  0.5190950000000 1.0
C      1  0.5813900000000  0.5844900000000  0.4840470000000 1.0
C      1  0.5174150000000  0.5516010000000  0.4133480000000 1.0
C      1  0.4336870000000  0.4940810000000  0.4845050000000 1.0
C      1  0.4820730000000  0.4719470000000  0.4211530000000 1.0
C      1  0.5696260000000  0.4854290000000  0.5114560000000 1.0
C      1  0.4319750000000  0.4792060000000  0.5101280000000 1.0
C      1  0.4914520000000  0.5477130000000  0.4019070000000 1.0
C      1  0.5532590000000  0.4389890000000  0.5337050000000 1.0
C      1  0.4238310000000  0.4468100000000  0.5709500000000 1.0
C      1  0.4917600000000  0.3940760000000  0.5579360000000 1.0
C      1  0.4106760000000  0.5779190000000  0.4878550000000 1.0
C      1  0.4472230000000  0.5779750000000  0.5839220000000 1.0
C      1  0.5923590000000  0.4859290000000  0.4216250000000 1.0
C      1  0.4186970000000  0.4790810000000  0.4648870000000 1.0
C      1  0.4292980000000  0.5809820000000  0.4650640000000 1.0
C      1  0.6129960000000  0.5231150000000  0.4484150000000 1.0
C      1  0.5325290000000  0.5270860000000  0.4200950000000 1.0
C      1  0.4916650000000  0.3972240000000  0.4277150000000 1.0
C      1  0.5330760000000  0.4466950000000  0.3876330000000 1.0
C      1  0.5331520000000  0.5693590000000  0.5997110000000 1.0
C      1  0.4845480000000  0.5036550000000  0.3719350000000 1.0
C      1  0.3828060000000  0.5118030000000  0.4663080000000 1.0
C      1  0.5061580000000  0.4389250000000  0.3944580000000 1.0
C      1  0.5768600000000  0.4753620000000  0.3996110000000 1.0
C      1  0.4345100000000  0.5406380000000  0.5284260000000 1.0
C      1  0.4392360000000  0.4614060000000  0.3483870000000 1.0
C      1  0.4460420000000  0.4533760000000  0.5087180000000 1.0
C      1  0.4417950000000  0.4587130000000  0.5924440000000 1.0
C      1  0.4539940000000  0.4962600000000  0.5460910000000 1.0
C      1  0.5609200000000  0.5417490000000  0.4837380000000 1.0
C      1  0.4336500000000  0.4243430000000  0.4245750000000 1.0
C      1  0.6072070000000  0.5560440000000  0.5276200000000 1.0
C      1  0.5580110000000  0.5930020000000  0.4659430000000 1.0
C      1  0.5376370000000  0.4596580000000  0.4891340000000 1.0
C      1  0.4847060000000  0.4832410000000  0.4808910000000 1.0
C      1  0.5032280000000  0.3805600000000  0.5138400000000 1.0
C      1  0.4190750000000  0.4055530000000  0.5464800000000 1.0
C      1  0.6068190000000  0.4965530000000  0.5930510000000 1.0
C      1  0.5283870000000  0.4515570000000  0.5333130000000 1.0
C      1  0.4865320000000  0.4707760000000  0.6113220000000 1.0
C      1  0.4112310000000  0.4334320000000  0.5469420000000 1.0
C      1  0.3931040000000  0.5548760000000  0.4858440000000 1.0
C      1  0.4883450000000  0.5282460000000  0.3816510000000 1.0
C      1  0.5705850000000  0.4816960000000  0.4637130000000 1.0
C      1  0.4269180000000  0.5619370000000  0.4424830000000 1.0
C      1  0.5481680000000  0.4656910000000  0.6131640000000 1.0
C      1  0.4063200000000  0.5389420000000  0.5309220000000 1.0
C      1  0.4812340000000  0.5744320000000  0.5994960000000 1.0
C      1  0.6018510000000  0.5103360000000  0.5706010000000 1.0
C      1  0.5338720000000  0.5871780000000  0.4865050000000 1.0
C      1  0.4711960000000  0.4422750000000  0.5160620000000 1.0
C      1  0.4416390000000  0.3984160000000  0.5308240000000 1.0
C      1  0.5984530000000  0.4498260000000  0.5323810000000 1.0
C      1  0.6102300000000  0.5376000000000  0.4724040000000 1.0
C      1  0.4518490000000  0.5456380000000  0.4345390000000 1.0
C      1  0.4665970000000  0.4564330000000  0.4420150000000 1.0
C      1  0.5144670000000  0.6019850000000  0.4166610000000 1.0
C      1  0.4636230000000  0.5368160000000  0.5833350000000 1.0
C      1  0.4934460000000  0.5179140000000  0.5489190000000 1.0
C      1  0.4376590000000  0.4056240000000  0.5022960000000 1.0
C      1  0.5806000000000  0.5268780000000  0.5584150000000 1.0
C      1  0.5246780000000  0.4694670000000  0.5125310000000 1.0
C      1  0.4590180000000  0.5836180000000  0.4035490000000 1.0
C      1  0.5558950000000  0.5822170000000  0.4363060000000 1.0
C      1  0.5068040000000  0.5005560000000  0.4839660000000 1.0
C      1  0.4021370000000  0.4965920000000  0.4499970000000 1.0
C      1  0.5196840000000  0.4914230000000  0.5771390000000 1.0
C      1  0.5885670000000  0.4319840000000  0.4854100000000 1.0
C      1  0.5546140000000  0.5383260000000  0.4349000000000 1.0
C      1  0.4841120000000  0.5674370000000  0.5519970000000 1.0
C      1  0.4352630000000  0.4864620000000  0.6021290000000 1.0
C      1  0.4998110000000  0.4148660000000  0.4088140000000 1.0
C      1  0.5288100000000  0.5783780000000  0.4223040000000 1.0
C      1  0.5230410000000  0.4466330000000  0.4693590000000 1.0
C      1  0.5320830000000  0.4500310000000  0.4427010000000 1.0
C      1  0.6279700000000  0.4984510000000  0.4961070000000 1.0
C      1  0.4827550000000  0.4540640000000  0.3283300000000 1.0
C      1  0.4717760000000  0.3755130000000  0.4742980000000 1.0
C      1  0.5069870000000  0.5902490000000  0.5593260000000 1.0
C      1  0.5479380000000  0.4456940000000  0.5899040000000 1.0
C      1  0.3786290000000  0.5100240000000  0.5550420000000 1.0
C      1  0.4019640000000  0.4397230000000  0.5175340000000 1.0
C      1  0.5699380000000  0.4111900000000  0.4988580000000 1.0
C      1  0.4846750000000  0.5584170000000  0.4678910000000 1.0
C      1  0.4234660000000  0.5025530000000  0.5818530000000 1.0
C      1  0.4288590000000  0.4909760000000  0.5566310000000 1.0
C      1  0.5626110000000  0.4924760000000  0.6161720000000 1.0
C      1  0.5100780000000  0.5460730000000  0.4701270000000 1.0
C      1  0.5083010000000  0.5833750000000  0.5899020000000 1.0
C      1  0.5557850000000  0.5218640000000  0.6130730000000 1.0
C      1  0.5762420000000  0.5902670000000  0.5134870000000 1.0
C      1  0.4806020000000  0.4523850000000  0.5406810000000 1.0
C      1  0.4822420000000  0.4985290000000  0.6170030000000 1.0
C      1  0.5540880000000  0.3968180000000  0.4800810000000 1.0
C      1  0.5221960000000  0.4996940000000  0.5109210000000 1.0
C      1  0.5462640000000  0.4866940000000  0.5668830000000 1.0
C      1  0.4132610000000  0.4593960000000  0.3490530000000 1.0
C      1  0.4480150000000  0.3887740000000  0.4823140000000 1.0
C      1  0.4257590000000  0.4341850000000  0.4966990000000 1.0
C      1  0.6298590000000  0.5457220000000  0.5148790000000 1.0
C      1  0.4141180000000  0.4841500000000  0.5337930000000 1.0
C      1  0.4136820000000  0.5923250000000  0.5132730000000 1.0
C      1  0.5585350000000  0.5253430000000  0.4592500000000 1.0
C      1  0.5071100000000  0.4037410000000  0.4979510000000 1.0
C      1  0.3861160000000  0.4899470000000  0.5364790000000 1.0
C      1  0.5315850000000  0.5542040000000  0.5441450000000 1.0
C      1  0.5188140000000  0.5192080000000  0.5877250000000 1.0
C      1  0.4523730000000  0.5177860000000  0.4798260000000 1.0
C      1  0.5274120000000  0.3994180000000  0.4787280000000 1.0
END
