TITL C-599894-471-242 -6795.18830199826 125000 -941.698900568373 0 0 155 (C1) n - 1
REM
REM in /home/nfs/bkarasulu/CARBON/AIRSS/Generating-Clusters/TERSOFF/Only-C1/FIRE-HFTN
REM
REM
REM
REM
REM
REM ./C.cell (11c1c37f851c82e70ff6c80c92926a4b)
REM AIRSS Version 0.9.1 bugfix July 2018 build 013d7b7c2542+ Fri, 06 Jul 2018 19:26:36 +0100
REM compiler GCC version 9.2.1 20190827 (Red Hat 9.2.1-1)
REM options -cpp -mtune=generic -march=x86-64 -g -O0 -fpre-include=/usr/include/finclude/math-vector-fortran.h
REM seed 928075506 -981220207 -2107591356 -56749133 1741281588 1171128759 1867109476 -747176366 1560956853 -678586690 -1473899400 -659524824 -88379677 -1576387119 -414768354 -33828232 550612351 -2054595802 -712389383 -384248 1756667740 441125829 -552170244 203285776 -28656371 -84372860 -139164840 217356974 786440466 1408917576 -1106607281 -972441684 938982916
REM
CELL 1.54180   50.00000   50.00000   50.00000   90.00000   90.00000   90.00000
LATT -1
SFAC C  
C      1  0.3876540000000  0.4961910000000  0.5562620000000 1.0
C      1  0.4337480000000  0.5398740000000  0.4061590000000 1.0
C      1  0.4634110000000  0.5549460000000  0.5712200000000 1.0
C      1  0.4364170000000  0.4933090000000  0.5126550000000 1.0
C      1  0.4527120000000  0.5561340000000  0.4866130000000 1.0
C      1  0.5584220000000  0.4743500000000  0.3894920000000 1.0
C      1  0.5500310000000  0.5918900000000  0.4380970000000 1.0
C      1  0.4780840000000  0.5131830000000  0.4270470000000 1.0
C      1  0.5558920000000  0.5922590000000  0.4817530000000 1.0
C      1  0.5839280000000  0.3978540000000  0.4264720000000 1.0
C      1  0.4240950000000  0.4041100000000  0.5135670000000 1.0
C      1  0.4347090000000  0.6130730000000  0.4674590000000 1.0
C      1  0.5626090000000  0.4912030000000  0.4734980000000 1.0
C      1  0.4556230000000  0.5507160000000  0.4581750000000 1.0
C      1  0.5565720000000  0.5500700000000  0.3986520000000 1.0
C      1  0.5236000000000  0.5904410000000  0.5642780000000 1.0
C      1  0.5131900000000  0.5715520000000  0.5828770000000 1.0
C      1  0.4713650000000  0.6206350000000  0.4988680000000 1.0
C      1  0.4296890000000  0.5443220000000  0.5002380000000 1.0
C      1  0.5236700000000  0.5921010000000  0.4482300000000 1.0
C      1  0.4794830000000  0.4650160000000  0.5898870000000 1.0
C      1  0.5929280000000  0.4794970000000  0.5090490000000 1.0
C      1  0.4975330000000  0.4599610000000  0.4959570000000 1.0
C      1  0.4337660000000  0.4488370000000  0.4837650000000 1.0
C      1  0.4439570000000  0.6260100000000  0.4914720000000 1.0
C      1  0.4470690000000  0.4723410000000  0.4954840000000 1.0
C      1  0.5679530000000  0.5892490000000  0.5356910000000 1.0
C      1  0.4651710000000  0.3805220000000  0.5420920000000 1.0
C      1  0.5062410000000  0.5737000000000  0.4379940000000 1.0
C      1  0.4130690000000  0.4880740000000  0.5549970000000 1.0
C      1  0.5535190000000  0.4235670000000  0.5408810000000 1.0
C      1  0.4784460000000  0.6026270000000  0.4567960000000 1.0
C      1  0.4000600000000  0.5093600000000  0.4844940000000 1.0
C      1  0.4929570000000  0.4569710000000  0.3793070000000 1.0
C      1  0.4654070000000  0.4192460000000  0.4345270000000 1.0
C      1  0.5656300000000  0.4504460000000  0.4341180000000 1.0
C      1  0.4909200000000  0.3863820000000  0.5497740000000 1.0
C      1  0.5031600000000  0.4118410000000  0.5558420000000 1.0
C      1  0.3706200000000  0.5148390000000  0.5475380000000 1.0
C      1  0.5019250000000  0.5504480000000  0.4540950000000 1.0
C      1  0.4411390000000  0.5700400000000  0.5626030000000 1.0
C      1  0.5283670000000  0.4508590000000  0.5979010000000 1.0
C      1  0.5201350000000  0.5284490000000  0.5479930000000 1.0
C      1  0.5743660000000  0.5444390000000  0.4828370000000 1.0
C      1  0.5908430000000  0.4902900000000  0.4810260000000 1.0
C      1  0.4473220000000  0.5714620000000  0.4395920000000 1.0
C      1  0.4970660000000  0.4546710000000  0.5228070000000 1.0
C      1  0.5799230000000  0.5322290000000  0.5790820000000 1.0
C      1  0.5281030000000  0.5521480000000  0.4050630000000 1.0
C      1  0.4810390000000  0.4734530000000  0.3984680000000 1.0
C      1  0.5526190000000  0.3842590000000  0.4616940000000 1.0
C      1  0.4663550000000  0.4893760000000  0.4385270000000 1.0
C      1  0.4384610000000  0.3843280000000  0.5326750000000 1.0
C      1  0.6031780000000  0.5063110000000  0.4578210000000 1.0
C      1  0.4801790000000  0.4019610000000  0.4969350000000 1.0
C      1  0.5911040000000  0.5274630000000  0.5292840000000 1.0
C      1  0.4278220000000  0.6421490000000  0.5064360000000 1.0
C      1  0.5745090000000  0.4258740000000  0.5213580000000 1.0
C      1  0.5539090000000  0.3933050000000  0.4892620000000 1.0
C      1  0.5047460000000  0.3836320000000  0.4407620000000 1.0
C      1  0.4743670000000  0.5710190000000  0.5001700000000 1.0
C      1  0.5901060000000  0.4978610000000  0.5322430000000 1.0
C      1  0.5195170000000  0.5719690000000  0.5096250000000 1.0
C      1  0.4260460000000  0.5726730000000  0.5406650000000 1.0
C      1  0.5348600000000  0.4340730000000  0.4710710000000 1.0
C      1  0.5331400000000  0.4130520000000  0.4900080000000 1.0
C      1  0.4791610000000  0.4292930000000  0.5574150000000 1.0
C      1  0.3862800000000  0.5546040000000  0.5209230000000 1.0
C      1  0.5878400000000  0.5053460000000  0.5832710000000 1.0
C      1  0.5838360000000  0.4877540000000  0.5603450000000 1.0
C      1  0.4518040000000  0.4439610000000  0.4346490000000 1.0
C      1  0.4498790000000  0.5379190000000  0.6410180000000 1.0
C      1  0.5648360000000  0.4039040000000  0.4449450000000 1.0
C      1  0.4511600000000  0.5976980000000  0.4500280000000 1.0
C      1  0.4770090000000  0.5667250000000  0.4006700000000 1.0
C      1  0.4164590000000  0.3668300000000  0.5414040000000 1.0
C      1  0.5589090000000  0.5455980000000  0.5923090000000 1.0
C      1  0.4207370000000  0.5177580000000  0.4148200000000 1.0
C      1  0.5690120000000  0.5240900000000  0.4058540000000 1.0
C      1  0.4812330000000  0.4814210000000  0.4602220000000 1.0
C      1  0.5444300000000  0.4887240000000  0.4942920000000 1.0
C      1  0.4628100000000  0.5606160000000  0.6354380000000 1.0
C      1  0.5344660000000  0.5567120000000  0.5950420000000 1.0
C      1  0.5165290000000  0.4544850000000  0.4745720000000 1.0
C      1  0.5427030000000  0.4600180000000  0.3710200000000 1.0
C      1  0.4614200000000  0.5292460000000  0.5239160000000 1.0
C      1  0.5456420000000  0.5440620000000  0.4838410000000 1.0
C      1  0.5905830000000  0.5409360000000  0.5547300000000 1.0
C      1  0.4941500000000  0.5643930000000  0.5210910000000 1.0
C      1  0.4934360000000  0.4997810000000  0.4037750000000 1.0
C      1  0.5245750000000  0.5271860000000  0.4193010000000 1.0
C      1  0.4228200000000  0.5157690000000  0.4988500000000 1.0
C      1  0.5180430000000  0.4558370000000  0.5415490000000 1.0
C      1  0.3923750000000  0.3742610000000  0.5298190000000 1.0
C      1  0.5760370000000  0.4023610000000  0.5046650000000 1.0
C      1  0.5196400000000  0.5099650000000  0.5932530000000 1.0
C      1  0.3962120000000  0.3961370000000  0.5133230000000 1.0
C      1  0.4307910000000  0.4516900000000  0.4541300000000 1.0
C      1  0.4506770000000  0.5621400000000  0.4122590000000 1.0
C      1  0.4501400000000  0.4985080000000  0.6088010000000 1.0
C      1  0.4738090000000  0.4734900000000  0.4860530000000 1.0
C      1  0.5801570000000  0.5537740000000  0.4564370000000 1.0
C      1  0.5869150000000  0.5473600000000  0.5084120000000 1.0
C      1  0.5336040000000  0.5204620000000  0.4448650000000 1.0
C      1  0.5570170000000  0.5068380000000  0.4504240000000 1.0
C      1  0.4380700000000  0.4251370000000  0.5003270000000 1.0
C      1  0.5043400000000  0.5684650000000  0.4096710000000 1.0
C      1  0.5219940000000  0.5053180000000  0.4015200000000 1.0
C      1  0.4883240000000  0.5992610000000  0.4851460000000 1.0
C      1  0.5050570000000  0.4663460000000  0.6033650000000 1.0
C      1  0.5279390000000  0.3746630000000  0.4512370000000 1.0
C      1  0.4972850000000  0.5445310000000  0.5437400000000 1.0
C      1  0.4138920000000  0.5597790000000  0.5187970000000 1.0
C      1  0.4847460000000  0.5662980000000  0.5884940000000 1.0
C      1  0.5527450000000  0.4530290000000  0.5862160000000 1.0
C      1  0.4766100000000  0.5181030000000  0.5047820000000 1.0
C      1  0.4145490000000  0.4731890000000  0.4436890000000 1.0
C      1  0.4706220000000  0.5323160000000  0.5521420000000 1.0
C      1  0.5509640000000  0.5009780000000  0.3954840000000 1.0
C      1  0.5233370000000  0.4804900000000  0.5540960000000 1.0
C      1  0.3698620000000  0.5374080000000  0.5332150000000 1.0
C      1  0.4381460000000  0.4933280000000  0.5425370000000 1.0
C      1  0.4451300000000  0.5143080000000  0.6295710000000 1.0
C      1  0.5170460000000  0.4526720000000  0.3683830000000 1.0
C      1  0.4653570000000  0.4224480000000  0.5090030000000 1.0
C      1  0.4133760000000  0.4958350000000  0.4288190000000 1.0
C      1  0.5813600000000  0.5217060000000  0.4390470000000 1.0
C      1  0.5993000000000  0.4967750000000  0.6065240000000 1.0
C      1  0.4639510000000  0.4893170000000  0.5860260000000 1.0
C      1  0.4867950000000  0.3774100000000  0.4910230000000 1.0
C      1  0.5702620000000  0.4641230000000  0.5687570000000 1.0
C      1  0.5836350000000  0.5738190000000  0.5200080000000 1.0
C      1  0.4627310000000  0.4668080000000  0.4202030000000 1.0
C      1  0.4765260000000  0.5711880000000  0.6151350000000 1.0
C      1  0.5217990000000  0.5065490000000  0.5654740000000 1.0
C      1  0.4490050000000  0.4276500000000  0.5950110000000 1.0
C      1  0.5870580000000  0.4511360000000  0.5142660000000 1.0
C      1  0.5459680000000  0.5953460000000  0.5499630000000 1.0
C      1  0.5685270000000  0.5813100000000  0.4569910000000 1.0
C      1  0.5202220000000  0.5921580000000  0.4857690000000 1.0
C      1  0.5267690000000  0.5047150000000  0.5080660000000 1.0
C      1  0.4781920000000  0.5355760000000  0.4471710000000 1.0
C      1  0.5548000000000  0.4305170000000  0.4501840000000 1.0
C      1  0.5368460000000  0.5500780000000  0.5092650000000 1.0
C      1  0.5002910000000  0.5074270000000  0.4999220000000 1.0
C      1  0.5347240000000  0.5265480000000  0.5244760000000 1.0
C      1  0.5115670000000  0.4925290000000  0.6120520000000 1.0
C      1  0.5711220000000  0.4606190000000  0.4102100000000 1.0
C      1  0.4754890000000  0.4380050000000  0.5305230000000 1.0
C      1  0.4687860000000  0.4402510000000  0.5809900000000 1.0
C      1  0.5072170000000  0.4712380000000  0.4538250000000 1.0
C      1  0.5266500000000  0.4285900000000  0.5484590000000 1.0
C      1  0.4841700000000  0.4001010000000  0.4355720000000 1.0
C      1  0.4596840000000  0.5038990000000  0.5613670000000 1.0
C      1  0.5255710000000  0.5385660000000  0.4644730000000 1.0
END
