TITL C-599894-471-1388 -0.00163803996742117 125000 -436.722093054387 0 0 72 (C1) n - 1
REM
REM in /home/nfs/bkarasulu/CARBON/AIRSS/Generating-Clusters/TERSOFF/Only-C1/FIRE-HFTN
REM
REM
REM
REM
REM
REM ./C.cell (11c1c37f851c82e70ff6c80c92926a4b)
REM AIRSS Version 0.9.1 bugfix July 2018 build 013d7b7c2542+ Fri, 06 Jul 2018 19:26:36 +0100
REM compiler GCC version 9.2.1 20190827 (Red Hat 9.2.1-1)
REM options -cpp -mtune=generic -march=x86-64 -g -O0 -fpre-include=/usr/include/finclude/math-vector-fortran.h
REM seed 1731222853 1152809815 -452188031 -1654192017 -1315520408 -2136242724 -1149806225 47982801 2147359903 -630357689 -1291255308 1136145608 1040306517 1719856965 2098158126 -1566740955 -1892719223 -1093814423 30444661 836615580 -1630674206 -1593913948 -1383872978 -1112666782 1149901855 -755253098 -1817419801 -994878147 977025903 1732181480 1915606158 -2126050307 -683006957
REM
CELL 1.54180   50.00000   50.00000   50.00000   90.00000   90.00000   90.00000
LATT -1
SFAC C  
C      1  0.4352120000000  0.4965470000000  0.4696910000000 1.0
C      1  0.4978540000000  0.5512490000000  0.4195520000000 1.0
C      1  0.5241850000000  0.5102390000000  0.4959570000000 1.0
C      1  0.4218760000000  0.4413290000000  0.5317680000000 1.0
C      1  0.4854540000000  0.4473490000000  0.4412700000000 1.0
C      1  0.5446760000000  0.5796080000000  0.4847700000000 1.0
C      1  0.5373380000000  0.5348000000000  0.4976290000000 1.0
C      1  0.5415840000000  0.4807790000000  0.5311470000000 1.0
C      1  0.5208220000000  0.4415960000000  0.4714920000000 1.0
C      1  0.5651240000000  0.5387030000000  0.4587860000000 1.0
C      1  0.5275300000000  0.4643110000000  0.5796120000000 1.0
C      1  0.5561540000000  0.5350080000000  0.4305290000000 1.0
C      1  0.4099940000000  0.4260260000000  0.5511770000000 1.0
C      1  0.4406910000000  0.5342780000000  0.4296140000000 1.0
C      1  0.6330880000000  0.4833030000000  0.5387130000000 1.0
C      1  0.4661900000000  0.4133890000000  0.4720490000000 1.0
C      1  0.5035200000000  0.5048490000000  0.4032320000000 1.0
C      1  0.5253060000000  0.4831410000000  0.5081710000000 1.0
C      1  0.4492410000000  0.4737210000000  0.4616880000000 1.0
C      1  0.4714540000000  0.4774580000000  0.6121350000000 1.0
C      1  0.5826510000000  0.5010140000000  0.4892620000000 1.0
C      1  0.4716510000000  0.4229840000000  0.4453880000000 1.0
C      1  0.4446000000000  0.4276000000000  0.4842810000000 1.0
C      1  0.4672700000000  0.5599780000000  0.4629370000000 1.0
C      1  0.5143700000000  0.4159680000000  0.4821150000000 1.0
C      1  0.4400800000000  0.5100310000000  0.5500150000000 1.0
C      1  0.4945830000000  0.5508550000000  0.5589580000000 1.0
C      1  0.4897570000000  0.4048080000000  0.4852240000000 1.0
C      1  0.5181010000000  0.5032210000000  0.4681400000000 1.0
C      1  0.4434980000000  0.5490880000000  0.4520640000000 1.0
C      1  0.4273860000000  0.4854420000000  0.5550440000000 1.0
C      1  0.5626930000000  0.5002360000000  0.5334920000000 1.0
C      1  0.4767980000000  0.5037880000000  0.6125070000000 1.0
C      1  0.4829530000000  0.4552780000000  0.6022890000000 1.0
C      1  0.5355960000000  0.4642770000000  0.5528510000000 1.0
C      1  0.5443220000000  0.5078850000000  0.4276890000000 1.0
C      1  0.5676680000000  0.5103410000000  0.4678850000000 1.0
C      1  0.4097700000000  0.4845660000000  0.5105940000000 1.0
C      1  0.5470910000000  0.5554700000000  0.4137620000000 1.0
C      1  0.6103080000000  0.4899300000000  0.5279290000000 1.0
C      1  0.5509930000000  0.5527770000000  0.4795640000000 1.0
C      1  0.5438220000000  0.4994910000000  0.4553140000000 1.0
C      1  0.4827500000000  0.5647760000000  0.5156470000000 1.0
C      1  0.4358310000000  0.4284460000000  0.5108440000000 1.0
C      1  0.5352640000000  0.4863230000000  0.5955830000000 1.0
C      1  0.5236070000000  0.5088100000000  0.6044030000000 1.0
C      1  0.5134860000000  0.4641320000000  0.4886290000000 1.0
C      1  0.4881690000000  0.5616280000000  0.4439960000000 1.0
C      1  0.4169350000000  0.4988750000000  0.4891990000000 1.0
C      1  0.4865570000000  0.5266970000000  0.4093180000000 1.0
C      1  0.5428610000000  0.5470550000000  0.5497180000000 1.0
C      1  0.5573730000000  0.5247670000000  0.5464340000000 1.0
C      1  0.4585380000000  0.5243150000000  0.4120200000000 1.0
C      1  0.5214850000000  0.5617480000000  0.4086430000000 1.0
C      1  0.4525420000000  0.5319640000000  0.5415680000000 1.0
C      1  0.5857070000000  0.4969900000000  0.5169310000000 1.0
C      1  0.4931890000000  0.5408480000000  0.5848000000000 1.0
C      1  0.4712700000000  0.5649680000000  0.4901990000000 1.0
C      1  0.4767030000000  0.4713760000000  0.4552260000000 1.0
C      1  0.5261960000000  0.4638160000000  0.4220960000000 1.0
C      1  0.4735520000000  0.5499990000000  0.5389810000000 1.0
C      1  0.4212080000000  0.4777990000000  0.5805440000000 1.0
C      1  0.4983260000000  0.4826130000000  0.4700530000000 1.0
C      1  0.4977360000000  0.5200230000000  0.6028370000000 1.0
C      1  0.4191740000000  0.4698360000000  0.5325900000000 1.0
C      1  0.4361570000000  0.4494480000000  0.4682970000000 1.0
C      1  0.5186490000000  0.5607180000000  0.5460400000000 1.0
C      1  0.5147750000000  0.4469590000000  0.4422700000000 1.0
C      1  0.5099580000000  0.5740980000000  0.5214510000000 1.0
C      1  0.5264520000000  0.4913700000000  0.4129980000000 1.0
C      1  0.5055340000000  0.4493960000000  0.5889600000000 1.0
C      1  0.5267640000000  0.5874960000000  0.5034410000000 1.0
END
