TITL C-599893-4344-51 -124.852208979031 125000 -1173.78293993685 0 0 190 (C1) n - 1
REM
REM in /home/nfs/bkarasulu/CARBON/AIRSS/Generating-Clusters/TERSOFF/Only-C1/FIRE-HFTN
REM
REM
REM
REM
REM
REM ./C.cell (11c1c37f851c82e70ff6c80c92926a4b)
REM AIRSS Version 0.9.1 bugfix July 2018 build 013d7b7c2542+ Fri, 06 Jul 2018 19:26:36 +0100
REM compiler GCC version 9.2.1 20190827 (Red Hat 9.2.1-1)
REM options -cpp -mtune=generic -march=x86-64 -g -O0 -fpre-include=/usr/include/finclude/math-vector-fortran.h
REM seed -989752258 -1080134274 -1421023739 -587419022 1901384346 -989535012 593130043 -1953957324 1957066954 -63076844 1630243550 -1756957634 1927672846 179398800 -408670141 -402457140 494998514 -668655289 -1778479389 -84613710 -950696064 487314069 1304680677 2013771131 505841624 -113767704 -1869040266 1463237128 -723718506 -1969871912 -1936162084 -1625594942 -1955995922
REM
CELL 1.54180   50.00000   50.00000   50.00000   90.00000   90.00000   90.00000
LATT -1
SFAC C  
C      1  0.6013680000000  0.5009350000000  0.4469460000000 1.0
C      1  0.4215330000000  0.5612700000000  0.4566400000000 1.0
C      1  0.4763490000000  0.6227230000000  0.5310600000000 1.0
C      1  0.5496960000000  0.4436930000000  0.4978460000000 1.0
C      1  0.4225100000000  0.3827930000000  0.4756700000000 1.0
C      1  0.5809070000000  0.5278750000000  0.5672920000000 1.0
C      1  0.3976560000000  0.4798590000000  0.4995470000000 1.0
C      1  0.4591540000000  0.4686760000000  0.5339960000000 1.0
C      1  0.5110620000000  0.4495810000000  0.6009680000000 1.0
C      1  0.5960670000000  0.4471060000000  0.4848770000000 1.0
C      1  0.5645010000000  0.5589190000000  0.4134230000000 1.0
C      1  0.5684330000000  0.5473960000000  0.5463950000000 1.0
C      1  0.5362990000000  0.3838990000000  0.5712320000000 1.0
C      1  0.5087480000000  0.4701540000000  0.6199480000000 1.0
C      1  0.4430580000000  0.5718520000000  0.5868310000000 1.0
C      1  0.5390570000000  0.6156400000000  0.5007280000000 1.0
C      1  0.5916970000000  0.5833550000000  0.5220140000000 1.0
C      1  0.5687070000000  0.4858790000000  0.3825420000000 1.0
C      1  0.5627380000000  0.4214540000000  0.5577900000000 1.0
C      1  0.3951660000000  0.5084170000000  0.4993750000000 1.0
C      1  0.5695040000000  0.5948680000000  0.5364650000000 1.0
C      1  0.5871750000000  0.4874920000000  0.4264330000000 1.0
C      1  0.4430650000000  0.4339400000000  0.4255970000000 1.0
C      1  0.4815620000000  0.5295640000000  0.5628840000000 1.0
C      1  0.5336050000000  0.3984980000000  0.5229880000000 1.0
C      1  0.4177810000000  0.6802110000000  0.4950500000000 1.0
C      1  0.5974060000000  0.5658170000000  0.4767660000000 1.0
C      1  0.5997020000000  0.5873470000000  0.4953370000000 1.0
C      1  0.5164750000000  0.3860810000000  0.4802950000000 1.0
C      1  0.4017810000000  0.5182720000000  0.4708350000000 1.0
C      1  0.3917150000000  0.5127870000000  0.5353220000000 1.0
C      1  0.5498080000000  0.5087390000000  0.4813860000000 1.0
C      1  0.4960130000000  0.5083390000000  0.4559160000000 1.0
C      1  0.4132910000000  0.6040430000000  0.5598790000000 1.0
C      1  0.5541110000000  0.6136730000000  0.5226940000000 1.0
C      1  0.3838280000000  0.4764000000000  0.4544350000000 1.0
C      1  0.5766630000000  0.4866280000000  0.5942160000000 1.0
C      1  0.5938200000000  0.5558100000000  0.5291410000000 1.0
C      1  0.4789330000000  0.5572270000000  0.5101210000000 1.0
C      1  0.5363830000000  0.5677370000000  0.6007690000000 1.0
C      1  0.4290410000000  0.5479220000000  0.5926310000000 1.0
C      1  0.4177800000000  0.4611480000000  0.3913570000000 1.0
C      1  0.4772980000000  0.5018720000000  0.3808290000000 1.0
C      1  0.4039450000000  0.4787450000000  0.5747670000000 1.0
C      1  0.5269760000000  0.5541160000000  0.4401910000000 1.0
C      1  0.4633670000000  0.4394840000000  0.6026020000000 1.0
C      1  0.4210340000000  0.4991110000000  0.5888140000000 1.0
C      1  0.3718340000000  0.4407170000000  0.4850320000000 1.0
C      1  0.4387790000000  0.4170850000000  0.5439420000000 1.0
C      1  0.4591790000000  0.5473090000000  0.3846450000000 1.0
C      1  0.4355690000000  0.4846680000000  0.5335840000000 1.0
C      1  0.4817920000000  0.4254580000000  0.3955660000000 1.0
C      1  0.5586300000000  0.4493220000000  0.4488180000000 1.0
C      1  0.4202350000000  0.4529980000000  0.5765610000000 1.0
C      1  0.4872190000000  0.5913950000000  0.5705330000000 1.0
C      1  0.5140720000000  0.5513140000000  0.6089680000000 1.0
C      1  0.5912850000000  0.4249990000000  0.5540040000000 1.0
C      1  0.4967410000000  0.4049410000000  0.5906270000000 1.0
C      1  0.5656370000000  0.4681460000000  0.4286040000000 1.0
C      1  0.4330330000000  0.5138500000000  0.4089790000000 1.0
C      1  0.4666500000000  0.5030220000000  0.4471380000000 1.0
C      1  0.4498520000000  0.3757040000000  0.4803840000000 1.0
C      1  0.4813380000000  0.5307530000000  0.4963480000000 1.0
C      1  0.4239590000000  0.5348270000000  0.4626190000000 1.0
C      1  0.5457990000000  0.3996530000000  0.5494290000000 1.0
C      1  0.5537650000000  0.4436620000000  0.5755400000000 1.0
C      1  0.4839860000000  0.4235710000000  0.5205940000000 1.0
C      1  0.5023340000000  0.4119620000000  0.3828160000000 1.0
C      1  0.5148760000000  0.5766450000000  0.4854900000000 1.0
C      1  0.4187800000000  0.6428170000000  0.5262710000000 1.0
C      1  0.5280660000000  0.5814700000000  0.3847140000000 1.0
C      1  0.5348250000000  0.4977610000000  0.5615020000000 1.0
C      1  0.5093600000000  0.4430850000000  0.4372270000000 1.0
C      1  0.4136850000000  0.3998920000000  0.4562360000000 1.0
C      1  0.3855150000000  0.4900370000000  0.5542380000000 1.0
C      1  0.4281830000000  0.6977770000000  0.4770870000000 1.0
C      1  0.5232950000000  0.4009450000000  0.3719410000000 1.0
C      1  0.4887180000000  0.4086360000000  0.5640190000000 1.0
C      1  0.4884560000000  0.5647550000000  0.6113700000000 1.0
C      1  0.5703080000000  0.4942220000000  0.5229620000000 1.0
C      1  0.4775650000000  0.4130050000000  0.4607180000000 1.0
C      1  0.5262670000000  0.4502770000000  0.5763900000000 1.0
C      1  0.4716680000000  0.4984450000000  0.6033360000000 1.0
C      1  0.5213820000000  0.5401460000000  0.5196640000000 1.0
C      1  0.4902840000000  0.4296740000000  0.6033180000000 1.0
C      1  0.4950200000000  0.4665080000000  0.4311340000000 1.0
C      1  0.4019090000000  0.4794680000000  0.4030230000000 1.0
C      1  0.4714060000000  0.5785780000000  0.5926190000000 1.0
C      1  0.4461150000000  0.4868960000000  0.5975460000000 1.0
C      1  0.4574710000000  0.5161590000000  0.4886580000000 1.0
C      1  0.3842510000000  0.4644040000000  0.4798940000000 1.0
C      1  0.5133390000000  0.4507220000000  0.5502600000000 1.0
C      1  0.4098240000000  0.5007620000000  0.4203040000000 1.0
C      1  0.4758880000000  0.6328140000000  0.5048600000000 1.0
C      1  0.4175610000000  0.5258860000000  0.5789590000000 1.0
C      1  0.6085160000000  0.5361030000000  0.5139410000000 1.0
C      1  0.4569330000000  0.4157740000000  0.5237550000000 1.0
C      1  0.5319590000000  0.4862420000000  0.4832200000000 1.0
C      1  0.5768170000000  0.4601860000000  0.5840510000000 1.0
C      1  0.4131070000000  0.4704580000000  0.5208950000000 1.0
C      1  0.5001680000000  0.5190120000000  0.3771170000000 1.0
C      1  0.5073240000000  0.5645160000000  0.5103860000000 1.0
C      1  0.4208190000000  0.4172870000000  0.4366570000000 1.0
C      1  0.4662550000000  0.3661220000000  0.5018710000000 1.0
C      1  0.4988290000000  0.4892170000000  0.5214530000000 1.0
C      1  0.4136260000000  0.5250700000000  0.5494880000000 1.0
C      1  0.5189400000000  0.4695160000000  0.5281010000000 1.0
C      1  0.4483670000000  0.5205400000000  0.4620490000000 1.0
C      1  0.4533150000000  0.4533010000000  0.4466280000000 1.0
C      1  0.6167200000000  0.4075140000000  0.5091410000000 1.0
C      1  0.5570750000000  0.5507180000000  0.4422680000000 1.0
C      1  0.4316090000000  0.6581270000000  0.5067850000000 1.0
C      1  0.5031240000000  0.4297110000000  0.4978300000000 1.0
C      1  0.4958310000000  0.4284180000000  0.5456420000000 1.0
C      1  0.5015830000000  0.5491360000000  0.5574800000000 1.0
C      1  0.4937320000000  0.6208050000000  0.4865580000000 1.0
C      1  0.5490280000000  0.5363000000000  0.5239960000000 1.0
C      1  0.5523530000000  0.5746770000000  0.3949340000000 1.0
C      1  0.5543940000000  0.4883950000000  0.5452140000000 1.0
C      1  0.4728000000000  0.6008730000000  0.5477440000000 1.0
C      1  0.4100570000000  0.6259170000000  0.5448690000000 1.0
C      1  0.5023770000000  0.5170220000000  0.5153320000000 1.0
C      1  0.4422120000000  0.4495720000000  0.3982730000000 1.0
C      1  0.4642260000000  0.3885340000000  0.4593440000000 1.0
C      1  0.4697850000000  0.4507550000000  0.3865000000000 1.0
C      1  0.6118280000000  0.4239410000000  0.4847750000000 1.0
C      1  0.5167820000000  0.3785200000000  0.5084770000000 1.0
C      1  0.5114570000000  0.4854960000000  0.4185540000000 1.0
C      1  0.6076830000000  0.5397240000000  0.4850840000000 1.0
C      1  0.5344580000000  0.4357820000000  0.4430400000000 1.0
C      1  0.5162180000000  0.5357840000000  0.4205460000000 1.0
C      1  0.6045460000000  0.4689880000000  0.5007660000000 1.0
C      1  0.4909300000000  0.3667370000000  0.5140370000000 1.0
C      1  0.5583630000000  0.5753020000000  0.5553560000000 1.0
C      1  0.5665610000000  0.5130770000000  0.5881720000000 1.0
C      1  0.4588650000000  0.6540910000000  0.4973690000000 1.0
C      1  0.6091220000000  0.5186050000000  0.4659230000000 1.0
C      1  0.5891170000000  0.4950250000000  0.3986300000000 1.0
C      1  0.5099970000000  0.5754170000000  0.5635670000000 1.0
C      1  0.4566060000000  0.4894270000000  0.4947290000000 1.0
C      1  0.4875190000000  0.4864310000000  0.6236480000000 1.0
C      1  0.5596680000000  0.5155640000000  0.5073370000000 1.0
C      1  0.4659960000000  0.5942150000000  0.3723710000000 1.0
C      1  0.4872500000000  0.5161340000000  0.5872360000000 1.0
C      1  0.5122470000000  0.5575460000000  0.4641310000000 1.0
C      1  0.4858880000000  0.4737950000000  0.3804140000000 1.0
C      1  0.5374110000000  0.5131190000000  0.5853940000000 1.0
C      1  0.5111690000000  0.5102030000000  0.4306270000000 1.0
C      1  0.4679900000000  0.4403440000000  0.4670860000000 1.0
C      1  0.6119120000000  0.5119680000000  0.5294340000000 1.0
C      1  0.6337790000000  0.3857040000000  0.5002470000000 1.0
C      1  0.5979610000000  0.4892530000000  0.5188180000000 1.0
C      1  0.4047290000000  0.4464050000000  0.5328130000000 1.0
C      1  0.5019990000000  0.4098700000000  0.4748290000000 1.0
C      1  0.5190600000000  0.3877600000000  0.5919270000000 1.0
C      1  0.4384390000000  0.5133590000000  0.5402570000000 1.0
C      1  0.4517640000000  0.5819950000000  0.5419020000000 1.0
C      1  0.5198530000000  0.4759410000000  0.3942480000000 1.0
C      1  0.4539280000000  0.6945050000000  0.4688940000000 1.0
C      1  0.4194390000000  0.4351080000000  0.5539920000000 1.0
C      1  0.5366860000000  0.5771250000000  0.5736910000000 1.0
C      1  0.5763970000000  0.5669330000000  0.4582640000000 1.0
C      1  0.5042320000000  0.5661920000000  0.3848450000000 1.0
C      1  0.5095330000000  0.5397610000000  0.3935360000000 1.0
C      1  0.5139140000000  0.5244830000000  0.5976230000000 1.0
C      1  0.4680630000000  0.4755860000000  0.4376760000000 1.0
C      1  0.4683370000000  0.6736930000000  0.4788250000000 1.0
C      1  0.6390820000000  0.3881500000000  0.4730850000000 1.0
C      1  0.4596280000000  0.5316380000000  0.5449120000000 1.0
C      1  0.6262580000000  0.4107660000000  0.4633300000000 1.0
C      1  0.4972340000000  0.5339240000000  0.4710510000000 1.0
C      1  0.5370200000000  0.4680100000000  0.5050810000000 1.0
C      1  0.4327780000000  0.5843600000000  0.5630050000000 1.0
C      1  0.4884210000000  0.4560780000000  0.4863050000000 1.0
C      1  0.4681250000000  0.4166900000000  0.4195960000000 1.0
C      1  0.4548100000000  0.5191380000000  0.3907830000000 1.0
C      1  0.6061600000000  0.5168000000000  0.5575000000000 1.0
C      1  0.4756830000000  0.4728320000000  0.5096700000000 1.0
C      1  0.4438170000000  0.4576940000000  0.5933790000000 1.0
C      1  0.5687910000000  0.4456870000000  0.4761520000000 1.0
C      1  0.5571330000000  0.5237570000000  0.4583400000000 1.0
C      1  0.6065570000000  0.4129070000000  0.5343300000000 1.0
C      1  0.5069650000000  0.4833170000000  0.4721930000000 1.0
C      1  0.3969830000000  0.5004940000000  0.4470370000000 1.0
C      1  0.5482880000000  0.4718480000000  0.3959180000000 1.0
C      1  0.4761680000000  0.5701570000000  0.3803210000000 1.0
C      1  0.5992410000000  0.4467760000000  0.5712750000000 1.0
C      1  0.5170650000000  0.6049630000000  0.4868030000000 1.0
C      1  0.4596270000000  0.5572420000000  0.5305500000000 1.0
C      1  0.5321170000000  0.4235600000000  0.5074590000000 1.0
END
