TITL C-599891-72-943 -4787.34783445119 125000 -1195.77157659946 0 0 197 (C1) n - 1
REM
REM in /home/nfs/bkarasulu/CARBON/AIRSS/Generating-Clusters/TERSOFF/Only-C1/FIRE-HFTN
REM
REM
REM
REM
REM
REM ./C.cell (11c1c37f851c82e70ff6c80c92926a4b)
REM AIRSS Version 0.9.1 bugfix July 2018 build 013d7b7c2542+ Fri, 06 Jul 2018 19:26:36 +0100
REM compiler GCC version 9.2.1 20190827 (Red Hat 9.2.1-1)
REM options -cpp -mtune=generic -march=x86-64 -g -O0 -fpre-include=/usr/include/finclude/math-vector-fortran.h
REM seed -430408341 -995946461 -1519916052 -192438635 1219756418 -1077776611 1860087622 346591589 1894400473 -882238371 712624093 555751374 1482878602 -1845731863 -1389293642 1131216540 -38579492 -3363608 1129055623 -106130892 -1494280849 -934964431 1605383413 -84015132 -130529322 -136845772 -1856390811 1761844201 1230666808 -1874880384 1448414094 -669909283 709488425
REM
CELL 1.54180   50.00000   50.00000   50.00000   90.00000   90.00000   90.00000
LATT -1
SFAC C  
C      1  0.4470370000000  0.4127140000000  0.5429710000000 1.0
C      1  0.5471450000000  0.5977850000000  0.4920060000000 1.0
C      1  0.4591520000000  0.4723200000000  0.4728530000000 1.0
C      1  0.6059760000000  0.4933950000000  0.5666850000000 1.0
C      1  0.4426250000000  0.5240300000000  0.6133170000000 1.0
C      1  0.4493330000000  0.3900580000000  0.5259120000000 1.0
C      1  0.3829630000000  0.4751160000000  0.5549540000000 1.0
C      1  0.4924380000000  0.5832040000000  0.5340370000000 1.0
C      1  0.5515090000000  0.3809700000000  0.4969790000000 1.0
C      1  0.5253750000000  0.5427260000000  0.3930360000000 1.0
C      1  0.4633430000000  0.4554200000000  0.5265920000000 1.0
C      1  0.5522510000000  0.4569710000000  0.6038740000000 1.0
C      1  0.6401310000000  0.4860620000000  0.4941760000000 1.0
C      1  0.4875700000000  0.5853900000000  0.5613620000000 1.0
C      1  0.4674330000000  0.4838860000000  0.5224600000000 1.0
C      1  0.4570070000000  0.4394820000000  0.5832210000000 1.0
C      1  0.5020100000000  0.4721640000000  0.4437100000000 1.0
C      1  0.4894420000000  0.5831410000000  0.4499400000000 1.0
C      1  0.4642590000000  0.4204670000000  0.4756260000000 1.0
C      1  0.5947710000000  0.5021070000000  0.4993630000000 1.0
C      1  0.5295070000000  0.5270450000000  0.5082940000000 1.0
C      1  0.5545420000000  0.5454700000000  0.3945650000000 1.0
C      1  0.5556240000000  0.4683990000000  0.5774880000000 1.0
C      1  0.5293280000000  0.4255900000000  0.5451870000000 1.0
C      1  0.4808280000000  0.5356920000000  0.4644630000000 1.0
C      1  0.4806620000000  0.4519470000000  0.5935720000000 1.0
C      1  0.4417370000000  0.5356410000000  0.3812100000000 1.0
C      1  0.5715960000000  0.4575650000000  0.4897890000000 1.0
C      1  0.5641680000000  0.6215820000000  0.5580030000000 1.0
C      1  0.5490020000000  0.4749100000000  0.6245980000000 1.0
C      1  0.4954770000000  0.3870430000000  0.5448590000000 1.0
C      1  0.4856870000000  0.4001150000000  0.5689260000000 1.0
C      1  0.4400860000000  0.4934210000000  0.5248370000000 1.0
C      1  0.3886240000000  0.4607460000000  0.5310170000000 1.0
C      1  0.4960180000000  0.3867820000000  0.4320050000000 1.0
C      1  0.5027680000000  0.6022950000000  0.4677890000000 1.0
C      1  0.5095300000000  0.3880960000000  0.5215470000000 1.0
C      1  0.4297310000000  0.5143830000000  0.4697810000000 1.0
C      1  0.4892300000000  0.5185040000000  0.5611720000000 1.0
C      1  0.5034960000000  0.4620900000000  0.5545710000000 1.0
C      1  0.4220280000000  0.5268380000000  0.5933760000000 1.0
C      1  0.4987470000000  0.5759130000000  0.4238070000000 1.0
C      1  0.5054410000000  0.4406400000000  0.5365770000000 1.0
C      1  0.6303360000000  0.4842060000000  0.4683840000000 1.0
C      1  0.4358080000000  0.5568570000000  0.4907450000000 1.0
C      1  0.5083980000000  0.5720520000000  0.5772200000000 1.0
C      1  0.6403240000000  0.6115230000000  0.5482130000000 1.0
C      1  0.5673620000000  0.4443010000000  0.3997740000000 1.0
C      1  0.5838240000000  0.5322060000000  0.4389540000000 1.0
C      1  0.5363110000000  0.4869200000000  0.5349570000000 1.0
C      1  0.4986870000000  0.4129890000000  0.4197040000000 1.0
C      1  0.4367870000000  0.4953610000000  0.4223510000000 1.0
C      1  0.4349340000000  0.5443960000000  0.5740310000000 1.0
C      1  0.4572120000000  0.5742350000000  0.4854890000000 1.0
C      1  0.4814480000000  0.4847100000000  0.5746230000000 1.0
C      1  0.4271310000000  0.5489740000000  0.3994590000000 1.0
C      1  0.4897220000000  0.5908420000000  0.4019460000000 1.0
C      1  0.5681960000000  0.5659060000000  0.5826140000000 1.0
C      1  0.3953900000000  0.5429730000000  0.5555890000000 1.0
C      1  0.5053380000000  0.6031420000000  0.5172980000000 1.0
C      1  0.4516830000000  0.4855460000000  0.5703550000000 1.0
C      1  0.5810430000000  0.4342860000000  0.4721290000000 1.0
C      1  0.5369260000000  0.5430960000000  0.4368440000000 1.0
C      1  0.5424790000000  0.4328720000000  0.3971760000000 1.0
C      1  0.4630450000000  0.4984190000000  0.4316490000000 1.0
C      1  0.5303390000000  0.4135360000000  0.5706880000000 1.0
C      1  0.5788010000000  0.5047100000000  0.4762460000000 1.0
C      1  0.5553790000000  0.5410730000000  0.5128900000000 1.0
C      1  0.4184800000000  0.4843420000000  0.4061030000000 1.0
C      1  0.4619300000000  0.6002330000000  0.4960160000000 1.0
C      1  0.4229650000000  0.5970490000000  0.5304390000000 1.0
C      1  0.4734850000000  0.3928830000000  0.4806770000000 1.0
C      1  0.4546940000000  0.5023010000000  0.4781450000000 1.0
C      1  0.5253680000000  0.5512520000000  0.5656930000000 1.0
C      1  0.4133120000000  0.4601830000000  0.4626150000000 1.0
C      1  0.5768230000000  0.3870330000000  0.4901100000000 1.0
C      1  0.5653500000000  0.4888380000000  0.5320040000000 1.0
C      1  0.4297960000000  0.5432740000000  0.4666790000000 1.0
C      1  0.4479200000000  0.5308950000000  0.5534470000000 1.0
C      1  0.4390360000000  0.4610610000000  0.5781580000000 1.0
C      1  0.5345690000000  0.6068910000000  0.5166190000000 1.0
C      1  0.4739070000000  0.4757800000000  0.4458950000000 1.0
C      1  0.4950900000000  0.5221210000000  0.6167540000000 1.0
C      1  0.3834180000000  0.5733930000000  0.4985200000000 1.0
C      1  0.5823600000000  0.4477110000000  0.4240580000000 1.0
C      1  0.4821850000000  0.6049070000000  0.3808100000000 1.0
C      1  0.4122680000000  0.4448200000000  0.5306370000000 1.0
C      1  0.5165630000000  0.5540980000000  0.4192860000000 1.0
C      1  0.4606840000000  0.4146720000000  0.5680570000000 1.0
C      1  0.4358220000000  0.4160940000000  0.4719830000000 1.0
C      1  0.5139960000000  0.4623160000000  0.4671260000000 1.0
C      1  0.3987180000000  0.5889750000000  0.5155860000000 1.0
C      1  0.4231380000000  0.4780280000000  0.3802020000000 1.0
C      1  0.5772080000000  0.4884850000000  0.5777490000000 1.0
C      1  0.5466140000000  0.5027690000000  0.6163210000000 1.0
C      1  0.5196350000000  0.4941550000000  0.4029390000000 1.0
C      1  0.3899710000000  0.4445530000000  0.4601930000000 1.0
C      1  0.6071890000000  0.5742730000000  0.5279980000000 1.0
C      1  0.6076810000000  0.4620090000000  0.4275490000000 1.0
C      1  0.4892400000000  0.6089900000000  0.4931790000000 1.0
C      1  0.5895100000000  0.4094060000000  0.4822200000000 1.0
C      1  0.5261400000000  0.4239100000000  0.4188860000000 1.0
C      1  0.3968410000000  0.5212710000000  0.5776390000000 1.0
C      1  0.5705340000000  0.5314990000000  0.4666300000000 1.0
C      1  0.4993420000000  0.5724160000000  0.6043550000000 1.0
C      1  0.5240400000000  0.4825990000000  0.4280690000000 1.0
C      1  0.6397040000000  0.4887480000000  0.5219980000000 1.0
C      1  0.5401460000000  0.5269590000000  0.4605510000000 1.0
C      1  0.6147790000000  0.5153120000000  0.5839110000000 1.0
C      1  0.4430990000000  0.6094830000000  0.5147310000000 1.0
C      1  0.4079360000000  0.5512140000000  0.4492310000000 1.0
C      1  0.4715820000000  0.5637070000000  0.6025870000000 1.0
C      1  0.4222590000000  0.5464500000000  0.5137530000000 1.0
C      1  0.4871510000000  0.5028130000000  0.5127840000000 1.0
C      1  0.5065820000000  0.4113300000000  0.5855300000000 1.0
C      1  0.6203940000000  0.4821090000000  0.5435390000000 1.0
C      1  0.3783220000000  0.5259630000000  0.5094560000000 1.0
C      1  0.5176530000000  0.5634390000000  0.4831850000000 1.0
C      1  0.3984450000000  0.5359580000000  0.5277000000000 1.0
C      1  0.3863440000000  0.5359690000000  0.4625850000000 1.0
C      1  0.4404330000000  0.5035840000000  0.5510040000000 1.0
C      1  0.5494590000000  0.4818450000000  0.4427040000000 1.0
C      1  0.4754940000000  0.5229610000000  0.4389770000000 1.0
C      1  0.4484670000000  0.4855280000000  0.3694180000000 1.0
C      1  0.5851750000000  0.4763020000000  0.5123420000000 1.0
C      1  0.5128810000000  0.5804140000000  0.6264020000000 1.0
C      1  0.4399720000000  0.4385380000000  0.5323030000000 1.0
C      1  0.5475600000000  0.4450140000000  0.5061420000000 1.0
C      1  0.6139730000000  0.4857600000000  0.4438930000000 1.0
C      1  0.6016280000000  0.4358010000000  0.5377610000000 1.0
C      1  0.4887120000000  0.3830190000000  0.4592180000000 1.0
C      1  0.5274580000000  0.5886040000000  0.4744350000000 1.0
C      1  0.5954510000000  0.5237520000000  0.6019170000000 1.0
C      1  0.5310940000000  0.4239150000000  0.4912290000000 1.0
C      1  0.5088220000000  0.5487040000000  0.5054590000000 1.0
C      1  0.4276800000000  0.3921080000000  0.4833930000000 1.0
C      1  0.6035200000000  0.5115380000000  0.4354510000000 1.0
C      1  0.5528800000000  0.6097450000000  0.5376350000000 1.0
C      1  0.4856040000000  0.4420170000000  0.5142510000000 1.0
C      1  0.4750700000000  0.5638480000000  0.4654250000000 1.0
C      1  0.5144830000000  0.4924630000000  0.5853340000000 1.0
C      1  0.5401060000000  0.4282330000000  0.4439360000000 1.0
C      1  0.5689540000000  0.4345360000000  0.4459850000000 1.0
C      1  0.4008030000000  0.5094780000000  0.4654200000000 1.0
C      1  0.4687380000000  0.4662260000000  0.3734230000000 1.0
C      1  0.5633210000000  0.5427230000000  0.4217930000000 1.0
C      1  0.5294910000000  0.4759070000000  0.5625860000000 1.0
C      1  0.5705660000000  0.5090800000000  0.5999030000000 1.0
C      1  0.3970780000000  0.4262930000000  0.4386880000000 1.0
C      1  0.4738260000000  0.5369610000000  0.5446240000000 1.0
C      1  0.4136340000000  0.5548850000000  0.4219740000000 1.0
C      1  0.4318310000000  0.4652420000000  0.4821340000000 1.0
C      1  0.6247430000000  0.5932190000000  0.5381470000000 1.0
C      1  0.5685150000000  0.5521670000000  0.4883190000000 1.0
C      1  0.5307960000000  0.4700290000000  0.5103300000000 1.0
C      1  0.5223200000000  0.4822790000000  0.4859150000000 1.0
C      1  0.4757910000000  0.6196460000000  0.3597300000000 1.0
C      1  0.5785710000000  0.4223940000000  0.5392570000000 1.0
C      1  0.6086410000000  0.5239750000000  0.5106120000000 1.0
C      1  0.5191140000000  0.5082540000000  0.6074000000000 1.0
C      1  0.5007470000000  0.3646520000000  0.4164210000000 1.0
C      1  0.4517710000000  0.5137670000000  0.3689010000000 1.0
C      1  0.4690490000000  0.5361660000000  0.6127330000000 1.0
C      1  0.5195810000000  0.5107570000000  0.5296140000000 1.0
C      1  0.5702280000000  0.5810090000000  0.4957830000000 1.0
C      1  0.4778360000000  0.5165930000000  0.4874210000000 1.0
C      1  0.3859150000000  0.4958890000000  0.5717230000000 1.0
C      1  0.3733720000000  0.4524530000000  0.4828300000000 1.0
C      1  0.5286590000000  0.3970090000000  0.5020590000000 1.0
C      1  0.5164590000000  0.5163710000000  0.3880830000000 1.0
C      1  0.4469920000000  0.4206810000000  0.4180600000000 1.0
C      1  0.4700030000000  0.6345120000000  0.3391100000000 1.0
C      1  0.3754330000000  0.4698490000000  0.5064510000000 1.0
C      1  0.5791760000000  0.5793600000000  0.5244120000000 1.0
C      1  0.5000500000000  0.4337830000000  0.6016910000000 1.0
C      1  0.6044100000000  0.4623840000000  0.5302720000000 1.0
C      1  0.4763440000000  0.4428910000000  0.4863950000000 1.0
C      1  0.4309300000000  0.5855330000000  0.5561500000000 1.0
C      1  0.4613760000000  0.5824620000000  0.5735170000000 1.0
C      1  0.5285020000000  0.5110500000000  0.4820020000000 1.0
C      1  0.5243760000000  0.4355660000000  0.4663740000000 1.0
C      1  0.4767120000000  0.4455370000000  0.3886550000000 1.0
C      1  0.6291180000000  0.4515920000000  0.4133740000000 1.0
C      1  0.4157230000000  0.5629280000000  0.5639590000000 1.0
C      1  0.4510870000000  0.3827790000000  0.4984880000000 1.0
C      1  0.5622550000000  0.5577490000000  0.5353940000000 1.0
C      1  0.3708330000000  0.4985320000000  0.5060890000000 1.0
C      1  0.4892640000000  0.5554740000000  0.5256040000000 1.0
C      1  0.5531670000000  0.4305120000000  0.5313750000000 1.0
C      1  0.4742770000000  0.4259990000000  0.4092710000000 1.0
C      1  0.4204130000000  0.4210860000000  0.4247490000000 1.0
C      1  0.3769970000000  0.5464370000000  0.4881420000000 1.0
C      1  0.5658470000000  0.4807890000000  0.4668900000000 1.0
C      1  0.5527160000000  0.5575280000000  0.5617180000000 1.0
C      1  0.4243480000000  0.4808880000000  0.5052450000000 1.0
C      1  0.6151430000000  0.5480940000000  0.5203960000000 1.0
C      1  0.5154840000000  0.5261630000000  0.5550540000000 1.0
END
