TITL C-599897-7526-1060 9076.58161129867 125000 -1160.72076696208 0 0 190 (C1) n - 1
REM
REM in /home/nfs/bkarasulu/CARBON/AIRSS/Generating-Clusters/TERSOFF/Only-C1/FIRE-HFTN
REM
REM
REM
REM
REM
REM ./C.cell (11c1c37f851c82e70ff6c80c92926a4b)
REM AIRSS Version 0.9.1 bugfix July 2018 build 013d7b7c2542+ Fri, 06 Jul 2018 19:26:36 +0100
REM compiler GCC version 9.2.1 20190827 (Red Hat 9.2.1-1)
REM options -cpp -mtune=generic -march=x86-64 -g -O0 -fpre-include=/usr/include/finclude/math-vector-fortran.h
REM seed -398430003 -1663234168 -1651518422 958078411 -1988610874 -1197841530 -494292059 436656122 -1001030719 1073382943 -1857454207 1434064408 -652479025 1307807980 888964172 1302437861 576844227 188283127 1679035048 454304130 1146414906 979271494 1412962136 1976113725 592093260 -1593134708 684692353 -1702654913 -1375155209 1743168305 -448338508 1525353427 -1300117382
REM
CELL 1.54180   50.00000   50.00000   50.00000   90.00000   90.00000   90.00000
LATT -1
SFAC C  
C      1  0.6142110000000  0.5581720000000  0.5154590000000 1.0
C      1  0.4445560000000  0.4745630000000  0.4820350000000 1.0
C      1  0.4184640000000  0.5761580000000  0.5159920000000 1.0
C      1  0.5917650000000  0.4226930000000  0.5362200000000 1.0
C      1  0.5051810000000  0.5189260000000  0.5460440000000 1.0
C      1  0.5452650000000  0.5564880000000  0.5197560000000 1.0
C      1  0.5397050000000  0.5833320000000  0.4068870000000 1.0
C      1  0.4714580000000  0.4597360000000  0.5534770000000 1.0
C      1  0.4910990000000  0.4714840000000  0.5703770000000 1.0
C      1  0.4610010000000  0.4527190000000  0.3557400000000 1.0
C      1  0.6214180000000  0.5090390000000  0.4714150000000 1.0
C      1  0.6035280000000  0.4907020000000  0.5569450000000 1.0
C      1  0.5315290000000  0.4573350000000  0.4979300000000 1.0
C      1  0.4005800000000  0.5412590000000  0.4557990000000 1.0
C      1  0.4416750000000  0.4895190000000  0.5249320000000 1.0
C      1  0.5108950000000  0.4321220000000  0.5586000000000 1.0
C      1  0.4029230000000  0.5589480000000  0.4770150000000 1.0
C      1  0.4932630000000  0.4868110000000  0.5039080000000 1.0
C      1  0.5830340000000  0.4495460000000  0.5415110000000 1.0
C      1  0.5619460000000  0.4501520000000  0.4582780000000 1.0
C      1  0.4807180000000  0.4902750000000  0.6134520000000 1.0
C      1  0.5219270000000  0.3857860000000  0.4671990000000 1.0
C      1  0.5167540000000  0.5801100000000  0.4857770000000 1.0
C      1  0.4850490000000  0.5365420000000  0.6027260000000 1.0
C      1  0.5510120000000  0.4756220000000  0.5079060000000 1.0
C      1  0.3878910000000  0.5164850000000  0.4604870000000 1.0
C      1  0.3794310000000  0.4786640000000  0.3749750000000 1.0
C      1  0.5724750000000  0.5242460000000  0.5705740000000 1.0
C      1  0.5257970000000  0.5171270000000  0.4981340000000 1.0
C      1  0.6192430000000  0.5071460000000  0.5000230000000 1.0
C      1  0.3909890000000  0.4728030000000  0.4766750000000 1.0
C      1  0.5563750000000  0.5180060000000  0.4130270000000 1.0
C      1  0.5640930000000  0.3932180000000  0.4999750000000 1.0
C      1  0.4232760000000  0.4062800000000  0.4877350000000 1.0
C      1  0.4309450000000  0.4577460000000  0.4422330000000 1.0
C      1  0.4414830000000  0.5277610000000  0.4966570000000 1.0
C      1  0.4414980000000  0.4283960000000  0.5661240000000 1.0
C      1  0.4618110000000  0.5497170000000  0.6034560000000 1.0
C      1  0.5290680000000  0.5111750000000  0.3724340000000 1.0
C      1  0.4236690000000  0.4666300000000  0.3909900000000 1.0
C      1  0.5446010000000  0.5613050000000  0.3914040000000 1.0
C      1  0.6098310000000  0.4212980000000  0.6069600000000 1.0
C      1  0.4716080000000  0.3924890000000  0.4743200000000 1.0
C      1  0.5442160000000  0.3844420000000  0.4843960000000 1.0
C      1  0.3848930000000  0.4451430000000  0.4837900000000 1.0
C      1  0.4826690000000  0.6083760000000  0.4428310000000 1.0
C      1  0.5481420000000  0.4693920000000  0.5758710000000 1.0
C      1  0.4440410000000  0.5541650000000  0.5817970000000 1.0
C      1  0.5145110000000  0.4734530000000  0.4350820000000 1.0
C      1  0.4040600000000  0.5518370000000  0.5059050000000 1.0
C      1  0.4128680000000  0.5472770000000  0.4303810000000 1.0
C      1  0.4462060000000  0.5164910000000  0.5216790000000 1.0
C      1  0.5989170000000  0.5054880000000  0.4270790000000 1.0
C      1  0.5575850000000  0.4514330000000  0.5553780000000 1.0
C      1  0.5604030000000  0.5651420000000  0.5434800000000 1.0
C      1  0.4705600000000  0.5139800000000  0.4639000000000 1.0
C      1  0.4549910000000  0.3849530000000  0.5719730000000 1.0
C      1  0.4072800000000  0.4917050000000  0.5913810000000 1.0
C      1  0.4849040000000  0.4403210000000  0.3475720000000 1.0
C      1  0.5051840000000  0.4481100000000  0.4326080000000 1.0
C      1  0.4068390000000  0.4688490000000  0.4524250000000 1.0
C      1  0.5806860000000  0.4074900000000  0.5153060000000 1.0
C      1  0.4674280000000  0.3331890000000  0.5646070000000 1.0
C      1  0.4389920000000  0.4613930000000  0.3680670000000 1.0
C      1  0.4760100000000  0.5087360000000  0.3636500000000 1.0
C      1  0.4001050000000  0.4830650000000  0.3924500000000 1.0
C      1  0.5961300000000  0.5058490000000  0.6038440000000 1.0
C      1  0.4580400000000  0.4050240000000  0.5221280000000 1.0
C      1  0.6213530000000  0.5323080000000  0.5132540000000 1.0
C      1  0.4837410000000  0.4187620000000  0.3307000000000 1.0
C      1  0.4311850000000  0.5891140000000  0.4490380000000 1.0
C      1  0.5768730000000  0.4722290000000  0.4679790000000 1.0
C      1  0.5280570000000  0.6064680000000  0.4194640000000 1.0
C      1  0.5018880000000  0.4779270000000  0.6285460000000 1.0
C      1  0.6370580000000  0.4802230000000  0.5912790000000 1.0
C      1  0.4859980000000  0.5405070000000  0.5411810000000 1.0
C      1  0.5375310000000  0.4315110000000  0.5491170000000 1.0
C      1  0.5314020000000  0.4634280000000  0.3641180000000 1.0
C      1  0.5090560000000  0.5057810000000  0.5193270000000 1.0
C      1  0.5080510000000  0.4498310000000  0.5819640000000 1.0
C      1  0.4781590000000  0.4251720000000  0.5194420000000 1.0
C      1  0.5876230000000  0.5132790000000  0.5507010000000 1.0
C      1  0.6013510000000  0.5817500000000  0.5142480000000 1.0
C      1  0.5831540000000  0.6015280000000  0.5156440000000 1.0
C      1  0.5470550000000  0.4130390000000  0.4320150000000 1.0
C      1  0.5791760000000  0.5313080000000  0.4652550000000 1.0
C      1  0.4229370000000  0.5851950000000  0.4011380000000 1.0
C      1  0.4039340000000  0.4898900000000  0.5628910000000 1.0
C      1  0.5796630000000  0.4885090000000  0.6215560000000 1.0
C      1  0.4347040000000  0.5271670000000  0.3903060000000 1.0
C      1  0.4910110000000  0.5104170000000  0.5953470000000 1.0
C      1  0.4599600000000  0.5312940000000  0.5403400000000 1.0
C      1  0.6016110000000  0.5176260000000  0.4527090000000 1.0
C      1  0.6124920000000  0.4107350000000  0.5826680000000 1.0
C      1  0.4871020000000  0.5578610000000  0.3972360000000 1.0
C      1  0.5662420000000  0.4532980000000  0.4090590000000 1.0
C      1  0.4431320000000  0.4554600000000  0.5575390000000 1.0
C      1  0.4151480000000  0.5268620000000  0.4103180000000 1.0
C      1  0.4771410000000  0.4157510000000  0.4573260000000 1.0
C      1  0.5748530000000  0.4883930000000  0.4940500000000 1.0
C      1  0.4907670000000  0.5561910000000  0.4235970000000 1.0
C      1  0.4072580000000  0.4292220000000  0.4931520000000 1.0
C      1  0.5240730000000  0.4983530000000  0.4454160000000 1.0
C      1  0.4511000000000  0.5788680000000  0.5692090000000 1.0
C      1  0.4483040000000  0.4036550000000  0.5502700000000 1.0
C      1  0.4994920000000  0.6036530000000  0.5636550000000 1.0
C      1  0.3978060000000  0.5039680000000  0.4120210000000 1.0
C      1  0.5855610000000  0.5612430000000  0.5899410000000 1.0
C      1  0.5423500000000  0.5186580000000  0.6269970000000 1.0
C      1  0.4354910000000  0.4690610000000  0.5073300000000 1.0
C      1  0.5880220000000  0.5325660000000  0.5933610000000 1.0
C      1  0.5230990000000  0.4036870000000  0.4443040000000 1.0
C      1  0.4296650000000  0.5305300000000  0.5739080000000 1.0
C      1  0.4722290000000  0.5955780000000  0.5653640000000 1.0
C      1  0.5035730000000  0.4986730000000  0.5698530000000 1.0
C      1  0.4986230000000  0.5636770000000  0.4704600000000 1.0
C      1  0.4511160000000  0.4568540000000  0.4619060000000 1.0
C      1  0.5344290000000  0.5446890000000  0.4438490000000 1.0
C      1  0.4026670000000  0.6497620000000  0.5101120000000 1.0
C      1  0.5080410000000  0.5550840000000  0.4456520000000 1.0
C      1  0.4529930000000  0.4825000000000  0.6079790000000 1.0
C      1  0.5355510000000  0.5194480000000  0.4308660000000 1.0
C      1  0.5099670000000  0.4495760000000  0.3563740000000 1.0
C      1  0.5315340000000  0.4570980000000  0.5969820000000 1.0
C      1  0.5605050000000  0.6150390000000  0.5210180000000 1.0
C      1  0.3817290000000  0.5033430000000  0.4356470000000 1.0
C      1  0.4710070000000  0.5701640000000  0.5084320000000 1.0
C      1  0.4163510000000  0.4661260000000  0.5541380000000 1.0
C      1  0.5603020000000  0.5503270000000  0.4548550000000 1.0
C      1  0.5609900000000  0.4380110000000  0.4323470000000 1.0
C      1  0.5119520000000  0.6172380000000  0.5419650000000 1.0
C      1  0.4027770000000  0.4505890000000  0.5354790000000 1.0
C      1  0.3987520000000  0.5228320000000  0.5151840000000 1.0
C      1  0.4840290000000  0.4406520000000  0.4965380000000 1.0
C      1  0.4327990000000  0.5023670000000  0.5970450000000 1.0
C      1  0.5445670000000  0.5227430000000  0.5765030000000 1.0
C      1  0.5419120000000  0.4419550000000  0.4768090000000 1.0
C      1  0.4869710000000  0.4365380000000  0.5432060000000 1.0
C      1  0.5355450000000  0.6207180000000  0.5293270000000 1.0
C      1  0.5914590000000  0.4641260000000  0.6295190000000 1.0
C      1  0.4479470000000  0.4531040000000  0.6079250000000 1.0
C      1  0.4733670000000  0.5593150000000  0.4819190000000 1.0
C      1  0.5658140000000  0.4782740000000  0.3953950000000 1.0
C      1  0.5656030000000  0.5730800000000  0.5714920000000 1.0
C      1  0.4140760000000  0.5858010000000  0.4718300000000 1.0
C      1  0.5198830000000  0.5697250000000  0.5127140000000 1.0
C      1  0.5441760000000  0.5871740000000  0.5836850000000 1.0
C      1  0.5115830000000  0.6071700000000  0.4434310000000 1.0
C      1  0.6010550000000  0.4861610000000  0.5096630000000 1.0
C      1  0.5024130000000  0.5052510000000  0.3626530000000 1.0
C      1  0.6070050000000  0.4107790000000  0.5565860000000 1.0
C      1  0.5492950000000  0.5318120000000  0.5043120000000 1.0
C      1  0.5443110000000  0.4857000000000  0.3765390000000 1.0
C      1  0.5281840000000  0.5354830000000  0.5560990000000 1.0
C      1  0.4462490000000  0.5752590000000  0.5205420000000 1.0
C      1  0.4611770000000  0.3581630000000  0.5686550000000 1.0
C      1  0.5184310000000  0.5945390000000  0.5826190000000 1.0
C      1  0.4957680000000  0.3771350000000  0.4758170000000 1.0
C      1  0.4466490000000  0.4269710000000  0.5951720000000 1.0
C      1  0.4181480000000  0.4470860000000  0.5124000000000 1.0
C      1  0.4071800000000  0.6248180000000  0.5040660000000 1.0
C      1  0.4703610000000  0.4389270000000  0.4712760000000 1.0
C      1  0.6128890000000  0.4909550000000  0.5842310000000 1.0
C      1  0.4937460000000  0.5626430000000  0.5247010000000 1.0
C      1  0.5169290000000  0.5063130000000  0.4717620000000 1.0
C      1  0.5997250000000  0.4723690000000  0.5354020000000 1.0
C      1  0.4542490000000  0.3991760000000  0.5975420000000 1.0
C      1  0.4583980000000  0.5359430000000  0.4762290000000 1.0
C      1  0.6017870000000  0.4402680000000  0.6238060000000 1.0
C      1  0.5001700000000  0.4207550000000  0.4406790000000 1.0
C      1  0.4495870000000  0.3963190000000  0.4950680000000 1.0
C      1  0.4531950000000  0.5184240000000  0.3733290000000 1.0
C      1  0.4330570000000  0.4553040000000  0.4148480000000 1.0
C      1  0.5294900000000  0.4722780000000  0.6213370000000 1.0
C      1  0.5034650000000  0.4605460000000  0.5012370000000 1.0
C      1  0.4228080000000  0.5738430000000  0.4260520000000 1.0
C      1  0.3905890000000  0.5019920000000  0.4866640000000 1.0
C      1  0.4566440000000  0.6022710000000  0.4477270000000 1.0
C      1  0.5510790000000  0.4916500000000  0.6269300000000 1.0
C      1  0.4080310000000  0.5158760000000  0.5492710000000 1.0
C      1  0.5348870000000  0.4944700000000  0.5731630000000 1.0
C      1  0.5331130000000  0.6307910000000  0.4074470000000 1.0
C      1  0.5295140000000  0.5405310000000  0.3779400000000 1.0
C      1  0.5705940000000  0.5190430000000  0.4899540000000 1.0
C      1  0.4126120000000  0.5985550000000  0.4977220000000 1.0
C      1  0.5386350000000  0.5324300000000  0.6040670000000 1.0
C      1  0.4895140000000  0.4989450000000  0.4776480000000 1.0
C      1  0.5776810000000  0.5003980000000  0.4092830000000 1.0
C      1  0.5233800000000  0.6024540000000  0.4694640000000 1.0
C      1  0.5028600000000  0.5519160000000  0.3762340000000 1.0
END
