TITL C-599891-72-653 47.4694786631705 125000 -733.960391474584 0 0 123 (C1) n - 1
REM
REM in /home/nfs/bkarasulu/CARBON/AIRSS/Generating-Clusters/TERSOFF/Only-C1/FIRE-HFTN
REM
REM
REM
REM
REM
REM ./C.cell (11c1c37f851c82e70ff6c80c92926a4b)
REM AIRSS Version 0.9.1 bugfix July 2018 build 013d7b7c2542+ Fri, 06 Jul 2018 19:26:36 +0100
REM compiler GCC version 9.2.1 20190827 (Red Hat 9.2.1-1)
REM options -cpp -mtune=generic -march=x86-64 -g -O0 -fpre-include=/usr/include/finclude/math-vector-fortran.h
REM seed -874506373 -1716564103 1673106119 722612081 -1410667250 -1378199213 1260553462 -845440913 -433951765 922944669 1950227507 -512099072 -1985782675 1492334010 923156749 1898847582 -180362918 -388526069 254471921 -548732235 -234118416 519524269 648391134 -962443993 488557124 -1509020665 164608554 1541991621 567414156 1586533369 -564406949 -709454052 84217509
REM
CELL 1.54180   50.00000   50.00000   50.00000   90.00000   90.00000   90.00000
LATT -1
SFAC C  
C      1  0.4207540000000  0.4852460000000  0.4657250000000 1.0
C      1  0.5202400000000  0.5231170000000  0.5838880000000 1.0
C      1  0.4380500000000  0.4093600000000  0.5847980000000 1.0
C      1  0.5177720000000  0.3932070000000  0.4716600000000 1.0
C      1  0.5468790000000  0.5267150000000  0.5422970000000 1.0
C      1  0.4638230000000  0.5615490000000  0.4190930000000 1.0
C      1  0.5530720000000  0.3956090000000  0.5017160000000 1.0
C      1  0.5258670000000  0.3867260000000  0.5002010000000 1.0
C      1  0.4466760000000  0.5076130000000  0.4283610000000 1.0
C      1  0.5230130000000  0.4906630000000  0.4513460000000 1.0
C      1  0.4977000000000  0.4434770000000  0.5210740000000 1.0
C      1  0.4200180000000  0.5893840000000  0.4904950000000 1.0
C      1  0.4516590000000  0.5574740000000  0.5073780000000 1.0
C      1  0.4714030000000  0.5283350000000  0.5712970000000 1.0
C      1  0.4199090000000  0.4422600000000  0.4960390000000 1.0
C      1  0.4230150000000  0.5037480000000  0.4444020000000 1.0
C      1  0.4286410000000  0.5551680000000  0.5560030000000 1.0
C      1  0.4142570000000  0.5680480000000  0.5354590000000 1.0
C      1  0.5056560000000  0.4725740000000  0.6101710000000 1.0
C      1  0.5158370000000  0.4441370000000  0.4675570000000 1.0
C      1  0.4857730000000  0.4901910000000  0.5995330000000 1.0
C      1  0.5487510000000  0.5795440000000  0.5528920000000 1.0
C      1  0.4854920000000  0.4116120000000  0.5731310000000 1.0
C      1  0.4857300000000  0.5247280000000  0.5185780000000 1.0
C      1  0.6302980000000  0.4833000000000  0.5367360000000 1.0
C      1  0.5329930000000  0.4499670000000  0.4250260000000 1.0
C      1  0.5545640000000  0.4904000000000  0.4120720000000 1.0
C      1  0.5583490000000  0.4155850000000  0.4814020000000 1.0
C      1  0.5427940000000  0.5925260000000  0.4896670000000 1.0
C      1  0.4172480000000  0.4234290000000  0.5937150000000 1.0
C      1  0.5099960000000  0.5695100000000  0.4367840000000 1.0
C      1  0.4235990000000  0.6054100000000  0.4677290000000 1.0
C      1  0.5409600000000  0.6049080000000  0.5542770000000 1.0
C      1  0.4489520000000  0.5421040000000  0.5672670000000 1.0
C      1  0.4307050000000  0.4239520000000  0.4421330000000 1.0
C      1  0.4276090000000  0.5714290000000  0.5104880000000 1.0
C      1  0.4574410000000  0.5343220000000  0.4257140000000 1.0
C      1  0.4700480000000  0.4911290000000  0.3892410000000 1.0
C      1  0.5360590000000  0.4859060000000  0.4770480000000 1.0
C      1  0.4365270000000  0.5837970000000  0.3779850000000 1.0
C      1  0.5804000000000  0.4845020000000  0.4078550000000 1.0
C      1  0.5309830000000  0.4851390000000  0.5611690000000 1.0
C      1  0.5827750000000  0.5484310000000  0.4284520000000 1.0
C      1  0.4326520000000  0.4430550000000  0.4229170000000 1.0
C      1  0.5288490000000  0.4316130000000  0.4455720000000 1.0
C      1  0.4778920000000  0.4430680000000  0.4342560000000 1.0
C      1  0.5140610000000  0.6425320000000  0.5308210000000 1.0
C      1  0.6010660000000  0.4734200000000  0.4208040000000 1.0
C      1  0.5299890000000  0.4371340000000  0.5698130000000 1.0
C      1  0.5062970000000  0.5073730000000  0.5262210000000 1.0
C      1  0.4383420000000  0.4813100000000  0.5384110000000 1.0
C      1  0.4402880000000  0.5071880000000  0.6107850000000 1.0
C      1  0.4754970000000  0.4567880000000  0.4806950000000 1.0
C      1  0.6268420000000  0.4496680000000  0.4545620000000 1.0
C      1  0.5286580000000  0.6273540000000  0.5470860000000 1.0
C      1  0.4180080000000  0.4806160000000  0.5555030000000 1.0
C      1  0.4959740000000  0.4984110000000  0.4556440000000 1.0
C      1  0.4597410000000  0.4881020000000  0.6120630000000 1.0
C      1  0.4912330000000  0.5241580000000  0.4639000000000 1.0
C      1  0.5348960000000  0.4583700000000  0.4835130000000 1.0
C      1  0.5039560000000  0.3961560000000  0.5164700000000 1.0
C      1  0.4541440000000  0.4059390000000  0.5102100000000 1.0
C      1  0.5011240000000  0.4522370000000  0.6276520000000 1.0
C      1  0.5881450000000  0.5138890000000  0.4636820000000 1.0
C      1  0.4561950000000  0.4653340000000  0.6289370000000 1.0
C      1  0.4475720000000  0.4211000000000  0.4645650000000 1.0
C      1  0.4508610000000  0.4049920000000  0.5382800000000 1.0
C      1  0.4777820000000  0.4800910000000  0.4658820000000 1.0
C      1  0.5442900000000  0.4605630000000  0.5627310000000 1.0
C      1  0.4037490000000  0.4460960000000  0.5897120000000 1.0
C      1  0.3886350000000  0.5766680000000  0.5393390000000 1.0
C      1  0.6044560000000  0.4900850000000  0.5301950000000 1.0
C      1  0.4795420000000  0.3972610000000  0.5001530000000 1.0
C      1  0.4760030000000  0.6004680000000  0.4510640000000 1.0
C      1  0.4911550000000  0.5709580000000  0.5303660000000 1.0
C      1  0.5007900000000  0.5453280000000  0.4761920000000 1.0
C      1  0.5644150000000  0.5242720000000  0.4768520000000 1.0
C      1  0.5998710000000  0.4885880000000  0.4657570000000 1.0
C      1  0.5457090000000  0.5082970000000  0.4922040000000 1.0
C      1  0.5850220000000  0.4689730000000  0.5294690000000 1.0
C      1  0.5512630000000  0.5541980000000  0.5453070000000 1.0
C      1  0.4009270000000  0.5189870000000  0.4383110000000 1.0
C      1  0.4042970000000  0.4680500000000  0.5745640000000 1.0
C      1  0.5829740000000  0.5646100000000  0.5070160000000 1.0
C      1  0.5114030000000  0.5680120000000  0.4654610000000 1.0
C      1  0.5784140000000  0.4550800000000  0.5058830000000 1.0
C      1  0.4791380000000  0.4306090000000  0.4626700000000 1.0
C      1  0.4937230000000  0.6346670000000  0.4847220000000 1.0
C      1  0.4155760000000  0.4658860000000  0.4835960000000 1.0
C      1  0.5623240000000  0.5716460000000  0.4888360000000 1.0
C      1  0.5704390000000  0.4609290000000  0.5522930000000 1.0
C      1  0.5069540000000  0.4194720000000  0.5324140000000 1.0
C      1  0.4567800000000  0.4579350000000  0.4213620000000 1.0
C      1  0.4578130000000  0.4854330000000  0.4132450000000 1.0
C      1  0.5092620000000  0.4202830000000  0.5605930000000 1.0
C      1  0.4377770000000  0.4207170000000  0.4915570000000 1.0
C      1  0.5345150000000  0.4785260000000  0.4277300000000 1.0
C      1  0.5394400000000  0.4086110000000  0.4587280000000 1.0
C      1  0.4770810000000  0.4576730000000  0.5087960000000 1.0
C      1  0.5990290000000  0.5173740000000  0.5245410000000 1.0
C      1  0.4586100000000  0.4722790000000  0.5238480000000 1.0
C      1  0.4960650000000  0.6109750000000  0.4700830000000 1.0
C      1  0.4763720000000  0.5511200000000  0.5185960000000 1.0
C      1  0.5974040000000  0.5298930000000  0.4417890000000 1.0
C      1  0.4027520000000  0.6197810000000  0.4574300000000 1.0
C      1  0.5341430000000  0.5145840000000  0.5185610000000 1.0
C      1  0.4758420000000  0.4483170000000  0.6369350000000 1.0
C      1  0.5583350000000  0.5515340000000  0.4687070000000 1.0
C      1  0.6099710000000  0.4697760000000  0.4473020000000 1.0
C      1  0.4903900000000  0.4036850000000  0.4733020000000 1.0
C      1  0.5417220000000  0.5121070000000  0.5667680000000 1.0
C      1  0.5351820000000  0.5643870000000  0.4257350000000 1.0
C      1  0.5038930000000  0.4931130000000  0.5516590000000 1.0
C      1  0.5955680000000  0.5431920000000  0.5177220000000 1.0
C      1  0.4583680000000  0.4073890000000  0.5656180000000 1.0
C      1  0.5585110000000  0.5570400000000  0.4400630000000 1.0
C      1  0.5008880000000  0.6457740000000  0.5078950000000 1.0
C      1  0.4931840000000  0.5090830000000  0.5771410000000 1.0
C      1  0.4500030000000  0.5727610000000  0.3973680000000 1.0
C      1  0.4830810000000  0.5786260000000  0.4323800000000 1.0
C      1  0.5586120000000  0.4431950000000  0.4900690000000 1.0
C      1  0.5170610000000  0.5926150000000  0.4775930000000 1.0
C      1  0.4489280000000  0.6063900000000  0.4556770000000 1.0
END
