TITL C-599894-471-608 0.229534848399328 125000 -809.88721865652 0 0 133 (C1) n - 1
REM
REM in /home/nfs/bkarasulu/CARBON/AIRSS/Generating-Clusters/TERSOFF/Only-C1/FIRE-HFTN
REM
REM
REM
REM
REM
REM ./C.cell (11c1c37f851c82e70ff6c80c92926a4b)
REM AIRSS Version 0.9.1 bugfix July 2018 build 013d7b7c2542+ Fri, 06 Jul 2018 19:26:36 +0100
REM compiler GCC version 9.2.1 20190827 (Red Hat 9.2.1-1)
REM options -cpp -mtune=generic -march=x86-64 -g -O0 -fpre-include=/usr/include/finclude/math-vector-fortran.h
REM seed 1420105872 64563634 2098819834 345674842 1987465952 1734646828 -245947199 1453610218 1331443184 1511011023 346452645 307516220 307812719 -1000221955 1470399957 -1303973631 -1756484766 -228388995 1886416473 -589937804 153368064 1586224233 1433842703 -248950109 -809098477 -1985033899 433879076 -547233581 588474316 -479206200 -1522378613 1703967258 231348416
REM
CELL 1.54180   50.00000   50.00000   50.00000   90.00000   90.00000   90.00000
LATT -1
SFAC C  
C      1  0.5805030000000  0.4943790000000  0.5532150000000 1.0
C      1  0.5583750000000  0.4189190000000  0.4115920000000 1.0
C      1  0.4587780000000  0.4643870000000  0.5848150000000 1.0
C      1  0.4733350000000  0.5585770000000  0.5924950000000 1.0
C      1  0.5650830000000  0.4359910000000  0.5504140000000 1.0
C      1  0.5561060000000  0.4023880000000  0.4341680000000 1.0
C      1  0.4989790000000  0.6092560000000  0.4955600000000 1.0
C      1  0.5164640000000  0.3840590000000  0.4951960000000 1.0
C      1  0.5551990000000  0.4544540000000  0.5692350000000 1.0
C      1  0.4592180000000  0.5096060000000  0.5665370000000 1.0
C      1  0.6237100000000  0.5747720000000  0.4933940000000 1.0
C      1  0.4698310000000  0.4305630000000  0.4842870000000 1.0
C      1  0.5970850000000  0.5153320000000  0.5614780000000 1.0
C      1  0.4252630000000  0.5818520000000  0.5087170000000 1.0
C      1  0.6113460000000  0.5373090000000  0.5571650000000 1.0
C      1  0.5810180000000  0.4871800000000  0.5259390000000 1.0
C      1  0.5734470000000  0.4739410000000  0.5022290000000 1.0
C      1  0.5090080000000  0.3985020000000  0.4395390000000 1.0
C      1  0.4776070000000  0.6092470000000  0.4413220000000 1.0
C      1  0.4980020000000  0.5666060000000  0.5812950000000 1.0
C      1  0.4968630000000  0.5930660000000  0.5714260000000 1.0
C      1  0.4157350000000  0.5320250000000  0.4781710000000 1.0
C      1  0.5039930000000  0.4565830000000  0.5698830000000 1.0
C      1  0.4976690000000  0.4550550000000  0.4046170000000 1.0
C      1  0.3987690000000  0.5074670000000  0.4157020000000 1.0
C      1  0.5774840000000  0.4395890000000  0.4072420000000 1.0
C      1  0.5177100000000  0.3984640000000  0.5201970000000 1.0
C      1  0.4156330000000  0.5278940000000  0.5593060000000 1.0
C      1  0.4565610000000  0.4549140000000  0.5302810000000 1.0
C      1  0.4689520000000  0.4916940000000  0.5866730000000 1.0
C      1  0.4935270000000  0.4981720000000  0.5992720000000 1.0
C      1  0.5205080000000  0.5394710000000  0.5433370000000 1.0
C      1  0.4906330000000  0.4118310000000  0.4255340000000 1.0
C      1  0.5178700000000  0.4959630000000  0.4552130000000 1.0
C      1  0.4806750000000  0.4324010000000  0.4090620000000 1.0
C      1  0.5440220000000  0.4694070000000  0.3898260000000 1.0
C      1  0.5241190000000  0.6018790000000  0.4523770000000 1.0
C      1  0.4941120000000  0.4788340000000  0.4476550000000 1.0
C      1  0.4558270000000  0.4309770000000  0.3978100000000 1.0
C      1  0.4769800000000  0.5465450000000  0.5259100000000 1.0
C      1  0.5574880000000  0.4305450000000  0.5236800000000 1.0
C      1  0.5378990000000  0.3820600000000  0.4764110000000 1.0
C      1  0.5362910000000  0.5341080000000  0.4265690000000 1.0
C      1  0.4063060000000  0.5054850000000  0.5180010000000 1.0
C      1  0.5166660000000  0.5562150000000  0.4990860000000 1.0
C      1  0.4832530000000  0.4767710000000  0.4902000000000 1.0
C      1  0.4385380000000  0.4416140000000  0.5474940000000 1.0
C      1  0.4108080000000  0.6129210000000  0.4718870000000 1.0
C      1  0.6259480000000  0.5696140000000  0.5193230000000 1.0
C      1  0.4633290000000  0.5330530000000  0.4836800000000 1.0
C      1  0.4600240000000  0.6030090000000  0.5371890000000 1.0
C      1  0.5202550000000  0.5010900000000  0.5983450000000 1.0
C      1  0.5203370000000  0.4718390000000  0.5245740000000 1.0
C      1  0.4640680000000  0.5031160000000  0.5387250000000 1.0
C      1  0.5950040000000  0.4811710000000  0.4445930000000 1.0
C      1  0.4069060000000  0.5964890000000  0.4927320000000 1.0
C      1  0.4721130000000  0.3831510000000  0.5331710000000 1.0
C      1  0.5378850000000  0.6124370000000  0.5221800000000 1.0
C      1  0.5239000000000  0.6010410000000  0.4803540000000 1.0
C      1  0.5448170000000  0.4974630000000  0.5879440000000 1.0
C      1  0.5062060000000  0.5535550000000  0.4736440000000 1.0
C      1  0.4702960000000  0.5207880000000  0.4128290000000 1.0
C      1  0.5227010000000  0.4987110000000  0.5086330000000 1.0
C      1  0.5699100000000  0.4635960000000  0.3964780000000 1.0
C      1  0.5621760000000  0.4822000000000  0.5712750000000 1.0
C      1  0.5997030000000  0.5492530000000  0.4602790000000 1.0
C      1  0.4979930000000  0.3922590000000  0.5407010000000 1.0
C      1  0.5035010000000  0.6055580000000  0.4355560000000 1.0
C      1  0.5839650000000  0.3579340000000  0.4907040000000 1.0
C      1  0.4928530000000  0.5013330000000  0.5020000000000 1.0
C      1  0.5591630000000  0.5706830000000  0.5021370000000 1.0
C      1  0.4337710000000  0.4597710000000  0.5694030000000 1.0
C      1  0.5035320000000  0.5545820000000  0.5246530000000 1.0
C      1  0.3942740000000  0.4596410000000  0.5062380000000 1.0
C      1  0.4448690000000  0.5200800000000  0.4216990000000 1.0
C      1  0.5464200000000  0.5962510000000  0.4995140000000 1.0
C      1  0.4088100000000  0.5034060000000  0.5467570000000 1.0
C      1  0.4925310000000  0.4786650000000  0.4188790000000 1.0
C      1  0.4398800000000  0.5456440000000  0.4759750000000 1.0
C      1  0.4708980000000  0.5203770000000  0.5124510000000 1.0
C      1  0.4341330000000  0.6192570000000  0.4603360000000 1.0
C      1  0.5344190000000  0.4237570000000  0.3965390000000 1.0
C      1  0.4133820000000  0.5551950000000  0.5489320000000 1.0
C      1  0.4952230000000  0.5074570000000  0.4139140000000 1.0
C      1  0.4470640000000  0.3921980000000  0.5367660000000 1.0
C      1  0.4848300000000  0.5392930000000  0.4669120000000 1.0
C      1  0.4734670000000  0.4029210000000  0.4822390000000 1.0
C      1  0.4711690000000  0.4787730000000  0.4646770000000 1.0
C      1  0.4706930000000  0.6041390000000  0.4900140000000 1.0
C      1  0.4143770000000  0.5572370000000  0.5206020000000 1.0
C      1  0.5615140000000  0.3689540000000  0.4833820000000 1.0
C      1  0.5111580000000  0.6197150000000  0.5199320000000 1.0
C      1  0.6263750000000  0.6090860000000  0.4297710000000 1.0
C      1  0.4519910000000  0.5948620000000  0.5112300000000 1.0
C      1  0.4607840000000  0.6111710000000  0.4637140000000 1.0
C      1  0.4080980000000  0.4825730000000  0.5002430000000 1.0
C      1  0.5710550000000  0.4458320000000  0.5040370000000 1.0
C      1  0.4144170000000  0.4799190000000  0.5624380000000 1.0
C      1  0.6215980000000  0.5565680000000  0.5420310000000 1.0
C      1  0.4737720000000  0.4761790000000  0.5367710000000 1.0
C      1  0.4158930000000  0.5091460000000  0.4608390000000 1.0
C      1  0.4450920000000  0.4406760000000  0.4728020000000 1.0
C      1  0.5346500000000  0.3935480000000  0.4503450000000 1.0
C      1  0.4831520000000  0.4171960000000  0.5835020000000 1.0
C      1  0.4473220000000  0.5546330000000  0.5831640000000 1.0
C      1  0.5812780000000  0.4984910000000  0.4607040000000 1.0
C      1  0.5293450000000  0.4489190000000  0.5787550000000 1.0
C      1  0.5366650000000  0.5237660000000  0.5232040000000 1.0
C      1  0.5233750000000  0.4500570000000  0.3935340000000 1.0
C      1  0.5165140000000  0.5481150000000  0.5698500000000 1.0
C      1  0.4219950000000  0.4849330000000  0.4748120000000 1.0
C      1  0.4198150000000  0.5122470000000  0.4326190000000 1.0
C      1  0.5301170000000  0.4241110000000  0.5180980000000 1.0
C      1  0.4903310000000  0.3823930000000  0.4848580000000 1.0
C      1  0.4806230000000  0.4452450000000  0.5823260000000 1.0
C      1  0.4339280000000  0.4143740000000  0.5441200000000 1.0
C      1  0.4075930000000  0.5322230000000  0.5057490000000 1.0
C      1  0.4285490000000  0.5710340000000  0.5681880000000 1.0
C      1  0.5346990000000  0.4945370000000  0.4794570000000 1.0
C      1  0.5179400000000  0.5147640000000  0.4319420000000 1.0
C      1  0.4240950000000  0.4241670000000  0.4669350000000 1.0
C      1  0.5440480000000  0.5464710000000  0.5044750000000 1.0
C      1  0.5145800000000  0.4466270000000  0.5099040000000 1.0
C      1  0.4899900000000  0.4488620000000  0.4952430000000 1.0
C      1  0.4782050000000  0.6053740000000  0.5565730000000 1.0
C      1  0.5873830000000  0.5257820000000  0.4599530000000 1.0
C      1  0.5005970000000  0.4712410000000  0.5458950000000 1.0
C      1  0.6209730000000  0.5910190000000  0.4477610000000 1.0
C      1  0.5629260000000  0.4884540000000  0.4798660000000 1.0
C      1  0.4444730000000  0.4686920000000  0.4667540000000 1.0
C      1  0.6148800000000  0.5717740000000  0.4670220000000 1.0
C      1  0.4980660000000  0.4009200000000  0.5676770000000 1.0
C      1  0.4401030000000  0.5280890000000  0.5745630000000 1.0
END
