TITL C-599896-8500-615 32.6855360280195 125000 -1202.77311322285 0 0 198 (C1) n - 1
REM
REM in /home/nfs/bkarasulu/CARBON/AIRSS/Generating-Clusters/TERSOFF/Only-C1/FIRE-HFTN
REM
REM
REM
REM
REM
REM ./C.cell (11c1c37f851c82e70ff6c80c92926a4b)
REM AIRSS Version 0.9.1 bugfix July 2018 build 013d7b7c2542+ Fri, 06 Jul 2018 19:26:36 +0100
REM compiler GCC version 9.2.1 20190827 (Red Hat 9.2.1-1)
REM options -cpp -mtune=generic -march=x86-64 -g -O0 -fpre-include=/usr/include/finclude/math-vector-fortran.h
REM seed 894516963 -1239061826 -1867413585 -1617303692 2091565341 1399800797 -354655260 164171858 422173034 1198589810 1650439289 -906981460 1789477512 -1129554334 -1452504685 1041456369 1022705162 1171589468 1302379355 900611482 1344068867 1792632042 -1497816223 -1985365573 -16618750 -1304300197 369258160 727977794 877256158 -1989408320 514781901 787836247 -2035288959
REM
CELL 1.54180   50.00000   50.00000   50.00000   90.00000   90.00000   90.00000
LATT -1
SFAC C  
C      1  0.6163030000000  0.4846720000000  0.4879290000000 1.0
C      1  0.4358350000000  0.5368700000000  0.6227240000000 1.0
C      1  0.4860410000000  0.4032610000000  0.5796860000000 1.0
C      1  0.4077020000000  0.3831740000000  0.5352840000000 1.0
C      1  0.5740450000000  0.4478510000000  0.5108640000000 1.0
C      1  0.5234580000000  0.4517420000000  0.5869450000000 1.0
C      1  0.4381640000000  0.4680380000000  0.4844740000000 1.0
C      1  0.5199860000000  0.5407290000000  0.3813590000000 1.0
C      1  0.4719070000000  0.3836610000000  0.5004750000000 1.0
C      1  0.4971660000000  0.6228640000000  0.4614960000000 1.0
C      1  0.4765720000000  0.4090250000000  0.3648930000000 1.0
C      1  0.4534050000000  0.3785820000000  0.3288460000000 1.0
C      1  0.4601680000000  0.5563970000000  0.5870100000000 1.0
C      1  0.5608130000000  0.5721040000000  0.4993520000000 1.0
C      1  0.4370590000000  0.4423080000000  0.4401030000000 1.0
C      1  0.4183460000000  0.5344530000000  0.5626480000000 1.0
C      1  0.5020980000000  0.4511690000000  0.6060270000000 1.0
C      1  0.4639930000000  0.5562640000000  0.5559620000000 1.0
C      1  0.5908660000000  0.4360770000000  0.4645620000000 1.0
C      1  0.6012100000000  0.5145850000000  0.5491560000000 1.0
C      1  0.4834280000000  0.5350730000000  0.4410990000000 1.0
C      1  0.5131280000000  0.4946040000000  0.4551120000000 1.0
C      1  0.6387100000000  0.5256760000000  0.4819790000000 1.0
C      1  0.4885020000000  0.5098400000000  0.5010780000000 1.0
C      1  0.5678040000000  0.5710530000000  0.4306350000000 1.0
C      1  0.5069470000000  0.6154300000000  0.5807180000000 1.0
C      1  0.5647500000000  0.6056690000000  0.4621700000000 1.0
C      1  0.5990420000000  0.6093870000000  0.4261830000000 1.0
C      1  0.5092910000000  0.4980730000000  0.4831100000000 1.0
C      1  0.5638850000000  0.5542750000000  0.4073030000000 1.0
C      1  0.5314180000000  0.4650200000000  0.5114270000000 1.0
C      1  0.5440170000000  0.6130500000000  0.5489240000000 1.0
C      1  0.5044100000000  0.3969820000000  0.4602130000000 1.0
C      1  0.5758920000000  0.4458490000000  0.5823000000000 1.0
C      1  0.5143680000000  0.6308040000000  0.4850140000000 1.0
C      1  0.5520250000000  0.4593820000000  0.5929040000000 1.0
C      1  0.4190180000000  0.5909260000000  0.5239260000000 1.0
C      1  0.5276020000000  0.3574400000000  0.5206170000000 1.0
C      1  0.5172960000000  0.5859570000000  0.4842930000000 1.0
C      1  0.5593050000000  0.5983990000000  0.5681070000000 1.0
C      1  0.5481920000000  0.5507560000000  0.5858380000000 1.0
C      1  0.5584340000000  0.5753450000000  0.5819740000000 1.0
C      1  0.4071750000000  0.5069360000000  0.4618810000000 1.0
C      1  0.4539470000000  0.4880320000000  0.4730100000000 1.0
C      1  0.4582840000000  0.4925960000000  0.6166800000000 1.0
C      1  0.4404810000000  0.5293160000000  0.4900960000000 1.0
C      1  0.5565510000000  0.4883320000000  0.5964230000000 1.0
C      1  0.5464720000000  0.5651040000000  0.4498570000000 1.0
C      1  0.5295480000000  0.5416670000000  0.5247170000000 1.0
C      1  0.5993830000000  0.4623510000000  0.5722060000000 1.0
C      1  0.5904230000000  0.4615160000000  0.4499590000000 1.0
C      1  0.5832360000000  0.4989060000000  0.5959340000000 1.0
C      1  0.4043010000000  0.4816470000000  0.4464690000000 1.0
C      1  0.5690360000000  0.3907040000000  0.4789370000000 1.0
C      1  0.4913130000000  0.4528750000000  0.3785400000000 1.0
C      1  0.4224200000000  0.4657950000000  0.4307410000000 1.0
C      1  0.5419900000000  0.6296130000000  0.4975690000000 1.0
C      1  0.4823390000000  0.5586320000000  0.4993770000000 1.0
C      1  0.4689390000000  0.5141230000000  0.4337890000000 1.0
C      1  0.5038470000000  0.3980170000000  0.5603550000000 1.0
C      1  0.5055670000000  0.5807130000000  0.6183730000000 1.0
C      1  0.6045790000000  0.4853410000000  0.4602240000000 1.0
C      1  0.6141810000000  0.5257900000000  0.5245770000000 1.0
C      1  0.4255740000000  0.4613690000000  0.5923350000000 1.0
C      1  0.4297400000000  0.5890570000000  0.4787480000000 1.0
C      1  0.5117920000000  0.4803350000000  0.4100060000000 1.0
C      1  0.5431810000000  0.4301220000000  0.4765630000000 1.0
C      1  0.4958950000000  0.4287290000000  0.4909000000000 1.0
C      1  0.3655780000000  0.4503090000000  0.4375460000000 1.0
C      1  0.3836950000000  0.5627490000000  0.4685820000000 1.0
C      1  0.5215430000000  0.5773430000000  0.4121280000000 1.0
C      1  0.4344170000000  0.5397700000000  0.5154780000000 1.0
C      1  0.6220820000000  0.4491300000000  0.5637910000000 1.0
C      1  0.5156490000000  0.6112700000000  0.5543880000000 1.0
C      1  0.4072210000000  0.4861230000000  0.5203530000000 1.0
C      1  0.3830650000000  0.5550280000000  0.5230540000000 1.0
C      1  0.5787490000000  0.5963070000000  0.4386130000000 1.0
C      1  0.4961190000000  0.5360890000000  0.5170260000000 1.0
C      1  0.4334460000000  0.5561540000000  0.6010870000000 1.0
C      1  0.4573500000000  0.4933320000000  0.4456940000000 1.0
C      1  0.5657760000000  0.3917900000000  0.5771210000000 1.0
C      1  0.4253890000000  0.4734550000000  0.4037920000000 1.0
C      1  0.4638130000000  0.4413970000000  0.5580160000000 1.0
C      1  0.5976860000000  0.5187520000000  0.4217790000000 1.0
C      1  0.4194800000000  0.4334170000000  0.5800990000000 1.0
C      1  0.4388360000000  0.4150720000000  0.5918030000000 1.0
C      1  0.4252890000000  0.4171970000000  0.4358130000000 1.0
C      1  0.5036120000000  0.4755110000000  0.4365290000000 1.0
C      1  0.6244630000000  0.5099510000000  0.5014570000000 1.0
C      1  0.5446190000000  0.4077180000000  0.5345400000000 1.0
C      1  0.6324300000000  0.5245510000000  0.4555890000000 1.0
C      1  0.4973050000000  0.3789830000000  0.4836730000000 1.0
C      1  0.5796930000000  0.5490410000000  0.4973090000000 1.0
C      1  0.4016540000000  0.5789710000000  0.4831670000000 1.0
C      1  0.5613720000000  0.6298830000000  0.4759520000000 1.0
C      1  0.4220760000000  0.4274010000000  0.5500400000000 1.0
C      1  0.3646550000000  0.4880230000000  0.4703010000000 1.0
C      1  0.5557400000000  0.5031930000000  0.4906670000000 1.0
C      1  0.4771420000000  0.5404810000000  0.6058890000000 1.0
C      1  0.3895000000000  0.5070150000000  0.5101150000000 1.0
C      1  0.4597990000000  0.5206860000000  0.6192690000000 1.0
C      1  0.5726600000000  0.5165990000000  0.5411590000000 1.0
C      1  0.5224940000000  0.3670490000000  0.4941240000000 1.0
C      1  0.4977930000000  0.4796540000000  0.3858380000000 1.0
C      1  0.5539260000000  0.3706080000000  0.5648220000000 1.0
C      1  0.4463290000000  0.5709680000000  0.4365320000000 1.0
C      1  0.4429490000000  0.4963930000000  0.5505610000000 1.0
C      1  0.4521170000000  0.4664230000000  0.6064400000000 1.0
C      1  0.6232930000000  0.4578980000000  0.4950410000000 1.0
C      1  0.5373840000000  0.5665810000000  0.5176150000000 1.0
C      1  0.4278430000000  0.4023830000000  0.5342250000000 1.0
C      1  0.5816020000000  0.3905830000000  0.5044330000000 1.0
C      1  0.5156260000000  0.6047540000000  0.4149010000000 1.0
C      1  0.5096680000000  0.6212230000000  0.4356050000000 1.0
C      1  0.4308520000000  0.5486380000000  0.4456950000000 1.0
C      1  0.5473240000000  0.5827780000000  0.4739080000000 1.0
C      1  0.3547560000000  0.4304020000000  0.4246720000000 1.0
C      1  0.5819580000000  0.4687870000000  0.5255640000000 1.0
C      1  0.4881130000000  0.4251740000000  0.3847290000000 1.0
C      1  0.3964200000000  0.5774490000000  0.5124230000000 1.0
C      1  0.3821600000000  0.5103040000000  0.4805840000000 1.0
C      1  0.4977240000000  0.5551090000000  0.6181660000000 1.0
C      1  0.5673460000000  0.4891380000000  0.5374380000000 1.0
C      1  0.4927550000000  0.5317020000000  0.3833110000000 1.0
C      1  0.5403460000000  0.3584080000000  0.5446210000000 1.0
C      1  0.5321350000000  0.4895480000000  0.4972010000000 1.0
C      1  0.4952450000000  0.4123390000000  0.4092660000000 1.0
C      1  0.4599830000000  0.5666700000000  0.4115740000000 1.0
C      1  0.5513590000000  0.5119190000000  0.4237040000000 1.0
C      1  0.5010810000000  0.4193420000000  0.5168270000000 1.0
C      1  0.5135480000000  0.4517210000000  0.5593600000000 1.0
C      1  0.3731350000000  0.5381420000000  0.4726730000000 1.0
C      1  0.5370350000000  0.5593460000000  0.3948750000000 1.0
C      1  0.3602580000000  0.5197000000000  0.5468300000000 1.0
C      1  0.4367470000000  0.5458030000000  0.5431020000000 1.0
C      1  0.5289630000000  0.4651370000000  0.5400890000000 1.0
C      1  0.5439130000000  0.4847320000000  0.5517650000000 1.0
C      1  0.4823310000000  0.4921610000000  0.5242120000000 1.0
C      1  0.4118520000000  0.5520340000000  0.5835710000000 1.0
C      1  0.4565550000000  0.5001680000000  0.3730090000000 1.0
C      1  0.5462390000000  0.3730930000000  0.4782880000000 1.0
C      1  0.6001210000000  0.4930340000000  0.5724750000000 1.0
C      1  0.4396820000000  0.4490710000000  0.5427380000000 1.0
C      1  0.4990240000000  0.5551920000000  0.4516260000000 1.0
C      1  0.4756860000000  0.5807710000000  0.5402480000000 1.0
C      1  0.5166130000000  0.4075530000000  0.5371410000000 1.0
C      1  0.5058980000000  0.6036140000000  0.6046540000000 1.0
C      1  0.4649330000000  0.3937030000000  0.3466810000000 1.0
C      1  0.4654760000000  0.5776940000000  0.5129560000000 1.0
C      1  0.5059260000000  0.5320820000000  0.5672570000000 1.0
C      1  0.5212400000000  0.5635630000000  0.4373490000000 1.0
C      1  0.4688690000000  0.5061780000000  0.5450610000000 1.0
C      1  0.5721990000000  0.5272210000000  0.4129870000000 1.0
C      1  0.5343080000000  0.5091920000000  0.4437800000000 1.0
C      1  0.4252680000000  0.5292970000000  0.4654120000000 1.0
C      1  0.4127190000000  0.4862960000000  0.5849150000000 1.0
C      1  0.4843780000000  0.4558600000000  0.4396850000000 1.0
C      1  0.4305180000000  0.4754820000000  0.5349830000000 1.0
C      1  0.4662110000000  0.4245730000000  0.5845570000000 1.0
C      1  0.5750270000000  0.5947050000000  0.5155660000000 1.0
C      1  0.5709160000000  0.5246820000000  0.4870900000000 1.0
C      1  0.5677120000000  0.4175640000000  0.4674700000000 1.0
C      1  0.3773180000000  0.4716770000000  0.4506070000000 1.0
C      1  0.4484630000000  0.5921760000000  0.4567380000000 1.0
C      1  0.4876940000000  0.4505620000000  0.5483560000000 1.0
C      1  0.5171790000000  0.5861620000000  0.5137370000000 1.0
C      1  0.4614640000000  0.5105530000000  0.4885160000000 1.0
C      1  0.5475620000000  0.5307800000000  0.5432210000000 1.0
C      1  0.5482330000000  0.4457840000000  0.4997250000000 1.0
C      1  0.4709450000000  0.4337570000000  0.4783760000000 1.0
C      1  0.4705120000000  0.6107990000000  0.4611150000000 1.0
C      1  0.3778100000000  0.5273460000000  0.5271730000000 1.0
C      1  0.4356690000000  0.4872970000000  0.3835350000000 1.0
C      1  0.5781170000000  0.4620130000000  0.4253780000000 1.0
C      1  0.4632560000000  0.4427440000000  0.4524630000000 1.0
C      1  0.5993250000000  0.5802210000000  0.5246460000000 1.0
C      1  0.4736920000000  0.5511060000000  0.3938250000000 1.0
C      1  0.4161380000000  0.3930230000000  0.4325190000000 1.0
C      1  0.6119060000000  0.5085540000000  0.4439890000000 1.0
C      1  0.5166230000000  0.4209570000000  0.4721130000000 1.0
C      1  0.4834440000000  0.5330950000000  0.5478220000000 1.0
C      1  0.5745480000000  0.4171780000000  0.5809300000000 1.0
C      1  0.4234230000000  0.5070000000000  0.5683630000000 1.0
C      1  0.5405660000000  0.4998800000000  0.5760370000000 1.0
C      1  0.4517020000000  0.3944910000000  0.5172360000000 1.0
C      1  0.4840660000000  0.5041480000000  0.3782720000000 1.0
C      1  0.6020490000000  0.5519450000000  0.5161680000000 1.0
C      1  0.4415130000000  0.5904770000000  0.5058120000000 1.0
C      1  0.6127750000000  0.4356250000000  0.4831310000000 1.0
C      1  0.4212250000000  0.4487220000000  0.4896110000000 1.0
C      1  0.5349360000000  0.5285660000000  0.5710090000000 1.0
C      1  0.4847810000000  0.4650680000000  0.5247200000000 1.0
C      1  0.5689880000000  0.4001120000000  0.5262410000000 1.0
C      1  0.5015170000000  0.5940900000000  0.5367970000000 1.0
C      1  0.5547500000000  0.6160810000000  0.5219630000000 1.0
C      1  0.4985450000000  0.3989460000000  0.4325450000000 1.0
C      1  0.4968160000000  0.5672120000000  0.4766610000000 1.0
C      1  0.4738690000000  0.4471450000000  0.6036220000000 1.0
END
