TITL C-599892-9790-355 2.84520757640423 125000 -283.651466918159 0 0 49 (C1) n - 1
REM
REM in /home/nfs/bkarasulu/CARBON/AIRSS/Generating-Clusters/TERSOFF/Only-C1/FIRE-HFTN
REM
REM
REM
REM
REM
REM ./C.cell (11c1c37f851c82e70ff6c80c92926a4b)
REM AIRSS Version 0.9.1 bugfix July 2018 build 013d7b7c2542+ Fri, 06 Jul 2018 19:26:36 +0100
REM compiler GCC version 9.2.1 20190827 (Red Hat 9.2.1-1)
REM options -cpp -mtune=generic -march=x86-64 -g -O0 -fpre-include=/usr/include/finclude/math-vector-fortran.h
REM seed 2006619324 -780357660 1144135823 1231687376 -1683107353 -438158716 -173165886 165297525 1266049533 1541836852 558297457 2036348521 323663540 699956613 1519474329 -779413128 -278516474 -1187207578 -203636243 -1685398867 -39793307 -878123360 1682040635 -1622828014 271278602 766139445 1159185133 -1388486848 -273916008 797563673 1581423588 -710760646 -1727031717
REM
CELL 1.54180   50.00000   50.00000   50.00000   90.00000   90.00000   90.00000
LATT -1
SFAC C  
C      1  0.4022860000000  0.5404780000000  0.5604290000000 1.0
C      1  0.4882340000000  0.5563080000000  0.5177470000000 1.0
C      1  0.5233810000000  0.3731810000000  0.4048120000000 1.0
C      1  0.4731930000000  0.4647810000000  0.5494080000000 1.0
C      1  0.4597150000000  0.4820560000000  0.5684970000000 1.0
C      1  0.5298320000000  0.3651880000000  0.4727050000000 1.0
C      1  0.5240200000000  0.4618730000000  0.4951450000000 1.0
C      1  0.5498940000000  0.6425690000000  0.4855820000000 1.0
C      1  0.5842100000000  0.4343810000000  0.4618940000000 1.0
C      1  0.5381440000000  0.3610840000000  0.4242370000000 1.0
C      1  0.5210080000000  0.4440410000000  0.4256740000000 1.0
C      1  0.4114530000000  0.4944100000000  0.5805680000000 1.0
C      1  0.5237600000000  0.6369350000000  0.4824930000000 1.0
C      1  0.4379470000000  0.5665860000000  0.5331310000000 1.0
C      1  0.4658400000000  0.4114670000000  0.5432970000000 1.0
C      1  0.4958380000000  0.5317690000000  0.5289340000000 1.0
C      1  0.4916580000000  0.3949660000000  0.4738580000000 1.0
C      1  0.5080430000000  0.4713710000000  0.5134070000000 1.0
C      1  0.4955460000000  0.4115960000000  0.4529830000000 1.0
C      1  0.5368450000000  0.5975840000000  0.5274200000000 1.0
C      1  0.5132270000000  0.3982050000000  0.4082350000000 1.0
C      1  0.4916440000000  0.4808140000000  0.5336220000000 1.0
C      1  0.5337670000000  0.5861820000000  0.5526830000000 1.0
C      1  0.4902070000000  0.5084300000000  0.5426420000000 1.0
C      1  0.5175660000000  0.4156600000000  0.4327470000000 1.0
C      1  0.5298160000000  0.5748900000000  0.5758360000000 1.0
C      1  0.5194490000000  0.5417730000000  0.4567950000000 1.0
C      1  0.5667310000000  0.6309080000000  0.5031410000000 1.0
C      1  0.5138480000000  0.5586110000000  0.4764670000000 1.0
C      1  0.5055740000000  0.6191480000000  0.4946610000000 1.0
C      1  0.4341550000000  0.4804350000000  0.5791670000000 1.0
C      1  0.4525530000000  0.6290340000000  0.4935880000000 1.0
C      1  0.5066980000000  0.3745570000000  0.4832090000000 1.0
C      1  0.5158480000000  0.5958920000000  0.5079470000000 1.0
C      1  0.5420220000000  0.3745480000000  0.4489760000000 1.0
C      1  0.4731500000000  0.5075400000000  0.5658680000000 1.0
C      1  0.5240490000000  0.4963840000000  0.4305040000000 1.0
C      1  0.3998360000000  0.5172710000000  0.5732590000000 1.0
C      1  0.4164410000000  0.5578270000000  0.5460680000000 1.0
C      1  0.5604100000000  0.6115610000000  0.5207490000000 1.0
C      1  0.5232560000000  0.4704250000000  0.4252160000000 1.0
C      1  0.4781780000000  0.6243190000000  0.4941750000000 1.0
C      1  0.5430920000000  0.4034720000000  0.4460020000000 1.0
C      1  0.4626490000000  0.5662130000000  0.5233730000000 1.0
C      1  0.4624560000000  0.3858130000000  0.5401280000000 1.0
C      1  0.5228530000000  0.5205950000000  0.4412250000000 1.0
C      1  0.5059150000000  0.5703040000000  0.5005630000000 1.0
C      1  0.5646060000000  0.4190390000000  0.4541870000000 1.0
C      1  0.4691580000000  0.4375240000000  0.5467450000000 1.0
END
