TITL C-599890-3321-270 25986.5781204421 125000 -1196.92246383027 0 0 199 (C1) n - 1
REM
REM in /home/nfs/bkarasulu/CARBON/AIRSS/Generating-Clusters/TERSOFF/Only-C1/FIRE-HFTN
REM
REM
REM
REM
REM
REM ./C.cell (11c1c37f851c82e70ff6c80c92926a4b)
REM AIRSS Version 0.9.1 bugfix July 2018 build 013d7b7c2542+ Fri, 06 Jul 2018 19:26:36 +0100
REM compiler GCC version 9.2.1 20190827 (Red Hat 9.2.1-1)
REM options -cpp -mtune=generic -march=x86-64 -g -O0 -fpre-include=/usr/include/finclude/math-vector-fortran.h
REM seed 2102567662 -1254613305 -460702027 590422113 172329681 245993108 -1285381774 -788783661 2146659473 -1406904238 -1801480475 2043847690 686198236 -292602790 -1538806839 -1067624838 1926922807 -2011405741 659313626 1345327384 1011081095 -1452020075 235056377 -20390401 1546646696 -1248881632 -1575353195 -536371608 -1815774053 -1308928046 -1938283486 458212063 1298439652
REM
CELL 1.54180   50.00000   50.00000   50.00000   90.00000   90.00000   90.00000
LATT -1
SFAC C  
C      1  0.5848430000000  0.5283560000000  0.4304230000000 1.0
C      1  0.5445960000000  0.5116830000000  0.4140740000000 1.0
C      1  0.5428340000000  0.4431830000000  0.4114920000000 1.0
C      1  0.4719310000000  0.5769210000000  0.5965190000000 1.0
C      1  0.5899910000000  0.4678380000000  0.3572270000000 1.0
C      1  0.3908750000000  0.4372990000000  0.5102470000000 1.0
C      1  0.5000360000000  0.4792660000000  0.4110990000000 1.0
C      1  0.4750280000000  0.4250110000000  0.4768980000000 1.0
C      1  0.5280120000000  0.4299860000000  0.4560350000000 1.0
C      1  0.5649520000000  0.5511470000000  0.4700690000000 1.0
C      1  0.6189160000000  0.4619670000000  0.4721530000000 1.0
C      1  0.5273480000000  0.3914630000000  0.5459060000000 1.0
C      1  0.4496990000000  0.4590680000000  0.4517160000000 1.0
C      1  0.4443390000000  0.6017750000000  0.5347640000000 1.0
C      1  0.5153920000000  0.5337900000000  0.3589720000000 1.0
C      1  0.5921120000000  0.5847730000000  0.4880370000000 1.0
C      1  0.5307640000000  0.3853870000000  0.5006620000000 1.0
C      1  0.4366690000000  0.5298780000000  0.4034210000000 1.0
C      1  0.5630580000000  0.4735150000000  0.5337040000000 1.0
C      1  0.4492280000000  0.5939970000000  0.4698430000000 1.0
C      1  0.4011300000000  0.4511740000000  0.5590960000000 1.0
C      1  0.4826160000000  0.3860890000000  0.4527440000000 1.0
C      1  0.5905680000000  0.5562560000000  0.4822910000000 1.0
C      1  0.4804420000000  0.5136330000000  0.3828560000000 1.0
C      1  0.5313780000000  0.4131670000000  0.5637510000000 1.0
C      1  0.4378910000000  0.5561640000000  0.5224050000000 1.0
C      1  0.5215360000000  0.6045090000000  0.5707610000000 1.0
C      1  0.5206310000000  0.5181480000000  0.5232080000000 1.0
C      1  0.6097210000000  0.5511590000000  0.5414020000000 1.0
C      1  0.4670560000000  0.5504580000000  0.5230790000000 1.0
C      1  0.4656630000000  0.4401570000000  0.5410570000000 1.0
C      1  0.5744390000000  0.5583980000000  0.5770610000000 1.0
C      1  0.4819140000000  0.5589580000000  0.3889480000000 1.0
C      1  0.4434760000000  0.5929630000000  0.5613470000000 1.0
C      1  0.6092570000000  0.5040680000000  0.5602420000000 1.0
C      1  0.5973680000000  0.5392740000000  0.5653190000000 1.0
C      1  0.4958910000000  0.5990330000000  0.4526790000000 1.0
C      1  0.5047810000000  0.4336490000000  0.5971180000000 1.0
C      1  0.4537310000000  0.5123350000000  0.4461190000000 1.0
C      1  0.5049440000000  0.5827800000000  0.5825400000000 1.0
C      1  0.5278990000000  0.4872010000000  0.4744500000000 1.0
C      1  0.5504350000000  0.6138650000000  0.4615270000000 1.0
C      1  0.3669500000000  0.5055950000000  0.4131270000000 1.0
C      1  0.5182750000000  0.4315320000000  0.4007460000000 1.0
C      1  0.6058660000000  0.5917400000000  0.5115720000000 1.0
C      1  0.6139620000000  0.5314870000000  0.5209420000000 1.0
C      1  0.6055970000000  0.4683270000000  0.5633280000000 1.0
C      1  0.5433300000000  0.5571830000000  0.4877350000000 1.0
C      1  0.4833180000000  0.3971480000000  0.4794240000000 1.0
C      1  0.4443760000000  0.4582560000000  0.4986850000000 1.0
C      1  0.5488770000000  0.5285720000000  0.6097510000000 1.0
C      1  0.5595560000000  0.4562110000000  0.3929040000000 1.0
C      1  0.4900660000000  0.5677810000000  0.5336520000000 1.0
C      1  0.5778100000000  0.4938260000000  0.6006890000000 1.0
C      1  0.4405860000000  0.4790540000000  0.3890100000000 1.0
C      1  0.5155630000000  0.5505060000000  0.4224100000000 1.0
C      1  0.6122070000000  0.5780540000000  0.5338750000000 1.0
C      1  0.3806540000000  0.4884790000000  0.4308460000000 1.0
C      1  0.4068380000000  0.5251220000000  0.5931910000000 1.0
C      1  0.5425650000000  0.5977880000000  0.5520950000000 1.0
C      1  0.4961040000000  0.5481920000000  0.4649480000000 1.0
C      1  0.4298120000000  0.5136870000000  0.6069720000000 1.0
C      1  0.4540140000000  0.3426950000000  0.4390330000000 1.0
C      1  0.6058350000000  0.5340700000000  0.4933430000000 1.0
C      1  0.5680620000000  0.4981130000000  0.5481420000000 1.0
C      1  0.5578700000000  0.4494460000000  0.5465060000000 1.0
C      1  0.4255550000000  0.5558290000000  0.4519120000000 1.0
C      1  0.6399410000000  0.4629180000000  0.3403840000000 1.0
C      1  0.5221530000000  0.4987040000000  0.6432580000000 1.0
C      1  0.4930080000000  0.4642350000000  0.4592500000000 1.0
C      1  0.5432230000000  0.4785650000000  0.5101320000000 1.0
C      1  0.5474090000000  0.5667050000000  0.5150150000000 1.0
C      1  0.5658160000000  0.4723850000000  0.3705730000000 1.0
C      1  0.4967720000000  0.4278780000000  0.4210210000000 1.0
C      1  0.4527250000000  0.5711380000000  0.5762570000000 1.0
C      1  0.4680490000000  0.3636650000000  0.4455410000000 1.0
C      1  0.5474200000000  0.3917750000000  0.5237080000000 1.0
C      1  0.5327620000000  0.5895330000000  0.5251920000000 1.0
C      1  0.6084570000000  0.5090200000000  0.4798800000000 1.0
C      1  0.4988270000000  0.4015360000000  0.4348730000000 1.0
C      1  0.4777610000000  0.5187230000000  0.4321230000000 1.0
C      1  0.3252180000000  0.5066410000000  0.4384370000000 1.0
C      1  0.5736030000000  0.5092020000000  0.4139260000000 1.0
C      1  0.5547810000000  0.4297070000000  0.5657880000000 1.0
C      1  0.5065280000000  0.5341330000000  0.5062060000000 1.0
C      1  0.4653650000000  0.3877940000000  0.5324910000000 1.0
C      1  0.6651590000000  0.4611960000000  0.3340010000000 1.0
C      1  0.3925380000000  0.5301130000000  0.5412170000000 1.0
C      1  0.5370900000000  0.4774410000000  0.4477230000000 1.0
C      1  0.5416840000000  0.4495430000000  0.4402540000000 1.0
C      1  0.4067770000000  0.4781520000000  0.4298380000000 1.0
C      1  0.5736760000000  0.4078830000000  0.5249420000000 1.0
C      1  0.3925820000000  0.5299100000000  0.5703290000000 1.0
C      1  0.5555070000000  0.6389190000000  0.4511330000000 1.0
C      1  0.4489410000000  0.4854100000000  0.4498100000000 1.0
C      1  0.5075240000000  0.4437340000000  0.3775230000000 1.0
C      1  0.4560200000000  0.5296010000000  0.6157540000000 1.0
C      1  0.4918610000000  0.4294810000000  0.5439360000000 1.0
C      1  0.5275990000000  0.4907060000000  0.4228480000000 1.0
C      1  0.5065340000000  0.4267040000000  0.5692310000000 1.0
C      1  0.4855460000000  0.5877500000000  0.4273940000000 1.0
C      1  0.5043160000000  0.5614130000000  0.5598190000000 1.0
C      1  0.3765250000000  0.5110820000000  0.5256250000000 1.0
C      1  0.4367640000000  0.4079930000000  0.5277240000000 1.0
C      1  0.6135620000000  0.4825180000000  0.4892650000000 1.0
C      1  0.4979600000000  0.5220960000000  0.5912110000000 1.0
C      1  0.5709970000000  0.4350710000000  0.5888730000000 1.0
C      1  0.5025430000000  0.5573910000000  0.6244250000000 1.0
C      1  0.4384030000000  0.4855110000000  0.5955020000000 1.0
C      1  0.5255020000000  0.4037580000000  0.4459120000000 1.0
C      1  0.5040300000000  0.4214770000000  0.5178210000000 1.0
C      1  0.5557300000000  0.4320910000000  0.6123620000000 1.0
C      1  0.3390620000000  0.4893590000000  0.4562610000000 1.0
C      1  0.5491030000000  0.4933280000000  0.3614800000000 1.0
C      1  0.2996010000000  0.5149560000000  0.4421190000000 1.0
C      1  0.4301930000000  0.5931920000000  0.4906080000000 1.0
C      1  0.5215640000000  0.5183090000000  0.5520080000000 1.0
C      1  0.4771220000000  0.5287010000000  0.5034070000000 1.0
C      1  0.4027850000000  0.4743910000000  0.5458460000000 1.0
C      1  0.5393090000000  0.5144520000000  0.6303230000000 1.0
C      1  0.5038090000000  0.5889010000000  0.5186320000000 1.0
C      1  0.5319100000000  0.5458830000000  0.5592580000000 1.0
C      1  0.5349480000000  0.5154950000000  0.3563650000000 1.0
C      1  0.5678140000000  0.4974490000000  0.5761890000000 1.0
C      1  0.4851190000000  0.6053500000000  0.5037920000000 1.0
C      1  0.5039020000000  0.3964220000000  0.5003160000000 1.0
C      1  0.4586960000000  0.5432900000000  0.5682330000000 1.0
C      1  0.4946870000000  0.4801460000000  0.5395800000000 1.0
C      1  0.5165880000000  0.4401470000000  0.4999030000000 1.0
C      1  0.4970300000000  0.5377380000000  0.4396940000000 1.0
C      1  0.5448100000000  0.5083080000000  0.5117260000000 1.0
C      1  0.5429460000000  0.4511650000000  0.4985900000000 1.0
C      1  0.4548800000000  0.5561000000000  0.4029500000000 1.0
C      1  0.5107140000000  0.5040190000000  0.5736200000000 1.0
C      1  0.4917630000000  0.4568440000000  0.4310000000000 1.0
C      1  0.5027950000000  0.4394950000000  0.4732950000000 1.0
C      1  0.4632450000000  0.4943810000000  0.5802800000000 1.0
C      1  0.4836300000000  0.5040480000000  0.4090550000000 1.0
C      1  0.4143570000000  0.4206480000000  0.5025750000000 1.0
C      1  0.4869610000000  0.5415350000000  0.5732140000000 1.0
C      1  0.4251490000000  0.4407270000000  0.5696900000000 1.0
C      1  0.5409060000000  0.5392350000000  0.4247050000000 1.0
C      1  0.4910800000000  0.4656430000000  0.3839350000000 1.0
C      1  0.5456420000000  0.5495270000000  0.5883960000000 1.0
C      1  0.4651720000000  0.6165010000000  0.5217440000000 1.0
C      1  0.4772410000000  0.6011060000000  0.4754010000000 1.0
C      1  0.4576070000000  0.5775330000000  0.4242240000000 1.0
C      1  0.4255630000000  0.4786410000000  0.5033640000000 1.0
C      1  0.4505100000000  0.5161720000000  0.5612840000000 1.0
C      1  0.6145620000000  0.4649810000000  0.3477530000000 1.0
C      1  0.6141020000000  0.4795320000000  0.5177320000000 1.0
C      1  0.3413980000000  0.5141740000000  0.4163320000000 1.0
C      1  0.4893220000000  0.4857090000000  0.5663170000000 1.0
C      1  0.4331330000000  0.5302090000000  0.4528320000000 1.0
C      1  0.3654810000000  0.4798740000000  0.4541030000000 1.0
C      1  0.4331930000000  0.4576780000000  0.5916300000000 1.0
C      1  0.4762250000000  0.5108930000000  0.6044870000000 1.0
C      1  0.6066520000000  0.4562090000000  0.5350990000000 1.0
C      1  0.5174000000000  0.5478350000000  0.4835270000000 1.0
C      1  0.5534800000000  0.5475990000000  0.5361950000000 1.0
C      1  0.5922010000000  0.4921680000000  0.6224390000000 1.0
C      1  0.4414170000000  0.5786240000000  0.4471600000000 1.0
C      1  0.5650870000000  0.4405880000000  0.4866690000000 1.0
C      1  0.5214310000000  0.5669450000000  0.6034850000000 1.0
C      1  0.6165520000000  0.5050290000000  0.5323280000000 1.0
C      1  0.4209850000000  0.4883710000000  0.5296230000000 1.0
C      1  0.4758200000000  0.4816260000000  0.5200570000000 1.0
C      1  0.4799630000000  0.4983930000000  0.4973240000000 1.0
C      1  0.3806400000000  0.4627760000000  0.4706950000000 1.0
C      1  0.4335010000000  0.5116740000000  0.5393170000000 1.0
C      1  0.5017170000000  0.4816250000000  0.6444780000000 1.0
C      1  0.4985800000000  0.4873210000000  0.4761960000000 1.0
C      1  0.4717730000000  0.5430910000000  0.4781360000000 1.0
C      1  0.4317930000000  0.5834380000000  0.5166980000000 1.0
C      1  0.4911840000000  0.5374660000000  0.3728650000000 1.0
C      1  0.4621970000000  0.4577790000000  0.5192890000000 1.0
C      1  0.5668240000000  0.5850570000000  0.5637920000000 1.0
C      1  0.5638360000000  0.5205810000000  0.5302730000000 1.0
C      1  0.5287760000000  0.4297370000000  0.6125620000000 1.0
C      1  0.4928350000000  0.3828630000000  0.5412990000000 1.0
C      1  0.5189330000000  0.4746400000000  0.5285680000000 1.0
C      1  0.4847810000000  0.4468330000000  0.6115690000000 1.0
C      1  0.4489980000000  0.4406870000000  0.4748620000000 1.0
C      1  0.4730800000000  0.5564890000000  0.6180800000000 1.0
C      1  0.4201310000000  0.4302340000000  0.4730580000000 1.0
C      1  0.4413890000000  0.4275670000000  0.5497860000000 1.0
C      1  0.4196860000000  0.5357490000000  0.5308160000000 1.0
C      1  0.4859230000000  0.4638380000000  0.6323130000000 1.0
C      1  0.5933830000000  0.4287600000000  0.5282940000000 1.0
C      1  0.5943290000000  0.4510610000000  0.5834420000000 1.0
C      1  0.5639160000000  0.5446980000000  0.4425660000000 1.0
C      1  0.5239250000000  0.6036900000000  0.4572890000000 1.0
C      1  0.3725040000000  0.4868560000000  0.5129890000000 1.0
C      1  0.4631130000000  0.4680900000000  0.3790070000000 1.0
C      1  0.4272110000000  0.4960500000000  0.4070940000000 1.0
C      1  0.4041980000000  0.4523510000000  0.4568200000000 1.0
C      1  0.5007130000000  0.5707680000000  0.4085410000000 1.0
C      1  0.5723490000000  0.6013230000000  0.4751990000000 1.0
C      1  0.3789380000000  0.4616970000000  0.4993250000000 1.0
END
