TITL C-599896-8500-68 3.17332084193692 125000 -980.804619138066 0 0 160 (C1) n - 1
REM
REM in /home/nfs/bkarasulu/CARBON/AIRSS/Generating-Clusters/TERSOFF/Only-C1/FIRE-HFTN
REM
REM
REM
REM
REM
REM ./C.cell (11c1c37f851c82e70ff6c80c92926a4b)
REM AIRSS Version 0.9.1 bugfix July 2018 build 013d7b7c2542+ Fri, 06 Jul 2018 19:26:36 +0100
REM compiler GCC version 9.2.1 20190827 (Red Hat 9.2.1-1)
REM options -cpp -mtune=generic -march=x86-64 -g -O0 -fpre-include=/usr/include/finclude/math-vector-fortran.h
REM seed -1726725956 1817853019 1965169325 -905424455 -612907933 -836417543 885388499 -2054229264 964498820 -2065052287 -1367547575 803190040 1132176884 -372108451 1661834878 -2025791407 174613704 1273164024 846750460 1239772961 211000277 1831181061 888641755 623993495 -705308923 -2033251832 2117295277 -1221911867 -173841122 1660127678 411813843 777206949 -1728892853
REM
CELL 1.54180   50.00000   50.00000   50.00000   90.00000   90.00000   90.00000
LATT -1
SFAC C  
C      1  0.3433410000000  0.3702010000000  0.6146720000000 1.0
C      1  0.4977930000000  0.4848920000000  0.4020160000000 1.0
C      1  0.4941020000000  0.5460930000000  0.5665230000000 1.0
C      1  0.5791600000000  0.5584220000000  0.4243150000000 1.0
C      1  0.5939490000000  0.3801800000000  0.5266030000000 1.0
C      1  0.5283360000000  0.3892310000000  0.4594180000000 1.0
C      1  0.4846830000000  0.5140430000000  0.4961760000000 1.0
C      1  0.4102750000000  0.5099310000000  0.4980520000000 1.0
C      1  0.4556800000000  0.4667100000000  0.5501290000000 1.0
C      1  0.5627260000000  0.4750150000000  0.5702310000000 1.0
C      1  0.4561990000000  0.4740210000000  0.4822190000000 1.0
C      1  0.4415630000000  0.4454790000000  0.4095710000000 1.0
C      1  0.4956890000000  0.5582510000000  0.4779450000000 1.0
C      1  0.4481600000000  0.5410380000000  0.6110890000000 1.0
C      1  0.4800050000000  0.5078210000000  0.3953890000000 1.0
C      1  0.6184520000000  0.4725620000000  0.4529880000000 1.0
C      1  0.4629240000000  0.4076520000000  0.5202340000000 1.0
C      1  0.5170860000000  0.4594230000000  0.4836740000000 1.0
C      1  0.5742430000000  0.5030740000000  0.4641840000000 1.0
C      1  0.5213930000000  0.4870730000000  0.4843690000000 1.0
C      1  0.4515390000000  0.5142630000000  0.6036220000000 1.0
C      1  0.5697350000000  0.3952340000000  0.5243230000000 1.0
C      1  0.4836220000000  0.5654540000000  0.5454580000000 1.0
C      1  0.5051070000000  0.5078690000000  0.5202140000000 1.0
C      1  0.4986050000000  0.6271530000000  0.4564950000000 1.0
C      1  0.4660250000000  0.6139110000000  0.5469640000000 1.0
C      1  0.4631800000000  0.5535530000000  0.5230210000000 1.0
C      1  0.5680500000000  0.6007100000000  0.4635660000000 1.0
C      1  0.5236040000000  0.5666610000000  0.6070170000000 1.0
C      1  0.4836130000000  0.4718440000000  0.5451770000000 1.0
C      1  0.4815450000000  0.4714340000000  0.4434280000000 1.0
C      1  0.4681900000000  0.5885160000000  0.5601180000000 1.0
C      1  0.5611970000000  0.4479650000000  0.4803330000000 1.0
C      1  0.3952400000000  0.5340360000000  0.4936010000000 1.0
C      1  0.4572050000000  0.4790970000000  0.4544190000000 1.0
C      1  0.5834120000000  0.4340840000000  0.4696490000000 1.0
C      1  0.6232860000000  0.4864150000000  0.4996020000000 1.0
C      1  0.5591580000000  0.5029840000000  0.4402590000000 1.0
C      1  0.4496130000000  0.5666680000000  0.6042090000000 1.0
C      1  0.4203080000000  0.4642960000000  0.5836120000000 1.0
C      1  0.5932940000000  0.4904470000000  0.5372510000000 1.0
C      1  0.5862250000000  0.6098760000000  0.5202720000000 1.0
C      1  0.5303560000000  0.5441160000000  0.4263110000000 1.0
C      1  0.4785130000000  0.5439780000000  0.4967420000000 1.0
C      1  0.4444980000000  0.5293570000000  0.5318970000000 1.0
C      1  0.6159660000000  0.4965840000000  0.4375500000000 1.0
C      1  0.5247460000000  0.6233390000000  0.4517970000000 1.0
C      1  0.4893750000000  0.5618120000000  0.4493690000000 1.0
C      1  0.3946380000000  0.4494960000000  0.5470120000000 1.0
C      1  0.4900920000000  0.4338360000000  0.4104480000000 1.0
C      1  0.5287180000000  0.6209150000000  0.5163330000000 1.0
C      1  0.4877180000000  0.3968130000000  0.5124020000000 1.0
C      1  0.4102810000000  0.5373560000000  0.5656810000000 1.0
C      1  0.5952420000000  0.5574950000000  0.4700080000000 1.0
C      1  0.4132300000000  0.5180840000000  0.4103640000000 1.0
C      1  0.6254820000000  0.5452280000000  0.5338060000000 1.0
C      1  0.5354670000000  0.5184850000000  0.4374000000000 1.0
C      1  0.4621430000000  0.4252130000000  0.4148560000000 1.0
C      1  0.5609420000000  0.4114980000000  0.5460670000000 1.0
C      1  0.4276940000000  0.5912260000000  0.4750240000000 1.0
C      1  0.5606830000000  0.4600360000000  0.5063690000000 1.0
C      1  0.4550230000000  0.4343320000000  0.5137090000000 1.0
C      1  0.6120240000000  0.3788600000000  0.5062490000000 1.0
C      1  0.5987180000000  0.4955990000000  0.5098700000000 1.0
C      1  0.5019280000000  0.5492620000000  0.4260030000000 1.0
C      1  0.5976790000000  0.5478830000000  0.4428950000000 1.0
C      1  0.6031670000000  0.5475810000000  0.5178000000000 1.0
C      1  0.5786130000000  0.5619070000000  0.5234040000000 1.0
C      1  0.4057500000000  0.3763950000000  0.5665840000000 1.0
C      1  0.5802600000000  0.5861470000000  0.5080140000000 1.0
C      1  0.5324330000000  0.5003630000000  0.5083520000000 1.0
C      1  0.4337280000000  0.5250790000000  0.5582190000000 1.0
C      1  0.4589290000000  0.4977370000000  0.4978660000000 1.0
C      1  0.4091410000000  0.5734620000000  0.4677840000000 1.0
C      1  0.5613320000000  0.3984310000000  0.4963490000000 1.0
C      1  0.3964490000000  0.4521240000000  0.5749800000000 1.0
C      1  0.4805500000000  0.6153980000000  0.5225840000000 1.0
C      1  0.4414710000000  0.4785550000000  0.5716770000000 1.0
C      1  0.4187510000000  0.5782310000000  0.5312690000000 1.0
C      1  0.6461610000000  0.5410510000000  0.5491030000000 1.0
C      1  0.5337660000000  0.4151200000000  0.5520440000000 1.0
C      1  0.4923450000000  0.5182780000000  0.5639340000000 1.0
C      1  0.4588040000000  0.4457580000000  0.4881210000000 1.0
C      1  0.5130590000000  0.4318900000000  0.5509870000000 1.0
C      1  0.5826530000000  0.5822400000000  0.4791270000000 1.0
C      1  0.4406720000000  0.4507320000000  0.5316220000000 1.0
C      1  0.4639570000000  0.4279050000000  0.4678310000000 1.0
C      1  0.4537820000000  0.4944850000000  0.3942640000000 1.0
C      1  0.3922720000000  0.5298270000000  0.4216920000000 1.0
C      1  0.4361580000000  0.4828580000000  0.4360630000000 1.0
C      1  0.6074080000000  0.3916710000000  0.4826440000000 1.0
C      1  0.5812420000000  0.5132920000000  0.4916500000000 1.0
C      1  0.6018200000000  0.4492370000000  0.4539060000000 1.0
C      1  0.3957800000000  0.5487280000000  0.4690790000000 1.0
C      1  0.5054920000000  0.4490920000000  0.5070230000000 1.0
C      1  0.4126000000000  0.4529470000000  0.5257640000000 1.0
C      1  0.3639710000000  0.3713640000000  0.5987760000000 1.0
C      1  0.5494920000000  0.4573700000000  0.4214810000000 1.0
C      1  0.5088270000000  0.5567870000000  0.5879600000000 1.0
C      1  0.5320150000000  0.4431770000000  0.4383080000000 1.0
C      1  0.6331070000000  0.4763990000000  0.4768700000000 1.0
C      1  0.5534600000000  0.5443210000000  0.5258980000000 1.0
C      1  0.5470310000000  0.6188340000000  0.4683130000000 1.0
C      1  0.3927990000000  0.4801030000000  0.4602490000000 1.0
C      1  0.5840780000000  0.4555820000000  0.5660560000000 1.0
C      1  0.4681180000000  0.5783110000000  0.4431120000000 1.0
C      1  0.4567080000000  0.5837080000000  0.5851080000000 1.0
C      1  0.3846070000000  0.5390070000000  0.4454520000000 1.0
C      1  0.4235650000000  0.4568420000000  0.4298670000000 1.0
C      1  0.5071360000000  0.6055600000000  0.5248830000000 1.0
C      1  0.5527320000000  0.5233140000000  0.5010860000000 1.0
C      1  0.5115860000000  0.5060190000000  0.4455630000000 1.0
C      1  0.5639330000000  0.4941510000000  0.5462880000000 1.0
C      1  0.5126060000000  0.3917070000000  0.5042150000000 1.0
C      1  0.4452860000000  0.3918590000000  0.5351530000000 1.0
C      1  0.5276640000000  0.5617440000000  0.5180500000000 1.0
C      1  0.5221070000000  0.5596950000000  0.4888510000000 1.0
C      1  0.5121110000000  0.4253930000000  0.4273310000000 1.0
C      1  0.3939120000000  0.5682690000000  0.5298250000000 1.0
C      1  0.4674610000000  0.6136380000000  0.4971750000000 1.0
C      1  0.4431740000000  0.5763110000000  0.5171990000000 1.0
C      1  0.4054960000000  0.4399270000000  0.4760130000000 1.0
C      1  0.6114830000000  0.5234010000000  0.4368420000000 1.0
C      1  0.5357850000000  0.4466690000000  0.4667120000000 1.0
C      1  0.5616380000000  0.4812110000000  0.4225770000000 1.0
C      1  0.4865580000000  0.4588410000000  0.3944070000000 1.0
C      1  0.4438670000000  0.5062200000000  0.5772740000000 1.0
C      1  0.6057040000000  0.4696430000000  0.5530560000000 1.0
C      1  0.4787540000000  0.6252160000000  0.4742770000000 1.0
C      1  0.5453020000000  0.4765890000000  0.5909200000000 1.0
C      1  0.5785200000000  0.4287540000000  0.5600350000000 1.0
C      1  0.5348980000000  0.3921210000000  0.4868610000000 1.0
C      1  0.5001880000000  0.4507890000000  0.5348360000000 1.0
C      1  0.5988280000000  0.5381800000000  0.4908860000000 1.0
C      1  0.4348450000000  0.5012240000000  0.4142420000000 1.0
C      1  0.4868120000000  0.5334820000000  0.4065540000000 1.0
C      1  0.5415920000000  0.5414290000000  0.4795330000000 1.0
C      1  0.3769980000000  0.4436860000000  0.5920360000000 1.0
C      1  0.5528090000000  0.5591130000000  0.4191010000000 1.0
C      1  0.3840420000000  0.5477830000000  0.5155230000000 1.0
C      1  0.5837690000000  0.4069940000000  0.4787730000000 1.0
C      1  0.3849250000000  0.3731230000000  0.5826400000000 1.0
C      1  0.4367420000000  0.5114110000000  0.5100610000000 1.0
C      1  0.5012220000000  0.4856610000000  0.4300370000000 1.0
C      1  0.5087480000000  0.5776820000000  0.5318560000000 1.0
C      1  0.4465730000000  0.5944960000000  0.4954440000000 1.0
C      1  0.5027950000000  0.5054220000000  0.4723280000000 1.0
C      1  0.5561120000000  0.5236250000000  0.5487890000000 1.0
C      1  0.4569080000000  0.4651650000000  0.3920460000000 1.0
C      1  0.4046240000000  0.4581530000000  0.4991550000000 1.0
C      1  0.3998690000000  0.4852410000000  0.4882440000000 1.0
C      1  0.4625450000000  0.4963820000000  0.6211780000000 1.0
C      1  0.5499160000000  0.4810270000000  0.5227200000000 1.0
C      1  0.4035100000000  0.4540230000000  0.4503960000000 1.0
C      1  0.6322120000000  0.4648340000000  0.5561230000000 1.0
C      1  0.4942690000000  0.4984620000000  0.5445370000000 1.0
C      1  0.5153000000000  0.3993160000000  0.4380620000000 1.0
C      1  0.5433590000000  0.6273710000000  0.4949930000000 1.0
C      1  0.4261290000000  0.3821350000000  0.5506490000000 1.0
C      1  0.4516600000000  0.6348270000000  0.5569120000000 1.0
END
