TITL C-599896-8500-1461 9442.67101021812 125000 -1060.18367581967 0 0 173 (C1) n - 1
REM
REM in /home/nfs/bkarasulu/CARBON/AIRSS/Generating-Clusters/TERSOFF/Only-C1/FIRE-HFTN
REM
REM
REM
REM
REM
REM ./C.cell (11c1c37f851c82e70ff6c80c92926a4b)
REM AIRSS Version 0.9.1 bugfix July 2018 build 013d7b7c2542+ Fri, 06 Jul 2018 19:26:36 +0100
REM compiler GCC version 9.2.1 20190827 (Red Hat 9.2.1-1)
REM options -cpp -mtune=generic -march=x86-64 -g -O0 -fpre-include=/usr/include/finclude/math-vector-fortran.h
REM seed -716968544 1624391515 -1024006643 -619403942 34270678 728625386 -869955388 -366183420 -1675112359 -1332405067 1769616473 -622652780 -500876135 -1155717474 479037769 -1729101634 1484444932 -1893780777 -529569178 -537533859 128123679 1833514715 2086995704 693281612 993302922 338854691 -55057830 224286834 -1895408720 2080275183 147520219 735827421 -1228287576
REM
CELL 1.54180   50.00000   50.00000   50.00000   90.00000   90.00000   90.00000
LATT -1
SFAC C  
C      1  0.4682310000000  0.5676250000000  0.4020000000000 1.0
C      1  0.5448670000000  0.4753620000000  0.4868210000000 1.0
C      1  0.3776550000000  0.4098280000000  0.4573510000000 1.0
C      1  0.5064720000000  0.5093020000000  0.4829530000000 1.0
C      1  0.5251010000000  0.4561920000000  0.5380750000000 1.0
C      1  0.5079960000000  0.4685400000000  0.5844350000000 1.0
C      1  0.5025990000000  0.4192190000000  0.5710800000000 1.0
C      1  0.5289650000000  0.6061720000000  0.4688180000000 1.0
C      1  0.4717950000000  0.4710620000000  0.5446460000000 1.0
C      1  0.4453140000000  0.5225900000000  0.4976740000000 1.0
C      1  0.5060940000000  0.3918960000000  0.4958730000000 1.0
C      1  0.5514270000000  0.5187800000000  0.4750250000000 1.0
C      1  0.4162160000000  0.4535780000000  0.5010120000000 1.0
C      1  0.4958430000000  0.5904860000000  0.4369920000000 1.0
C      1  0.5767070000000  0.3932970000000  0.4751280000000 1.0
C      1  0.5054890000000  0.5125070000000  0.3781110000000 1.0
C      1  0.3544780000000  0.5263910000000  0.4667150000000 1.0
C      1  0.4621130000000  0.4016770000000  0.4711380000000 1.0
C      1  0.3933570000000  0.5772240000000  0.5764520000000 1.0
C      1  0.4123440000000  0.5602150000000  0.5670010000000 1.0
C      1  0.5796380000000  0.5824240000000  0.5216030000000 1.0
C      1  0.4931170000000  0.6196730000000  0.4377440000000 1.0
C      1  0.5424470000000  0.5442150000000  0.4876060000000 1.0
C      1  0.6171740000000  0.4754340000000  0.5006750000000 1.0
C      1  0.4074660000000  0.5623760000000  0.4999010000000 1.0
C      1  0.4491910000000  0.5887700000000  0.4009240000000 1.0
C      1  0.6107470000000  0.5035990000000  0.5461640000000 1.0
C      1  0.5697110000000  0.4283720000000  0.4402820000000 1.0
C      1  0.6123910000000  0.5371140000000  0.4497470000000 1.0
C      1  0.5946470000000  0.4568630000000  0.5592000000000 1.0
C      1  0.4638530000000  0.5494350000000  0.5328840000000 1.0
C      1  0.5139340000000  0.5351680000000  0.5925300000000 1.0
C      1  0.5849000000000  0.4109660000000  0.4563860000000 1.0
C      1  0.4479650000000  0.5222280000000  0.4125750000000 1.0
C      1  0.5755020000000  0.4968800000000  0.5812980000000 1.0
C      1  0.5885970000000  0.5694670000000  0.4766470000000 1.0
C      1  0.5378100000000  0.4835410000000  0.5404440000000 1.0
C      1  0.5462170000000  0.6021020000000  0.4912610000000 1.0
C      1  0.5776060000000  0.4655570000000  0.5188240000000 1.0
C      1  0.4912730000000  0.3987360000000  0.4701910000000 1.0
C      1  0.5025300000000  0.5331110000000  0.4667870000000 1.0
C      1  0.5312290000000  0.4301230000000  0.4106280000000 1.0
C      1  0.4621640000000  0.5017890000000  0.4294150000000 1.0
C      1  0.3909830000000  0.4941620000000  0.5113290000000 1.0
C      1  0.4910570000000  0.5799830000000  0.4828190000000 1.0
C      1  0.4953450000000  0.5679280000000  0.5057850000000 1.0
C      1  0.5313470000000  0.4584690000000  0.4037560000000 1.0
C      1  0.4538930000000  0.5804210000000  0.5883100000000 1.0
C      1  0.4429060000000  0.4442000000000  0.5000950000000 1.0
C      1  0.4512690000000  0.5127180000000  0.5599380000000 1.0
C      1  0.5029380000000  0.5979450000000  0.5818760000000 1.0
C      1  0.3727920000000  0.4555950000000  0.5342870000000 1.0
C      1  0.5630670000000  0.4895600000000  0.5248810000000 1.0
C      1  0.5969700000000  0.4857430000000  0.5654210000000 1.0
C      1  0.5180180000000  0.5780050000000  0.3982580000000 1.0
C      1  0.3839240000000  0.5213110000000  0.5072920000000 1.0
C      1  0.4474010000000  0.4199950000000  0.5148430000000 1.0
C      1  0.4700930000000  0.6285090000000  0.4241930000000 1.0
C      1  0.5526250000000  0.5471110000000  0.5689390000000 1.0
C      1  0.4571430000000  0.4312090000000  0.5914500000000 1.0
C      1  0.4318920000000  0.3821180000000  0.4071480000000 1.0
C      1  0.5092880000000  0.4141320000000  0.4218970000000 1.0
C      1  0.4516650000000  0.3982660000000  0.4976850000000 1.0
C      1  0.4626960000000  0.5036270000000  0.5097840000000 1.0
C      1  0.4751530000000  0.4758870000000  0.4374470000000 1.0
C      1  0.5327430000000  0.4993430000000  0.4827260000000 1.0
C      1  0.4863310000000  0.4669600000000  0.4930900000000 1.0
C      1  0.4086550000000  0.4800010000000  0.4940800000000 1.0
C      1  0.3952580000000  0.4346250000000  0.4959790000000 1.0
C      1  0.5573900000000  0.4203370000000  0.4162670000000 1.0
C      1  0.5486490000000  0.3977930000000  0.5297380000000 1.0
C      1  0.5332580000000  0.6006810000000  0.5184780000000 1.0
C      1  0.4400590000000  0.5614180000000  0.5733410000000 1.0
C      1  0.4641610000000  0.4537810000000  0.4826260000000 1.0
C      1  0.5951330000000  0.5565260000000  0.5247300000000 1.0
C      1  0.4344830000000  0.5727140000000  0.5042560000000 1.0
C      1  0.3858370000000  0.4806630000000  0.5363460000000 1.0
C      1  0.5632370000000  0.5158040000000  0.4483160000000 1.0
C      1  0.5630990000000  0.4510040000000  0.6005540000000 1.0
C      1  0.5612110000000  0.4036150000000  0.5773070000000 1.0
C      1  0.4205930000000  0.4869060000000  0.4690240000000 1.0
C      1  0.4642570000000  0.5394820000000  0.3959940000000 1.0
C      1  0.5057250000000  0.6112770000000  0.5573100000000 1.0
C      1  0.4769350000000  0.5934830000000  0.5915810000000 1.0
C      1  0.4391060000000  0.3961720000000  0.4278820000000 1.0
C      1  0.5577160000000  0.4784350000000  0.5960560000000 1.0
C      1  0.6102660000000  0.5161970000000  0.4677230000000 1.0
C      1  0.4190660000000  0.5125410000000  0.5584970000000 1.0
C      1  0.5801610000000  0.4438680000000  0.5374860000000 1.0
C      1  0.5112610000000  0.5818730000000  0.4617920000000 1.0
C      1  0.3993860000000  0.5487950000000  0.4737320000000 1.0
C      1  0.4879040000000  0.4789730000000  0.5663050000000 1.0
C      1  0.4069250000000  0.5383200000000  0.5491630000000 1.0
C      1  0.5161500000000  0.3950140000000  0.5666040000000 1.0
C      1  0.4564940000000  0.4252640000000  0.5407630000000 1.0
C      1  0.5103100000000  0.5355400000000  0.5363650000000 1.0
C      1  0.4461130000000  0.4215540000000  0.5670050000000 1.0
C      1  0.5056610000000  0.6078240000000  0.5288480000000 1.0
C      1  0.4292710000000  0.4621550000000  0.4538410000000 1.0
C      1  0.5152990000000  0.6279310000000  0.4546510000000 1.0
C      1  0.5598150000000  0.4250090000000  0.5279270000000 1.0
C      1  0.5388020000000  0.4854260000000  0.4110460000000 1.0
C      1  0.4902050000000  0.5521610000000  0.5273950000000 1.0
C      1  0.4178980000000  0.5358110000000  0.4555770000000 1.0
C      1  0.4518080000000  0.6143130000000  0.4099320000000 1.0
C      1  0.5949680000000  0.5274590000000  0.5366970000000 1.0
C      1  0.5372500000000  0.4399950000000  0.5178880000000 1.0
C      1  0.5393930000000  0.5527490000000  0.4347620000000 1.0
C      1  0.4345720000000  0.5143970000000  0.4701270000000 1.0
C      1  0.6240050000000  0.4894380000000  0.5237830000000 1.0
C      1  0.5682780000000  0.4632830000000  0.4751700000000 1.0
C      1  0.3753090000000  0.4356770000000  0.5159130000000 1.0
C      1  0.4738690000000  0.4723910000000  0.6133190000000 1.0
C      1  0.5733260000000  0.5893860000000  0.4921380000000 1.0
C      1  0.5347330000000  0.3886400000000  0.5042680000000 1.0
C      1  0.5278550000000  0.4581580000000  0.4478830000000 1.0
C      1  0.4866540000000  0.4280560000000  0.5936870000000 1.0
C      1  0.5565660000000  0.4504480000000  0.4525300000000 1.0
C      1  0.5351870000000  0.5423670000000  0.5223170000000 1.0
C      1  0.5324810000000  0.5024280000000  0.5636020000000 1.0
C      1  0.4249970000000  0.5344220000000  0.4271720000000 1.0
C      1  0.4769870000000  0.5369410000000  0.4576510000000 1.0
C      1  0.5248440000000  0.4354530000000  0.4942100000000 1.0
C      1  0.5069060000000  0.5223150000000  0.5644270000000 1.0
C      1  0.5093740000000  0.5119740000000  0.6093660000000 1.0
C      1  0.5037340000000  0.4384400000000  0.5492130000000 1.0
C      1  0.5534590000000  0.5848650000000  0.5344730000000 1.0
C      1  0.5033050000000  0.4688620000000  0.4405970000000 1.0
C      1  0.5649430000000  0.4252220000000  0.5930580000000 1.0
C      1  0.4958100000000  0.4533120000000  0.6049800000000 1.0
C      1  0.3768280000000  0.5314090000000  0.4811810000000 1.0
C      1  0.3978130000000  0.5427600000000  0.5220110000000 1.0
C      1  0.5245070000000  0.5546990000000  0.4631450000000 1.0
C      1  0.5564480000000  0.5187850000000  0.3834930000000 1.0
C      1  0.5905930000000  0.5563770000000  0.4506980000000 1.0
C      1  0.4787740000000  0.5060330000000  0.5751520000000 1.0
C      1  0.4213540000000  0.4328520000000  0.4554450000000 1.0
C      1  0.5948540000000  0.5214730000000  0.4912620000000 1.0
C      1  0.4598210000000  0.5155210000000  0.4544900000000 1.0
C      1  0.5764880000000  0.5099620000000  0.4011820000000 1.0
C      1  0.5671810000000  0.5440890000000  0.4407150000000 1.0
C      1  0.4581620000000  0.4609610000000  0.4553100000000 1.0
C      1  0.5330960000000  0.5557020000000  0.5886830000000 1.0
C      1  0.5910170000000  0.4650450000000  0.4931970000000 1.0
C      1  0.4548460000000  0.5426200000000  0.5579920000000 1.0
C      1  0.4870720000000  0.4111040000000  0.4058750000000 1.0
C      1  0.5400200000000  0.5742320000000  0.4138790000000 1.0
C      1  0.3969920000000  0.4249390000000  0.4692260000000 1.0
C      1  0.4570220000000  0.4936420000000  0.5355130000000 1.0
C      1  0.4933450000000  0.5772150000000  0.4118600000000 1.0
C      1  0.5242780000000  0.5821770000000  0.5914630000000 1.0
C      1  0.5499850000000  0.3854990000000  0.4793720000000 1.0
C      1  0.4864030000000  0.4948190000000  0.4966510000000 1.0
C      1  0.5292620000000  0.4872810000000  0.5911640000000 1.0
C      1  0.4504620000000  0.4558780000000  0.6063690000000 1.0
C      1  0.4772650000000  0.6067080000000  0.5177540000000 1.0
C      1  0.5339650000000  0.3859150000000  0.4553600000000 1.0
C      1  0.4819840000000  0.5009490000000  0.6061800000000 1.0
C      1  0.4822890000000  0.5261460000000  0.3787320000000 1.0
C      1  0.5100850000000  0.3998830000000  0.4475550000000 1.0
C      1  0.4420370000000  0.4113430000000  0.4514780000000 1.0
C      1  0.4774650000000  0.4444030000000  0.5399710000000 1.0
C      1  0.5787030000000  0.5128830000000  0.5152440000000 1.0
C      1  0.5248990000000  0.5305360000000  0.4189400000000 1.0
C      1  0.5290520000000  0.5114380000000  0.3953900000000 1.0
C      1  0.5485280000000  0.5582360000000  0.5427570000000 1.0
C      1  0.5989660000000  0.5501770000000  0.4963230000000 1.0
C      1  0.5430570000000  0.3928080000000  0.5579290000000 1.0
C      1  0.4478180000000  0.5480700000000  0.5099770000000 1.0
C      1  0.4521120000000  0.5960070000000  0.5102060000000 1.0
C      1  0.5636310000000  0.4977070000000  0.4250430000000 1.0
C      1  0.5584570000000  0.5186340000000  0.5702740000000 1.0
C      1  0.4019890000000  0.4900350000000  0.5575510000000 1.0
END
