TITL C-599894-471-428 0.301847916308179 125000 -551.288664159483 0 0 92 (C1) n - 1
REM
REM in /home/nfs/bkarasulu/CARBON/AIRSS/Generating-Clusters/TERSOFF/Only-C1/FIRE-HFTN
REM
REM
REM
REM
REM
REM ./C.cell (11c1c37f851c82e70ff6c80c92926a4b)
REM AIRSS Version 0.9.1 bugfix July 2018 build 013d7b7c2542+ Fri, 06 Jul 2018 19:26:36 +0100
REM compiler GCC version 9.2.1 20190827 (Red Hat 9.2.1-1)
REM options -cpp -mtune=generic -march=x86-64 -g -O0 -fpre-include=/usr/include/finclude/math-vector-fortran.h
REM seed 1471412894 12688464 447409768 1386632851 -806848111 1727521416 1796356606 1844707173 2146274315 772311316 -167966157 -1262153657 356834412 730663158 -1680771322 1676923710 -339808537 785751990 -608618266 56718957 -469783073 -1091658269 -166388211 -340351456 -1899480748 -223683367 -93432558 1183215635 1485117455 -2057026376 -634597469 1369642374 -1409657592
REM
CELL 1.54180   50.00000   50.00000   50.00000   90.00000   90.00000   90.00000
LATT -1
SFAC C  
C      1  0.5085640000000  0.5229380000000  0.4690570000000 1.0
C      1  0.4633320000000  0.5834970000000  0.5200940000000 1.0
C      1  0.4696170000000  0.4674410000000  0.5696860000000 1.0
C      1  0.4304720000000  0.4624500000000  0.4699860000000 1.0
C      1  0.4900210000000  0.4322020000000  0.4799310000000 1.0
C      1  0.5588070000000  0.4501560000000  0.5239650000000 1.0
C      1  0.5742850000000  0.4758420000000  0.6217840000000 1.0
C      1  0.5488320000000  0.4939870000000  0.5551080000000 1.0
C      1  0.4537960000000  0.4873270000000  0.5025790000000 1.0
C      1  0.5102810000000  0.5619750000000  0.5284420000000 1.0
C      1  0.4161500000000  0.4873020000000  0.4648570000000 1.0
C      1  0.5767730000000  0.4653730000000  0.5101510000000 1.0
C      1  0.4609440000000  0.5110880000000  0.4913600000000 1.0
C      1  0.5819890000000  0.4814840000000  0.4869870000000 1.0
C      1  0.4933530000000  0.4175840000000  0.5051910000000 1.0
C      1  0.5743400000000  0.5268900000000  0.5051510000000 1.0
C      1  0.5141360000000  0.4337030000000  0.4635310000000 1.0
C      1  0.5516590000000  0.5179100000000  0.4186580000000 1.0
C      1  0.5456200000000  0.5330320000000  0.5019230000000 1.0
C      1  0.4117190000000  0.5040940000000  0.4890390000000 1.0
C      1  0.4949320000000  0.5059950000000  0.4500970000000 1.0
C      1  0.4064630000000  0.4872220000000  0.5124720000000 1.0
C      1  0.5325760000000  0.4975570000000  0.6100000000000 1.0
C      1  0.4978450000000  0.5398550000000  0.5412990000000 1.0
C      1  0.5336980000000  0.4226670000000  0.4818960000000 1.0
C      1  0.4483580000000  0.4750570000000  0.4020860000000 1.0
C      1  0.4153340000000  0.5919440000000  0.5180910000000 1.0
C      1  0.5135680000000  0.4858460000000  0.5204100000000 1.0
C      1  0.4808640000000  0.4578780000000  0.4854520000000 1.0
C      1  0.4744510000000  0.5792730000000  0.4543920000000 1.0
C      1  0.4541120000000  0.4657490000000  0.4846030000000 1.0
C      1  0.4727470000000  0.5194280000000  0.4360320000000 1.0
C      1  0.5672680000000  0.4738250000000  0.4379850000000 1.0
C      1  0.4211690000000  0.4382360000000  0.4615400000000 1.0
C      1  0.4799770000000  0.5254070000000  0.4090570000000 1.0
C      1  0.4681010000000  0.4964530000000  0.5735740000000 1.0
C      1  0.5228650000000  0.4200520000000  0.5093150000000 1.0
C      1  0.4734410000000  0.5350270000000  0.5285860000000 1.0
C      1  0.5235240000000  0.5674110000000  0.4331150000000 1.0
C      1  0.4229660000000  0.5326310000000  0.4915880000000 1.0
C      1  0.4991740000000  0.4840890000000  0.4079370000000 1.0
C      1  0.6053440000000  0.4517400000000  0.6566750000000 1.0
C      1  0.5902630000000  0.5430870000000  0.5218670000000 1.0
C      1  0.4750460000000  0.5326740000000  0.5007550000000 1.0
C      1  0.5623990000000  0.5345440000000  0.4405700000000 1.0
C      1  0.5612350000000  0.4912860000000  0.4182530000000 1.0
C      1  0.5581840000000  0.4886130000000  0.6028890000000 1.0
C      1  0.4474600000000  0.5136600000000  0.5619600000000 1.0
C      1  0.4302960000000  0.5451480000000  0.5186230000000 1.0
C      1  0.5854300000000  0.5108550000000  0.4843900000000 1.0
C      1  0.5040020000000  0.4810410000000  0.4365440000000 1.0
C      1  0.5565410000000  0.5750790000000  0.5253550000000 1.0
C      1  0.4997480000000  0.5781330000000  0.4445840000000 1.0
C      1  0.5631550000000  0.4757710000000  0.4656250000000 1.0
C      1  0.4459500000000  0.4537010000000  0.5621200000000 1.0
C      1  0.5898960000000  0.4636890000000  0.6394070000000 1.0
C      1  0.5137990000000  0.4558890000000  0.4458160000000 1.0
C      1  0.4993190000000  0.4737180000000  0.5010910000000 1.0
C      1  0.4236870000000  0.4027180000000  0.5181390000000 1.0
C      1  0.5674180000000  0.4922230000000  0.5760750000000 1.0
C      1  0.5226080000000  0.5551240000000  0.4073400000000 1.0
C      1  0.5821180000000  0.5675620000000  0.5300510000000 1.0
C      1  0.4134950000000  0.4647150000000  0.5265420000000 1.0
C      1  0.5473910000000  0.5584920000000  0.4463460000000 1.0
C      1  0.5339200000000  0.4367240000000  0.5300660000000 1.0
C      1  0.4266660000000  0.4844450000000  0.4148450000000 1.0
C      1  0.4698270000000  0.4164060000000  0.5210210000000 1.0
C      1  0.4948180000000  0.4542440000000  0.5646400000000 1.0
C      1  0.4937860000000  0.5421570000000  0.4828630000000 1.0
C      1  0.4749470000000  0.4725330000000  0.3985100000000 1.0
C      1  0.5242430000000  0.4993460000000  0.5429090000000 1.0
C      1  0.4320880000000  0.4458630000000  0.5385060000000 1.0
C      1  0.5075240000000  0.5182970000000  0.5561490000000 1.0
C      1  0.4374180000000  0.5444610000000  0.4675800000000 1.0
C      1  0.4484150000000  0.5266720000000  0.4479430000000 1.0
C      1  0.4933250000000  0.5089720000000  0.5791540000000 1.0
C      1  0.5821890000000  0.5236310000000  0.4584280000000 1.0
C      1  0.4360920000000  0.5740100000000  0.5187820000000 1.0
C      1  0.5280100000000  0.5270340000000  0.4042710000000 1.0
C      1  0.4585740000000  0.4831000000000  0.5285770000000 1.0
C      1  0.4135120000000  0.4921280000000  0.4371290000000 1.0
C      1  0.5942060000000  0.4943990000000  0.5708430000000 1.0
C      1  0.5320380000000  0.5155810000000  0.4824550000000 1.0
C      1  0.4469580000000  0.5309820000000  0.5390660000000 1.0
C      1  0.5041600000000  0.5117110000000  0.3999080000000 1.0
C      1  0.5164150000000  0.4439450000000  0.5517720000000 1.0
C      1  0.5081380000000  0.5051720000000  0.6025320000000 1.0
C      1  0.4905470000000  0.5820850000000  0.5222060000000 1.0
C      1  0.4509910000000  0.5698290000000  0.4647050000000 1.0
C      1  0.5359350000000  0.5572960000000  0.5166510000000 1.0
C      1  0.5403520000000  0.4898860000000  0.4746960000000 1.0
C      1  0.4419990000000  0.4217600000000  0.5257690000000 1.0
END
