TITL C-599892-9790-1072 -0.0562436886100154 125000 -759.393797663585 0 0 127 (C1) n - 1
REM
REM in /home/nfs/bkarasulu/CARBON/AIRSS/Generating-Clusters/TERSOFF/Only-C1/FIRE-HFTN
REM
REM
REM
REM
REM
REM ./C.cell (11c1c37f851c82e70ff6c80c92926a4b)
REM AIRSS Version 0.9.1 bugfix July 2018 build 013d7b7c2542+ Fri, 06 Jul 2018 19:26:36 +0100
REM compiler GCC version 9.2.1 20190827 (Red Hat 9.2.1-1)
REM options -cpp -mtune=generic -march=x86-64 -g -O0 -fpre-include=/usr/include/finclude/math-vector-fortran.h
REM seed 1603247838 -1887382501 -896856260 1311285499 876864061 507323956 -1457443751 -396607937 1725372980 338567887 -2082057863 1616509201 1578480715 657829025 1203727313 2052106693 -1691691201 -1890474794 766591324 677015692 965375223 -1175004835 -1139715096 1005345534 417941959 -782744916 1692607320 1933355195 -448823473 -1201774574 -1085363102 1457023361 273911124
REM
CELL 1.54180   50.00000   50.00000   50.00000   90.00000   90.00000   90.00000
LATT -1
SFAC C  
C      1  0.5237300000000  0.4172630000000  0.4837140000000 1.0
C      1  0.5691560000000  0.4582500000000  0.5721880000000 1.0
C      1  0.5611740000000  0.4649350000000  0.5273080000000 1.0
C      1  0.4010880000000  0.5619720000000  0.5079940000000 1.0
C      1  0.5489230000000  0.4407250000000  0.5346120000000 1.0
C      1  0.4941760000000  0.4933260000000  0.6144510000000 1.0
C      1  0.5110070000000  0.4653070000000  0.4797610000000 1.0
C      1  0.4996630000000  0.4336290000000  0.5682450000000 1.0
C      1  0.5374620000000  0.4282920000000  0.4196700000000 1.0
C      1  0.5073390000000  0.4048090000000  0.5270430000000 1.0
C      1  0.4860020000000  0.5758900000000  0.4043470000000 1.0
C      1  0.4225330000000  0.5033100000000  0.4392870000000 1.0
C      1  0.4563680000000  0.5342190000000  0.6336810000000 1.0
C      1  0.4842830000000  0.4675130000000  0.4884220000000 1.0
C      1  0.5425680000000  0.4409140000000  0.3403510000000 1.0
C      1  0.3893730000000  0.5560800000000  0.4843820000000 1.0
C      1  0.4913890000000  0.5174040000000  0.5715690000000 1.0
C      1  0.4591630000000  0.5076730000000  0.4780180000000 1.0
C      1  0.4932470000000  0.4252570000000  0.5416340000000 1.0
C      1  0.5181620000000  0.6414870000000  0.4734600000000 1.0
C      1  0.4844160000000  0.5702500000000  0.5094660000000 1.0
C      1  0.4303340000000  0.4875340000000  0.4167220000000 1.0
C      1  0.4235870000000  0.5530240000000  0.5231150000000 1.0
C      1  0.4860530000000  0.5873760000000  0.5324180000000 1.0
C      1  0.5535750000000  0.5099860000000  0.4063950000000 1.0
C      1  0.5527390000000  0.4867620000000  0.5122990000000 1.0
C      1  0.4401760000000  0.5707430000000  0.5381490000000 1.0
C      1  0.4077920000000  0.5020580000000  0.5183220000000 1.0
C      1  0.3983790000000  0.4748860000000  0.4792070000000 1.0
C      1  0.4966690000000  0.4953910000000  0.6417180000000 1.0
C      1  0.4729740000000  0.5361320000000  0.4233950000000 1.0
C      1  0.5492560000000  0.5114090000000  0.5258240000000 1.0
C      1  0.4744960000000  0.3984140000000  0.4900880000000 1.0
C      1  0.4622970000000  0.4870650000000  0.5449940000000 1.0
C      1  0.4482500000000  0.4646710000000  0.4172270000000 1.0
C      1  0.5398290000000  0.5761710000000  0.4994040000000 1.0
C      1  0.4387870000000  0.5282570000000  0.4807600000000 1.0
C      1  0.5268940000000  0.4371430000000  0.5779640000000 1.0
C      1  0.4458630000000  0.5574600000000  0.4710890000000 1.0
C      1  0.5803260000000  0.5171150000000  0.5914970000000 1.0
C      1  0.4183740000000  0.4598650000000  0.4935420000000 1.0
C      1  0.4637420000000  0.5826260000000  0.5498180000000 1.0
C      1  0.5349000000000  0.5913580000000  0.5522910000000 1.0
C      1  0.4719520000000  0.4849030000000  0.4693460000000 1.0
C      1  0.5866820000000  0.4513300000000  0.4813360000000 1.0
C      1  0.4902970000000  0.4800190000000  0.5462470000000 1.0
C      1  0.5022990000000  0.5486510000000  0.5082020000000 1.0
C      1  0.5219720000000  0.6219360000000  0.4902610000000 1.0
C      1  0.5513230000000  0.4875640000000  0.4842610000000 1.0
C      1  0.4431270000000  0.4710900000000  0.5580150000000 1.0
C      1  0.4846770000000  0.4503210000000  0.5871320000000 1.0
C      1  0.5942300000000  0.5162170000000  0.5424060000000 1.0
C      1  0.4168430000000  0.4718870000000  0.5204510000000 1.0
C      1  0.5711250000000  0.4727610000000  0.4707660000000 1.0
C      1  0.4479760000000  0.4157480000000  0.5291360000000 1.0
C      1  0.4240110000000  0.4569160000000  0.5431580000000 1.0
C      1  0.5316840000000  0.5756660000000  0.4328620000000 1.0
C      1  0.5267960000000  0.4386280000000  0.4411040000000 1.0
C      1  0.5931540000000  0.5251450000000  0.5692570000000 1.0
C      1  0.4830620000000  0.4821220000000  0.4434620000000 1.0
C      1  0.6151040000000  0.4768700000000  0.5171630000000 1.0
C      1  0.5692170000000  0.5382920000000  0.4469600000000 1.0
C      1  0.4927010000000  0.5308270000000  0.4027500000000 1.0
C      1  0.5638830000000  0.5714710000000  0.5136990000000 1.0
C      1  0.5059500000000  0.4961660000000  0.4330950000000 1.0
C      1  0.5766130000000  0.5417490000000  0.4740630000000 1.0
C      1  0.5249000000000  0.4908650000000  0.4753410000000 1.0
C      1  0.4707380000000  0.5627180000000  0.5979340000000 1.0
C      1  0.4633060000000  0.4087060000000  0.4659940000000 1.0
C      1  0.4856370000000  0.5161390000000  0.5990600000000 1.0
C      1  0.5078000000000  0.5554330000000  0.3986560000000 1.0
C      1  0.5274320000000  0.5412730000000  0.4679610000000 1.0
C      1  0.3898610000000  0.5092130000000  0.5416600000000 1.0
C      1  0.4547770000000  0.3944020000000  0.5112570000000 1.0
C      1  0.5336270000000  0.4548270000000  0.3604920000000 1.0
C      1  0.5241230000000  0.4693860000000  0.3825610000000 1.0
C      1  0.3916220000000  0.4985170000000  0.4924240000000 1.0
C      1  0.5347040000000  0.5564820000000  0.4117810000000 1.0
C      1  0.6008950000000  0.4882350000000  0.5389970000000 1.0
C      1  0.4475630000000  0.4321120000000  0.4619740000000 1.0
C      1  0.5321160000000  0.5949700000000  0.5792140000000 1.0
C      1  0.4967960000000  0.4642440000000  0.3904930000000 1.0
C      1  0.4788750000000  0.5295520000000  0.5471520000000 1.0
C      1  0.4713530000000  0.4630020000000  0.3999630000000 1.0
C      1  0.5550180000000  0.4722690000000  0.5936820000000 1.0
C      1  0.3944580000000  0.5393190000000  0.4636880000000 1.0
C      1  0.6088430000000  0.4597500000000  0.4970730000000 1.0
C      1  0.4421980000000  0.4464520000000  0.4864600000000 1.0
C      1  0.4197620000000  0.4945850000000  0.3922720000000 1.0
C      1  0.5050810000000  0.5066520000000  0.4073150000000 1.0
C      1  0.4168370000000  0.5219860000000  0.4601880000000 1.0
C      1  0.4319720000000  0.5239760000000  0.5162400000000 1.0
C      1  0.5541540000000  0.5351880000000  0.4204330000000 1.0
C      1  0.5318120000000  0.3915060000000  0.5323750000000 1.0
C      1  0.4856640000000  0.5328850000000  0.4507140000000 1.0
C      1  0.5240280000000  0.5148210000000  0.5382330000000 1.0
C      1  0.5741670000000  0.5263320000000  0.5242910000000 1.0
C      1  0.5136760000000  0.5972970000000  0.5333440000000 1.0
C      1  0.4564100000000  0.5144580000000  0.5356060000000 1.0
C      1  0.5506910000000  0.4363940000000  0.5628040000000 1.0
C      1  0.5016420000000  0.4050480000000  0.4982160000000 1.0
C      1  0.5123940000000  0.5153280000000  0.4569700000000 1.0
C      1  0.5200880000000  0.4407470000000  0.4681690000000 1.0
C      1  0.4891580000000  0.5619840000000  0.4585550000000 1.0
C      1  0.5735290000000  0.4261730000000  0.4836790000000 1.0
C      1  0.5426650000000  0.4880850000000  0.3945090000000 1.0
C      1  0.5015420000000  0.4688740000000  0.6021990000000 1.0
C      1  0.5595940000000  0.5812860000000  0.5405250000000 1.0
C      1  0.4675720000000  0.5793550000000  0.5773840000000 1.0
C      1  0.4703360000000  0.4346310000000  0.5265020000000 1.0
C      1  0.5511650000000  0.4104660000000  0.4915860000000 1.0
C      1  0.4643680000000  0.5655540000000  0.4223200000000 1.0
C      1  0.4258130000000  0.4284480000000  0.5411310000000 1.0
C      1  0.5023250000000  0.5321190000000  0.5299360000000 1.0
C      1  0.4666590000000  0.4508160000000  0.5026180000000 1.0
C      1  0.4627850000000  0.5712930000000  0.4514720000000 1.0
C      1  0.4711140000000  0.5377660000000  0.6108890000000 1.0
C      1  0.5650230000000  0.4973040000000  0.6012040000000 1.0
C      1  0.5262500000000  0.5514100000000  0.4942750000000 1.0
C      1  0.4442950000000  0.4445650000000  0.4369100000000 1.0
C      1  0.5522260000000  0.3930950000000  0.5142670000000 1.0
C      1  0.5761830000000  0.5468920000000  0.5040640000000 1.0
C      1  0.5097840000000  0.4980430000000  0.5576180000000 1.0
C      1  0.5804640000000  0.4710060000000  0.5487710000000 1.0
C      1  0.5170620000000  0.5655170000000  0.4541290000000 1.0
C      1  0.5288160000000  0.4603340000000  0.5969880000000 1.0
C      1  0.5250600000000  0.5996820000000  0.5065060000000 1.0
END
