TITL C-599896-8500-587 0.329677916537041 125000 -500.015126822057 0 0 83 (C1) n - 1
REM
REM in /home/nfs/bkarasulu/CARBON/AIRSS/Generating-Clusters/TERSOFF/Only-C1/FIRE-HFTN
REM
REM
REM
REM
REM
REM ./C.cell (11c1c37f851c82e70ff6c80c92926a4b)
REM AIRSS Version 0.9.1 bugfix July 2018 build 013d7b7c2542+ Fri, 06 Jul 2018 19:26:36 +0100
REM compiler GCC version 9.2.1 20190827 (Red Hat 9.2.1-1)
REM options -cpp -mtune=generic -march=x86-64 -g -O0 -fpre-include=/usr/include/finclude/math-vector-fortran.h
REM seed 2053262329 1417166555 826003408 -839818732 -1169743122 -840773061 -801941281 -1599090859 -993140202 1850762025 -1016009406 1014228199 1469800190 -790973565 -400290967 2085567894 180184342 -842905114 1179994485 1888030137 1748287634 957399274 -283599520 1655944927 -270676369 225433523 -552711289 1441334609 1717823123 1239749216 -815763715 1189536490 741595494
REM
CELL 1.54180   50.00000   50.00000   50.00000   90.00000   90.00000   90.00000
LATT -1
SFAC C  
C      1  0.4644760000000  0.4987450000000  0.5223280000000 1.0
C      1  0.4759650000000  0.4639020000000  0.4781050000000 1.0
C      1  0.5072770000000  0.4128650000000  0.4449990000000 1.0
C      1  0.4642240000000  0.5597390000000  0.4404270000000 1.0
C      1  0.5202600000000  0.4165940000000  0.4698470000000 1.0
C      1  0.4960280000000  0.5431410000000  0.5680060000000 1.0
C      1  0.5037910000000  0.4068680000000  0.4919350000000 1.0
C      1  0.5073720000000  0.4788430000000  0.5240890000000 1.0
C      1  0.4169140000000  0.4826900000000  0.5031990000000 1.0
C      1  0.5165670000000  0.5068520000000  0.4335450000000 1.0
C      1  0.4572010000000  0.4128630000000  0.4524630000000 1.0
C      1  0.5907550000000  0.5228290000000  0.5179490000000 1.0
C      1  0.5465950000000  0.5024980000000  0.4817870000000 1.0
C      1  0.5839440000000  0.4738510000000  0.5047570000000 1.0
C      1  0.4721440000000  0.4544470000000  0.5061460000000 1.0
C      1  0.5023980000000  0.5279510000000  0.4200430000000 1.0
C      1  0.4467090000000  0.5034230000000  0.4740330000000 1.0
C      1  0.4725490000000  0.4863750000000  0.5996600000000 1.0
C      1  0.4151830000000  0.5119070000000  0.5129240000000 1.0
C      1  0.5005880000000  0.4783260000000  0.4758980000000 1.0
C      1  0.5637340000000  0.5755120000000  0.4779150000000 1.0
C      1  0.4470290000000  0.4295990000000  0.4726410000000 1.0
C      1  0.4561740000000  0.4276610000000  0.5033090000000 1.0
C      1  0.5521360000000  0.4404310000000  0.5232310000000 1.0
C      1  0.4351940000000  0.5202070000000  0.4549600000000 1.0
C      1  0.5434000000000  0.4829520000000  0.4612140000000 1.0
C      1  0.5341970000000  0.4423350000000  0.5713880000000 1.0
C      1  0.5397400000000  0.5683040000000  0.4670460000000 1.0
C      1  0.5416660000000  0.5283220000000  0.4906800000000 1.0
C      1  0.5902940000000  0.4875320000000  0.4517380000000 1.0
C      1  0.5291720000000  0.6120820000000  0.6281970000000 1.0
C      1  0.4932550000000  0.5378510000000  0.5191800000000 1.0
C      1  0.5786260000000  0.4494880000000  0.5189090000000 1.0
C      1  0.5271040000000  0.5929610000000  0.6105980000000 1.0
C      1  0.4243130000000  0.4955770000000  0.3518680000000 1.0
C      1  0.4275440000000  0.5184090000000  0.5388590000000 1.0
C      1  0.5404460000000  0.4364230000000  0.4760980000000 1.0
C      1  0.5231400000000  0.5529420000000  0.5736350000000 1.0
C      1  0.5160540000000  0.5249180000000  0.5296260000000 1.0
C      1  0.4809080000000  0.4094100000000  0.4400640000000 1.0
C      1  0.5771080000000  0.4973940000000  0.5216820000000 1.0
C      1  0.4556560000000  0.5147980000000  0.5450030000000 1.0
C      1  0.4257580000000  0.5015430000000  0.3772050000000 1.0
C      1  0.5257170000000  0.5445750000000  0.4730230000000 1.0
C      1  0.4830160000000  0.5463790000000  0.4259370000000 1.0
C      1  0.5007190000000  0.5296680000000  0.4723030000000 1.0
C      1  0.4766830000000  0.5213200000000  0.5649500000000 1.0
C      1  0.5591790000000  0.5171220000000  0.5656420000000 1.0
C      1  0.4323480000000  0.4794200000000  0.4783950000000 1.0
C      1  0.4867150000000  0.4981730000000  0.5788410000000 1.0
C      1  0.5176600000000  0.4701390000000  0.4994830000000 1.0
C      1  0.5485630000000  0.5439340000000  0.5618780000000 1.0
C      1  0.5835990000000  0.4699070000000  0.4749670000000 1.0
C      1  0.4428860000000  0.5659860000000  0.4591150000000 1.0
C      1  0.5561700000000  0.5505790000000  0.5344990000000 1.0
C      1  0.4273340000000  0.5076570000000  0.4029460000000 1.0
C      1  0.5728650000000  0.4976540000000  0.4317280000000 1.0
C      1  0.4162440000000  0.4583380000000  0.5184310000000 1.0
C      1  0.5386800000000  0.5360740000000  0.5172950000000 1.0
C      1  0.4588870000000  0.4749280000000  0.6186710000000 1.0
C      1  0.5119610000000  0.4885140000000  0.5696700000000 1.0
C      1  0.4792850000000  0.4747790000000  0.5245450000000 1.0
C      1  0.5250400000000  0.5735350000000  0.5927020000000 1.0
C      1  0.4825780000000  0.5315770000000  0.4938610000000 1.0
C      1  0.4335340000000  0.6164690000000  0.4754650000000 1.0
C      1  0.4792070000000  0.4078880000000  0.5039190000000 1.0
C      1  0.5549590000000  0.4980570000000  0.5429560000000 1.0
C      1  0.4299620000000  0.5140740000000  0.4285060000000 1.0
C      1  0.5437440000000  0.4323210000000  0.5485470000000 1.0
C      1  0.5344480000000  0.4472900000000  0.5020410000000 1.0
C      1  0.5811870000000  0.5677430000000  0.4972620000000 1.0
C      1  0.4308520000000  0.4350210000000  0.5186320000000 1.0
C      1  0.4142330000000  0.5348280000000  0.4937380000000 1.0
C      1  0.5811160000000  0.5499860000000  0.5196220000000 1.0
C      1  0.4380590000000  0.5921420000000  0.4672890000000 1.0
C      1  0.5233640000000  0.4650500000000  0.5804030000000 1.0
C      1  0.5030130000000  0.5030670000000  0.4598900000000 1.0
C      1  0.5573180000000  0.4579600000000  0.4656770000000 1.0
C      1  0.4271950000000  0.5438910000000  0.4688560000000 1.0
C      1  0.4486980000000  0.4583200000000  0.4680140000000 1.0
C      1  0.5437560000000  0.4957450000000  0.4349980000000 1.0
C      1  0.4630190000000  0.5115190000000  0.4960310000000 1.0
C      1  0.5226160000000  0.4970100000000  0.5420900000000 1.0
END
