TITL C-599893-4344-220 -21509.7357831433 125000 -757.616668885448 0 0 126 (C1) n - 1
REM
REM in /home/nfs/bkarasulu/CARBON/AIRSS/Generating-Clusters/TERSOFF/Only-C1/FIRE-HFTN
REM
REM
REM
REM
REM
REM ./C.cell (11c1c37f851c82e70ff6c80c92926a4b)
REM AIRSS Version 0.9.1 bugfix July 2018 build 013d7b7c2542+ Fri, 06 Jul 2018 19:26:36 +0100
REM compiler GCC version 9.2.1 20190827 (Red Hat 9.2.1-1)
REM options -cpp -mtune=generic -march=x86-64 -g -O0 -fpre-include=/usr/include/finclude/math-vector-fortran.h
REM seed 1884195643 -1506734641 -321174636 1161479141 -1420920301 2107325607 -1192065703 -473131910 -942821009 1972301926 646798525 -2112392212 720501024 428414082 -61248667 -1665253110 -627476127 2042295207 400794201 1006505797 -1684362460 1485869808 -331855015 -1974057364 -860470148 -1528014070 274000728 -282911349 1220665124 1265322416 -1616689774 -2012535468 -717733690
REM
CELL 1.54180   50.00000   50.00000   50.00000   90.00000   90.00000   90.00000
LATT -1
SFAC C  
C      1  0.5341080000000  0.5281800000000  0.4050120000000 1.0
C      1  0.5295400000000  0.5170050000000  0.5707110000000 1.0
C      1  0.5723800000000  0.5646760000000  0.5377680000000 1.0
C      1  0.5746640000000  0.5160730000000  0.4632750000000 1.0
C      1  0.4378640000000  0.5621340000000  0.4573730000000 1.0
C      1  0.4012500000000  0.4944400000000  0.5484440000000 1.0
C      1  0.4430620000000  0.5513450000000  0.5628330000000 1.0
C      1  0.4880870000000  0.5121590000000  0.5989120000000 1.0
C      1  0.4105520000000  0.5430610000000  0.5313330000000 1.0
C      1  0.5873340000000  0.5398120000000  0.5351630000000 1.0
C      1  0.4869650000000  0.5189140000000  0.4471370000000 1.0
C      1  0.4788160000000  0.5913860000000  0.4406060000000 1.0
C      1  0.6011880000000  0.5279220000000  0.5136950000000 1.0
C      1  0.5532940000000  0.4880920000000  0.4208860000000 1.0
C      1  0.4613090000000  0.4649330000000  0.4150160000000 1.0
C      1  0.4119110000000  0.4772840000000  0.4987850000000 1.0
C      1  0.4696290000000  0.5389920000000  0.4010850000000 1.0
C      1  0.5766590000000  0.4362190000000  0.5376060000000 1.0
C      1  0.4587240000000  0.4905570000000  0.5210740000000 1.0
C      1  0.4916810000000  0.5369350000000  0.6666340000000 1.0
C      1  0.4354680000000  0.4770390000000  0.4157130000000 1.0
C      1  0.5125700000000  0.4327660000000  0.4191900000000 1.0
C      1  0.5299890000000  0.4382800000000  0.5337640000000 1.0
C      1  0.5528960000000  0.5327260000000  0.5668810000000 1.0
C      1  0.4958410000000  0.4962140000000  0.3880120000000 1.0
C      1  0.5456600000000  0.4434970000000  0.4523220000000 1.0
C      1  0.4145320000000  0.5116360000000  0.5675660000000 1.0
C      1  0.4796350000000  0.4768870000000  0.3969570000000 1.0
C      1  0.5530950000000  0.4770000000000  0.5548110000000 1.0
C      1  0.5923840000000  0.5964620000000  0.5068600000000 1.0
C      1  0.5260760000000  0.4522920000000  0.4338150000000 1.0
C      1  0.5699300000000  0.4677970000000  0.4829010000000 1.0
C      1  0.5536690000000  0.5348810000000  0.4707900000000 1.0
C      1  0.4319270000000  0.4351040000000  0.4806720000000 1.0
C      1  0.4227150000000  0.5383720000000  0.4510060000000 1.0
C      1  0.5571270000000  0.5114940000000  0.4056770000000 1.0
C      1  0.5527050000000  0.4494840000000  0.5480610000000 1.0
C      1  0.4535200000000  0.4758160000000  0.4677970000000 1.0
C      1  0.5303690000000  0.5436530000000  0.4553630000000 1.0
C      1  0.4952390000000  0.5209560000000  0.6463570000000 1.0
C      1  0.4161980000000  0.5394910000000  0.5601590000000 1.0
C      1  0.4659970000000  0.5574840000000  0.5782860000000 1.0
C      1  0.6138270000000  0.6043540000000  0.4943260000000 1.0
C      1  0.4546370000000  0.4589700000000  0.5249000000000 1.0
C      1  0.5714900000000  0.4442320000000  0.4394610000000 1.0
C      1  0.5937030000000  0.4821470000000  0.5281540000000 1.0
C      1  0.4979440000000  0.6062850000000  0.4552110000000 1.0
C      1  0.5287760000000  0.4920850000000  0.5565500000000 1.0
C      1  0.5665170000000  0.4121830000000  0.5240940000000 1.0
C      1  0.4882380000000  0.4238270000000  0.4297710000000 1.0
C      1  0.5276630000000  0.4039750000000  0.4909790000000 1.0
C      1  0.4713350000000  0.4462970000000  0.4350970000000 1.0
C      1  0.4714940000000  0.5869010000000  0.5146620000000 1.0
C      1  0.5427440000000  0.4558050000000  0.4788160000000 1.0
C      1  0.4888730000000  0.4033900000000  0.4500160000000 1.0
C      1  0.5319640000000  0.5459220000000  0.4269280000000 1.0
C      1  0.4180970000000  0.4978980000000  0.4232090000000 1.0
C      1  0.5125830000000  0.5170520000000  0.3905410000000 1.0
C      1  0.5382120000000  0.5008030000000  0.4987040000000 1.0
C      1  0.4175810000000  0.5046800000000  0.4915460000000 1.0
C      1  0.5271540000000  0.4809630000000  0.4324990000000 1.0
C      1  0.5488040000000  0.5262170000000  0.4979180000000 1.0
C      1  0.4100150000000  0.5161140000000  0.4669190000000 1.0
C      1  0.4437840000000  0.5856880000000  0.5065300000000 1.0
C      1  0.5089140000000  0.4582450000000  0.5244670000000 1.0
C      1  0.4960670000000  0.5912120000000  0.5315340000000 1.0
C      1  0.4297490000000  0.4582260000000  0.5421450000000 1.0
C      1  0.4359050000000  0.5361420000000  0.5187660000000 1.0
C      1  0.4246680000000  0.5263580000000  0.4238280000000 1.0
C      1  0.5105880000000  0.4957500000000  0.4509280000000 1.0
C      1  0.4358290000000  0.5026690000000  0.5842700000000 1.0
C      1  0.4393600000000  0.4140930000000  0.4626590000000 1.0
C      1  0.4400650000000  0.5108160000000  0.5079160000000 1.0
C      1  0.4919900000000  0.5488020000000  0.5644090000000 1.0
C      1  0.4815720000000  0.4470260000000  0.5324190000000 1.0
C      1  0.4729420000000  0.4547450000000  0.4628160000000 1.0
C      1  0.5802550000000  0.5177580000000  0.3927410000000 1.0
C      1  0.4631030000000  0.5017190000000  0.4591180000000 1.0
C      1  0.4286450000000  0.4371400000000  0.5607940000000 1.0
C      1  0.4435180000000  0.4147520000000  0.5636440000000 1.0
C      1  0.5147550000000  0.4553820000000  0.4931340000000 1.0
C      1  0.4819140000000  0.5009840000000  0.5368470000000 1.0
C      1  0.4842960000000  0.5825860000000  0.4895370000000 1.0
C      1  0.5315700000000  0.5776800000000  0.5634390000000 1.0
C      1  0.4631630000000  0.3977990000000  0.4633010000000 1.0
C      1  0.5017550000000  0.5390470000000  0.4661460000000 1.0
C      1  0.4829120000000  0.5321430000000  0.5389300000000 1.0
C      1  0.5446020000000  0.5989570000000  0.5149490000000 1.0
C      1  0.5758420000000  0.5202670000000  0.5540540000000 1.0
C      1  0.5531390000000  0.5606620000000  0.5592320000000 1.0
C      1  0.5051000000000  0.5746890000000  0.5540220000000 1.0
C      1  0.4014970000000  0.4963420000000  0.4468610000000 1.0
C      1  0.5968430000000  0.5009630000000  0.5056430000000 1.0
C      1  0.5153310000000  0.4986610000000  0.4817260000000 1.0
C      1  0.4275890000000  0.4634030000000  0.4771060000000 1.0
C      1  0.4614310000000  0.5043370000000  0.5925390000000 1.0
C      1  0.4902630000000  0.4420780000000  0.4831120000000 1.0
C      1  0.5819920000000  0.4944270000000  0.4811090000000 1.0
C      1  0.5930950000000  0.4537630000000  0.5222480000000 1.0
C      1  0.5384350000000  0.4149280000000  0.5158620000000 1.0
C      1  0.4094290000000  0.4744000000000  0.5293000000000 1.0
C      1  0.4341750000000  0.5764940000000  0.4822600000000 1.0
C      1  0.4994740000000  0.5368000000000  0.5148780000000 1.0
C      1  0.4705940000000  0.3920360000000  0.4901820000000 1.0
C      1  0.5898260000000  0.4241910000000  0.4398920000000 1.0
C      1  0.4858390000000  0.5605940000000  0.4747410000000 1.0
C      1  0.5768610000000  0.4922430000000  0.5491980000000 1.0
C      1  0.4827920000000  0.4135680000000  0.5030100000000 1.0
C      1  0.5738230000000  0.4684060000000  0.4244140000000 1.0
C      1  0.5129160000000  0.4804550000000  0.6263410000000 1.0
C      1  0.4988000000000  0.5044560000000  0.6241200000000 1.0
C      1  0.4554460000000  0.5436930000000  0.5369510000000 1.0
C      1  0.5889840000000  0.4497850000000  0.4944740000000 1.0
C      1  0.4654930000000  0.4056000000000  0.5507730000000 1.0
C      1  0.5130560000000  0.4000000000000  0.4675740000000 1.0
C      1  0.5050660000000  0.5272000000000  0.5809920000000 1.0
C      1  0.4450370000000  0.4358140000000  0.5057720000000 1.0
C      1  0.4805470000000  0.4182930000000  0.5307540000000 1.0
C      1  0.5039760000000  0.6024520000000  0.4837770000000 1.0
C      1  0.5070200000000  0.4854270000000  0.5390220000000 1.0
C      1  0.4729920000000  0.5415020000000  0.4280480000000 1.0
C      1  0.4625170000000  0.5664530000000  0.4409680000000 1.0
C      1  0.5697080000000  0.5866600000000  0.5199420000000 1.0
C      1  0.5013300000000  0.5225080000000  0.4908700000000 1.0
C      1  0.5266370000000  0.4583130000000  0.6255300000000 1.0
C      1  0.5169710000000  0.6028690000000  0.5108270000000 1.0
END
