TITL C-599897-7526-1166 0.463846276034173 125000 -331.614509636329 0 0 56 (C1) n - 1
REM
REM in /home/nfs/bkarasulu/CARBON/AIRSS/Generating-Clusters/TERSOFF/Only-C1/FIRE-HFTN
REM
REM
REM
REM
REM
REM ./C.cell (11c1c37f851c82e70ff6c80c92926a4b)
REM AIRSS Version 0.9.1 bugfix July 2018 build 013d7b7c2542+ Fri, 06 Jul 2018 19:26:36 +0100
REM compiler GCC version 9.2.1 20190827 (Red Hat 9.2.1-1)
REM options -cpp -mtune=generic -march=x86-64 -g -O0 -fpre-include=/usr/include/finclude/math-vector-fortran.h
REM seed -377822358 1276025624 -301988034 -1499717265 973416158 -2013896974 -480082594 75492989 1490249789 -1854539316 561173945 689179131 -275907006 -1833484728 554791166 -201323614 86216902 857119392 1737795789 1962036365 40035184 -65705891 -2027964948 -2010372238 1031088248 1247974445 -1125834125 -1033148271 -339723166 1831253122 1296321588 -750008574 1229435151
REM
CELL 1.54180   50.00000   50.00000   50.00000   90.00000   90.00000   90.00000
LATT -1
SFAC C  
C      1  0.5685020000000  0.4905790000000  0.4916200000000 1.0
C      1  0.5221020000000  0.5632360000000  0.5298180000000 1.0
C      1  0.5450070000000  0.5472970000000  0.5397190000000 1.0
C      1  0.4416480000000  0.4790950000000  0.4817570000000 1.0
C      1  0.5376710000000  0.5393730000000  0.4393110000000 1.0
C      1  0.4763370000000  0.3533260000000  0.4567390000000 1.0
C      1  0.4945170000000  0.5640610000000  0.5396520000000 1.0
C      1  0.5166790000000  0.4220540000000  0.4687130000000 1.0
C      1  0.5394580000000  0.4317930000000  0.4546330000000 1.0
C      1  0.5226920000000  0.5109860000000  0.5063510000000 1.0
C      1  0.4798040000000  0.5401140000000  0.5441720000000 1.0
C      1  0.4480470000000  0.3093480000000  0.4512740000000 1.0
C      1  0.4528810000000  0.5911040000000  0.5413430000000 1.0
C      1  0.4887440000000  0.5015500000000  0.4584950000000 1.0
C      1  0.4743860000000  0.5135050000000  0.5042900000000 1.0
C      1  0.5133960000000  0.5474940000000  0.4474590000000 1.0
C      1  0.4289300000000  0.5030330000000  0.4837190000000 1.0
C      1  0.4626790000000  0.4092830000000  0.5352440000000 1.0
C      1  0.4802310000000  0.4425130000000  0.4962140000000 1.0
C      1  0.4505450000000  0.5738680000000  0.4844570000000 1.0
C      1  0.4331380000000  0.5536860000000  0.4789060000000 1.0
C      1  0.5071120000000  0.4884790000000  0.4441320000000 1.0
C      1  0.5472170000000  0.5412250000000  0.5670670000000 1.0
C      1  0.4969910000000  0.5469250000000  0.4705560000000 1.0
C      1  0.4745880000000  0.5799110000000  0.4984900000000 1.0
C      1  0.4761380000000  0.5835810000000  0.5271960000000 1.0
C      1  0.5316860000000  0.4966490000000  0.5723550000000 1.0
C      1  0.4620750000000  0.3311550000000  0.4539830000000 1.0
C      1  0.5429400000000  0.5194440000000  0.5843870000000 1.0
C      1  0.5229900000000  0.5741020000000  0.5029690000000 1.0
C      1  0.5112850000000  0.4926350000000  0.5244750000000 1.0
C      1  0.5041990000000  0.3979330000000  0.4631140000000 1.0
C      1  0.4842020000000  0.5218470000000  0.4778800000000 1.0
C      1  0.4272670000000  0.5298760000000  0.4935730000000 1.0
C      1  0.5437560000000  0.5889680000000  0.4933950000000 1.0
C      1  0.5312530000000  0.4770020000000  0.4422560000000 1.0
C      1  0.4848930000000  0.4896990000000  0.5157910000000 1.0
C      1  0.5596730000000  0.5302790000000  0.5210850000000 1.0
C      1  0.5752960000000  0.5045110000000  0.5183710000000 1.0
C      1  0.4300430000000  0.5773850000000  0.5457540000000 1.0
C      1  0.4988890000000  0.5691440000000  0.4879480000000 1.0
C      1  0.5306450000000  0.4552960000000  0.5001700000000 1.0
C      1  0.5592350000000  0.5143480000000  0.4761730000000 1.0
C      1  0.4607730000000  0.4600070000000  0.4844080000000 1.0
C      1  0.5082460000000  0.4400800000000  0.4897000000000 1.0
C      1  0.5574150000000  0.5248360000000  0.4504710000000 1.0
C      1  0.4344310000000  0.5337870000000  0.5213360000000 1.0
C      1  0.4708310000000  0.4255470000000  0.5165870000000 1.0
C      1  0.5527820000000  0.4671060000000  0.4851920000000 1.0
C      1  0.4905230000000  0.3755240000000  0.4596070000000 1.0
C      1  0.4219420000000  0.5528870000000  0.5378250000000 1.0
C      1  0.5472880000000  0.4591830000000  0.4572800000000 1.0
C      1  0.5435660000000  0.5271080000000  0.4967840000000 1.0
C      1  0.4621120000000  0.5287500000000  0.5250930000000 1.0
C      1  0.5492470000000  0.5203990000000  0.6108760000000 1.0
C      1  0.5210760000000  0.4870930000000  0.5498380000000 1.0
END
