TITL C-599890-3321-499 0.358988789212687 125000 -110.824861661754 0 0 21 (C1) n - 1
REM
REM in /home/nfs/bkarasulu/CARBON/AIRSS/Generating-Clusters/TERSOFF/Only-C1/FIRE-HFTN
REM
REM
REM
REM
REM
REM ./C.cell (11c1c37f851c82e70ff6c80c92926a4b)
REM AIRSS Version 0.9.1 bugfix July 2018 build 013d7b7c2542+ Fri, 06 Jul 2018 19:26:36 +0100
REM compiler GCC version 9.2.1 20190827 (Red Hat 9.2.1-1)
REM options -cpp -mtune=generic -march=x86-64 -g -O0 -fpre-include=/usr/include/finclude/math-vector-fortran.h
REM seed 1897753979 -1432332523 -750938353 51356123 -1132924158 -1762638817 -286107554 1050568992 -1851795618 895921675 165523356 1627696724 -819972995 -1820875507 473123167 -1090145988 -1073243592 1644886573 -599775319 534852627 702196057 1953272607 -10311602 -2064921936 -1834765093 1938040785 -1456463670 1338499516 -857728391 1607474474 2012475358 1847175163 1198573680
REM
CELL 1.54180   50.00000   50.00000   50.00000   90.00000   90.00000   90.00000
LATT -1
SFAC C  
C      1  0.5489180000000  0.5327580000000  0.5362850000000 1.0
C      1  0.4392330000000  0.5581680000000  0.4314400000000 1.0
C      1  0.4372150000000  0.4405700000000  0.4365900000000 1.0
C      1  0.5459590000000  0.4964740000000  0.4980690000000 1.0
C      1  0.5231540000000  0.5322260000000  0.5486970000000 1.0
C      1  0.4967770000000  0.4760320000000  0.5006390000000 1.0
C      1  0.4933500000000  0.4954830000000  0.5235520000000 1.0
C      1  0.4522460000000  0.5103040000000  0.4488380000000 1.0
C      1  0.5873010000000  0.5664370000000  0.5537940000000 1.0
C      1  0.4933100000000  0.4477590000000  0.5099000000000 1.0
C      1  0.5687560000000  0.5501850000000  0.5453560000000 1.0
C      1  0.5036420000000  0.5144540000000  0.5390970000000 1.0
C      1  0.5541480000000  0.5155260000000  0.5147830000000 1.0
C      1  0.5251750000000  0.4810070000000  0.4916490000000 1.0
C      1  0.4476440000000  0.4621730000000  0.4467760000000 1.0
C      1  0.5174180000000  0.5487990000000  0.5697180000000 1.0
C      1  0.4775830000000  0.4425360000000  0.5317830000000 1.0
C      1  0.4456900000000  0.5344320000000  0.4400720000000 1.0
C      1  0.4592040000000  0.4849140000000  0.4581570000000 1.0
C      1  0.5055600000000  0.4275260000000  0.4959470000000 1.0
C      1  0.4777160000000  0.4822340000000  0.4788580000000 1.0
END
