TITL C-599896-8500-933 -706.595321442655 125000 -1098.63317181392 0 0 180 (C1) n - 1
REM
REM in /home/nfs/bkarasulu/CARBON/AIRSS/Generating-Clusters/TERSOFF/Only-C1/FIRE-HFTN
REM
REM
REM
REM
REM
REM ./C.cell (11c1c37f851c82e70ff6c80c92926a4b)
REM AIRSS Version 0.9.1 bugfix July 2018 build 013d7b7c2542+ Fri, 06 Jul 2018 19:26:36 +0100
REM compiler GCC version 9.2.1 20190827 (Red Hat 9.2.1-1)
REM options -cpp -mtune=generic -march=x86-64 -g -O0 -fpre-include=/usr/include/finclude/math-vector-fortran.h
REM seed -560317741 -2051823627 -427333149 -865451638 552344176 1369940198 -716280605 1501455371 -958175986 -1596170606 996282587 394167555 1208084201 127030421 -1113846971 -2015311161 -1536046417 1146786416 -499974019 970565915 -1784061512 -1085626827 -2003672290 1333734861 988343645 647035655 262608323 1068332566 1923209409 -1065589825 -1927876344 1354673698 1846817607
REM
CELL 1.54180   50.00000   50.00000   50.00000   90.00000   90.00000   90.00000
LATT -1
SFAC C  
C      1  0.4880940000000  0.4743110000000  0.3761520000000 1.0
C      1  0.5549820000000  0.5907410000000  0.5075880000000 1.0
C      1  0.5048090000000  0.3921340000000  0.5465630000000 1.0
C      1  0.4423410000000  0.4977950000000  0.5794940000000 1.0
C      1  0.4740500000000  0.4841450000000  0.4606890000000 1.0
C      1  0.4597050000000  0.4501670000000  0.5425990000000 1.0
C      1  0.6266140000000  0.5503660000000  0.5265750000000 1.0
C      1  0.5250540000000  0.4995660000000  0.4177590000000 1.0
C      1  0.4392600000000  0.6033380000000  0.4949650000000 1.0
C      1  0.4505340000000  0.4794520000000  0.6007610000000 1.0
C      1  0.4158560000000  0.5450230000000  0.5210200000000 1.0
C      1  0.3827870000000  0.5666160000000  0.4861980000000 1.0
C      1  0.4914130000000  0.5235290000000  0.5670080000000 1.0
C      1  0.5465840000000  0.4512480000000  0.5881110000000 1.0
C      1  0.5331320000000  0.5252800000000  0.3813640000000 1.0
C      1  0.5708980000000  0.4742320000000  0.4208850000000 1.0
C      1  0.5190030000000  0.4069570000000  0.4386160000000 1.0
C      1  0.4689010000000  0.6095850000000  0.4934530000000 1.0
C      1  0.4076530000000  0.5669480000000  0.4704900000000 1.0
C      1  0.3812750000000  0.5127000000000  0.5377590000000 1.0
C      1  0.3805940000000  0.4865060000000  0.5215290000000 1.0
C      1  0.4274070000000  0.5888940000000  0.4708270000000 1.0
C      1  0.4905430000000  0.3678700000000  0.4499750000000 1.0
C      1  0.6046170000000  0.5667270000000  0.5196340000000 1.0
C      1  0.5470290000000  0.5702920000000  0.4230910000000 1.0
C      1  0.5521910000000  0.4508910000000  0.4919450000000 1.0
C      1  0.4298140000000  0.5414700000000  0.5691610000000 1.0
C      1  0.4711580000000  0.5589460000000  0.4247670000000 1.0
C      1  0.5713200000000  0.4411940000000  0.5430730000000 1.0
C      1  0.5045840000000  0.4346540000000  0.4008560000000 1.0
C      1  0.4421920000000  0.5606990000000  0.5517410000000 1.0
C      1  0.4557910000000  0.5388850000000  0.4645570000000 1.0
C      1  0.5388750000000  0.5303410000000  0.5410440000000 1.0
C      1  0.5472920000000  0.5517010000000  0.5801120000000 1.0
C      1  0.5354860000000  0.4420370000000  0.4695230000000 1.0
C      1  0.5265570000000  0.4155300000000  0.4649590000000 1.0
C      1  0.5221570000000  0.4642470000000  0.5434520000000 1.0
C      1  0.4787020000000  0.5824950000000  0.4893060000000 1.0
C      1  0.4682500000000  0.5630910000000  0.5062920000000 1.0
C      1  0.5008370000000  0.4697960000000  0.5043760000000 1.0
C      1  0.6068350000000  0.4795030000000  0.4545810000000 1.0
C      1  0.4000720000000  0.5258090000000  0.5589390000000 1.0
C      1  0.5477640000000  0.3745890000000  0.5204730000000 1.0
C      1  0.4234910000000  0.5704510000000  0.5314260000000 1.0
C      1  0.4651220000000  0.4575810000000  0.4717400000000 1.0
C      1  0.6084210000000  0.5603260000000  0.4682280000000 1.0
C      1  0.5278020000000  0.4399740000000  0.5312800000000 1.0
C      1  0.3881540000000  0.4631640000000  0.5026190000000 1.0
C      1  0.5204330000000  0.6121580000000  0.4850010000000 1.0
C      1  0.4808490000000  0.5204960000000  0.3600130000000 1.0
C      1  0.4496400000000  0.4059380000000  0.4475440000000 1.0
C      1  0.4981950000000  0.4302910000000  0.5851580000000 1.0
C      1  0.5863550000000  0.5219870000000  0.5626190000000 1.0
C      1  0.4139050000000  0.5036830000000  0.4987590000000 1.0
C      1  0.5727240000000  0.4452780000000  0.4250010000000 1.0
C      1  0.5754890000000  0.5355940000000  0.4831090000000 1.0
C      1  0.5835570000000  0.5687170000000  0.5406630000000 1.0
C      1  0.5922100000000  0.4603680000000  0.5431600000000 1.0
C      1  0.5422970000000  0.4837830000000  0.5384610000000 1.0
C      1  0.4859450000000  0.3982750000000  0.5259210000000 1.0
C      1  0.4340100000000  0.5237270000000  0.4560630000000 1.0
C      1  0.6141790000000  0.6230870000000  0.4785530000000 1.0
C      1  0.5197400000000  0.4550190000000  0.5978880000000 1.0
C      1  0.6039220000000  0.5425410000000  0.4478840000000 1.0
C      1  0.5297500000000  0.5060680000000  0.6105610000000 1.0
C      1  0.5959800000000  0.6044700000000  0.4868260000000 1.0
C      1  0.4405350000000  0.5942870000000  0.4451360000000 1.0
C      1  0.4104860000000  0.5372080000000  0.4638900000000 1.0
C      1  0.4035190000000  0.4643220000000  0.4750770000000 1.0
C      1  0.4769910000000  0.4317400000000  0.4128920000000 1.0
C      1  0.5659020000000  0.3823580000000  0.5023290000000 1.0
C      1  0.4146480000000  0.3973960000000  0.5645160000000 1.0
C      1  0.4525440000000  0.6073840000000  0.5415680000000 1.0
C      1  0.5125120000000  0.4091530000000  0.5690950000000 1.0
C      1  0.4054700000000  0.3740530000000  0.5715850000000 1.0
C      1  0.4275960000000  0.4817420000000  0.4837120000000 1.0
C      1  0.4156600000000  0.4692550000000  0.5508210000000 1.0
C      1  0.5446120000000  0.5230480000000  0.5145780000000 1.0
C      1  0.4664090000000  0.5829490000000  0.4398070000000 1.0
C      1  0.4958690000000  0.4171630000000  0.5066530000000 1.0
C      1  0.4539440000000  0.4513850000000  0.5995960000000 1.0
C      1  0.4820600000000  0.5137310000000  0.5202600000000 1.0
C      1  0.4741150000000  0.6035410000000  0.5601010000000 1.0
C      1  0.5101880000000  0.5025410000000  0.5664820000000 1.0
C      1  0.3961510000000  0.5222110000000  0.4844490000000 1.0
C      1  0.4279000000000  0.6104360000000  0.4262110000000 1.0
C      1  0.5580150000000  0.4334710000000  0.5684830000000 1.0
C      1  0.4335820000000  0.4560560000000  0.4282600000000 1.0
C      1  0.4096380000000  0.4423480000000  0.5435140000000 1.0
C      1  0.5508270000000  0.5397170000000  0.4934750000000 1.0
C      1  0.5000670000000  0.5915110000000  0.5550250000000 1.0
C      1  0.4982830000000  0.5427480000000  0.6066630000000 1.0
C      1  0.6276730000000  0.5263400000000  0.5384200000000 1.0
C      1  0.5256950000000  0.5006650000000  0.3676760000000 1.0
C      1  0.4764300000000  0.5398630000000  0.4455140000000 1.0
C      1  0.5110870000000  0.4557730000000  0.3817830000000 1.0
C      1  0.5462720000000  0.6259690000000  0.4806260000000 1.0
C      1  0.6142600000000  0.4819210000000  0.5065240000000 1.0
C      1  0.5298020000000  0.5268850000000  0.4102060000000 1.0
C      1  0.5790830000000  0.5500160000000  0.5640080000000 1.0
C      1  0.5014030000000  0.4769100000000  0.5575160000000 1.0
C      1  0.5797200000000  0.3956660000000  0.4836140000000 1.0
C      1  0.4329760000000  0.5963990000000  0.5226850000000 1.0
C      1  0.4880870000000  0.4443440000000  0.5073880000000 1.0
C      1  0.5189590000000  0.4608680000000  0.4560700000000 1.0
C      1  0.5261640000000  0.4219140000000  0.4152720000000 1.0
C      1  0.4846390000000  0.5830850000000  0.4616150000000 1.0
C      1  0.4988270000000  0.4872930000000  0.4202620000000 1.0
C      1  0.4913300000000  0.4833190000000  0.6277430000000 1.0
C      1  0.5268590000000  0.5345370000000  0.6037620000000 1.0
C      1  0.6067010000000  0.5092970000000  0.5465900000000 1.0
C      1  0.5347590000000  0.4748870000000  0.3811760000000 1.0
C      1  0.4434260000000  0.4966210000000  0.4606040000000 1.0
C      1  0.6038170000000  0.5769220000000  0.4917630000000 1.0
C      1  0.4910690000000  0.5058210000000  0.4749450000000 1.0
C      1  0.4467040000000  0.4601890000000  0.4938670000000 1.0
C      1  0.3669810000000  0.5326080000000  0.5219740000000 1.0
C      1  0.4129410000000  0.4556880000000  0.4476300000000 1.0
C      1  0.4715200000000  0.5408150000000  0.3746310000000 1.0
C      1  0.5152810000000  0.4804660000000  0.6128670000000 1.0
C      1  0.4481300000000  0.5257790000000  0.5848200000000 1.0
C      1  0.4968110000000  0.4737500000000  0.4444940000000 1.0
C      1  0.3947870000000  0.4401980000000  0.5193480000000 1.0
C      1  0.4961810000000  0.4979010000000  0.5020040000000 1.0
C      1  0.3762900000000  0.5402960000000  0.4965820000000 1.0
C      1  0.4751750000000  0.4702600000000  0.5539190000000 1.0
C      1  0.4442750000000  0.3945100000000  0.4715210000000 1.0
C      1  0.5876580000000  0.4128300000000  0.4646130000000 1.0
C      1  0.5402620000000  0.5057090000000  0.5591250000000 1.0
C      1  0.4661450000000  0.5578340000000  0.5351830000000 1.0
C      1  0.5221990000000  0.5446970000000  0.4562140000000 1.0
C      1  0.6047310000000  0.4836990000000  0.5331810000000 1.0
C      1  0.4655400000000  0.3818910000000  0.5149350000000 1.0
C      1  0.4686100000000  0.4320690000000  0.5845320000000 1.0
C      1  0.4300300000000  0.4933710000000  0.5527020000000 1.0
C      1  0.5663130000000  0.5051240000000  0.5743290000000 1.0
C      1  0.4592420000000  0.3765050000000  0.4877450000000 1.0
C      1  0.5490980000000  0.6041000000000  0.5527630000000 1.0
C      1  0.5263780000000  0.3757600000000  0.5367150000000 1.0
C      1  0.5867730000000  0.4313310000000  0.4451890000000 1.0
C      1  0.5948250000000  0.5205100000000  0.4343760000000 1.0
C      1  0.5528340000000  0.4298320000000  0.4119270000000 1.0
C      1  0.4768820000000  0.4782820000000  0.4026440000000 1.0
C      1  0.4525430000000  0.4292340000000  0.5601840000000 1.0
C      1  0.4718020000000  0.4091810000000  0.4301430000000 1.0
C      1  0.4970820000000  0.4978310000000  0.3621620000000 1.0
C      1  0.5688100000000  0.6108760000000  0.4913520000000 1.0
C      1  0.4881820000000  0.5411570000000  0.5439110000000 1.0
C      1  0.4159770000000  0.6250650000000  0.4082410000000 1.0
C      1  0.5735630000000  0.4907310000000  0.5963710000000 1.0
C      1  0.5536990000000  0.4388860000000  0.5188360000000 1.0
C      1  0.6148300000000  0.4784480000000  0.4800760000000 1.0
C      1  0.5463160000000  0.4818500000000  0.4074500000000 1.0
C      1  0.5414670000000  0.4102040000000  0.5708570000000 1.0
C      1  0.4606120000000  0.4485760000000  0.5151530000000 1.0
C      1  0.4251570000000  0.4217970000000  0.5565450000000 1.0
C      1  0.5071680000000  0.5637150000000  0.5510490000000 1.0
C      1  0.5492760000000  0.4947590000000  0.5134110000000 1.0
C      1  0.4990320000000  0.5283860000000  0.4582920000000 1.0
C      1  0.5630040000000  0.5878720000000  0.5344850000000 1.0
C      1  0.5121000000000  0.4060600000000  0.4867790000000 1.0
C      1  0.4945190000000  0.3924490000000  0.4366970000000 1.0
C      1  0.5229650000000  0.6080670000000  0.5577050000000 1.0
C      1  0.5909800000000  0.4918380000000  0.4341730000000 1.0
C      1  0.4941390000000  0.6238800000000  0.4905450000000 1.0
C      1  0.4694970000000  0.6119120000000  0.5860070000000 1.0
C      1  0.4287600000000  0.5151080000000  0.5227980000000 1.0
C      1  0.4692850000000  0.5540610000000  0.3976190000000 1.0
C      1  0.5306760000000  0.5837950000000  0.4918480000000 1.0
C      1  0.5321810000000  0.5530060000000  0.5565980000000 1.0
C      1  0.5324780000000  0.5571030000000  0.4801700000000 1.0
C      1  0.5557420000000  0.4793780000000  0.4911280000000 1.0
C      1  0.4597710000000  0.4560170000000  0.4136580000000 1.0
C      1  0.5570950000000  0.4921090000000  0.4671300000000 1.0
C      1  0.4769770000000  0.3605430000000  0.4722060000000 1.0
C      1  0.4563590000000  0.5196000000000  0.5115430000000 1.0
C      1  0.4657180000000  0.4897040000000  0.6224480000000 1.0
C      1  0.4765450000000  0.5320850000000  0.5899240000000 1.0
C      1  0.4579720000000  0.5409230000000  0.4923240000000 1.0
C      1  0.5333830000000  0.5474390000000  0.4296710000000 1.0
END
