TITL C-599893-4344-322 3.39377219923351 125000 -882.806313631364 0 0 146 (C1) n - 1
REM
REM in /home/nfs/bkarasulu/CARBON/AIRSS/Generating-Clusters/TERSOFF/Only-C1/FIRE-HFTN
REM
REM
REM
REM
REM
REM ./C.cell (11c1c37f851c82e70ff6c80c92926a4b)
REM AIRSS Version 0.9.1 bugfix July 2018 build 013d7b7c2542+ Fri, 06 Jul 2018 19:26:36 +0100
REM compiler GCC version 9.2.1 20190827 (Red Hat 9.2.1-1)
REM options -cpp -mtune=generic -march=x86-64 -g -O0 -fpre-include=/usr/include/finclude/math-vector-fortran.h
REM seed 682693739 1596770606 -826015563 825272056 1512876121 -37459268 -1062183121 1984599520 -1210526385 -1271300099 -311525241 1619488264 215677913 -1684469224 -961183194 1748296450 -523310743 -1171239790 512152087 -263804170 -4439472 1891914507 -1470819069 2133468271 1259447204 -419502593 824787486 1441047957 1352810841 657592686 1860189969 -1938673506 450278482
REM
CELL 1.54180   50.00000   50.00000   50.00000   90.00000   90.00000   90.00000
LATT -1
SFAC C  
C      1  0.4872990000000  0.4906950000000  0.6158510000000 1.0
C      1  0.5712910000000  0.5008700000000  0.4126650000000 1.0
C      1  0.4285740000000  0.5940110000000  0.5613010000000 1.0
C      1  0.5009980000000  0.5858750000000  0.5557310000000 1.0
C      1  0.6074880000000  0.4842340000000  0.5102890000000 1.0
C      1  0.5257230000000  0.6116540000000  0.4900300000000 1.0
C      1  0.4930050000000  0.5622910000000  0.3753090000000 1.0
C      1  0.5958740000000  0.5304310000000  0.4940630000000 1.0
C      1  0.5091860000000  0.4696950000000  0.5286650000000 1.0
C      1  0.4138590000000  0.5228120000000  0.5173250000000 1.0
C      1  0.4681590000000  0.4508260000000  0.5878930000000 1.0
C      1  0.4047290000000  0.5204050000000  0.5679960000000 1.0
C      1  0.4868140000000  0.5402230000000  0.3585830000000 1.0
C      1  0.4662640000000  0.5372970000000  0.5722370000000 1.0
C      1  0.4601610000000  0.5546030000000  0.5955100000000 1.0
C      1  0.4348470000000  0.4101200000000  0.5049010000000 1.0
C      1  0.5302990000000  0.4936050000000  0.5846080000000 1.0
C      1  0.5583280000000  0.4654470000000  0.4819490000000 1.0
C      1  0.5193860000000  0.4639340000000  0.4579270000000 1.0
C      1  0.5068580000000  0.5203460000000  0.3564370000000 1.0
C      1  0.4270540000000  0.4866770000000  0.5439610000000 1.0
C      1  0.5087800000000  0.5841360000000  0.3672290000000 1.0
C      1  0.5178770000000  0.4007140000000  0.4487520000000 1.0
C      1  0.4891480000000  0.5166230000000  0.4906250000000 1.0
C      1  0.4228330000000  0.4119730000000  0.4331320000000 1.0
C      1  0.4775160000000  0.6004360000000  0.5626350000000 1.0
C      1  0.4326220000000  0.5827030000000  0.5080120000000 1.0
C      1  0.4909060000000  0.5333660000000  0.4454200000000 1.0
C      1  0.4935530000000  0.5174110000000  0.6076570000000 1.0
C      1  0.5153540000000  0.4675880000000  0.5832360000000 1.0
C      1  0.4134080000000  0.5640190000000  0.5074790000000 1.0
C      1  0.5737290000000  0.4917110000000  0.6079470000000 1.0
C      1  0.4805000000000  0.4603650000000  0.3864150000000 1.0
C      1  0.5727340000000  0.4717660000000  0.4127530000000 1.0
C      1  0.4637170000000  0.4620150000000  0.5277590000000 1.0
C      1  0.4266550000000  0.4240460000000  0.5284460000000 1.0
C      1  0.4565980000000  0.4798740000000  0.4255260000000 1.0
C      1  0.5619260000000  0.5010990000000  0.5157080000000 1.0
C      1  0.5009640000000  0.5350450000000  0.5308440000000 1.0
C      1  0.4737240000000  0.3920840000000  0.4812790000000 1.0
C      1  0.4029970000000  0.4403790000000  0.5252890000000 1.0
C      1  0.5472420000000  0.5781690000000  0.5681890000000 1.0
C      1  0.4985840000000  0.6105870000000  0.4918520000000 1.0
C      1  0.3967070000000  0.4533810000000  0.4996050000000 1.0
C      1  0.4915190000000  0.3915510000000  0.4577890000000 1.0
C      1  0.5770120000000  0.4217170000000  0.4933150000000 1.0
C      1  0.5133010000000  0.4248260000000  0.4067250000000 1.0
C      1  0.5155200000000  0.4261620000000  0.4866880000000 1.0
C      1  0.5490060000000  0.5034570000000  0.6034350000000 1.0
C      1  0.4469270000000  0.4024980000000  0.4803120000000 1.0
C      1  0.4917830000000  0.4369000000000  0.3966220000000 1.0
C      1  0.5970360000000  0.4803200000000  0.6104290000000 1.0
C      1  0.4921300000000  0.5568760000000  0.4030060000000 1.0
C      1  0.4386670000000  0.5510010000000  0.6121030000000 1.0
C      1  0.5017740000000  0.4487270000000  0.4733540000000 1.0
C      1  0.4527160000000  0.5404340000000  0.4980590000000 1.0
C      1  0.5323580000000  0.4080010000000  0.4721300000000 1.0
C      1  0.5145070000000  0.5379910000000  0.6129160000000 1.0
C      1  0.5129010000000  0.4975160000000  0.3716780000000 1.0
C      1  0.4585360000000  0.4748640000000  0.3978650000000 1.0
C      1  0.5632240000000  0.5919690000000  0.5224920000000 1.0
C      1  0.5828270000000  0.5512670000000  0.5452030000000 1.0
C      1  0.5359560000000  0.5407040000000  0.4172520000000 1.0
C      1  0.4507320000000  0.5372220000000  0.4711360000000 1.0
C      1  0.5806130000000  0.5688650000000  0.5215340000000 1.0
C      1  0.5909920000000  0.5569430000000  0.4979310000000 1.0
C      1  0.5154740000000  0.5121790000000  0.5678900000000 1.0
C      1  0.4336200000000  0.4060410000000  0.4561020000000 1.0
C      1  0.4142670000000  0.5719690000000  0.5674060000000 1.0
C      1  0.5066110000000  0.5431750000000  0.4232110000000 1.0
C      1  0.5088650000000  0.5637320000000  0.6000630000000 1.0
C      1  0.5956330000000  0.4410720000000  0.4803890000000 1.0
C      1  0.4196120000000  0.5444940000000  0.5645130000000 1.0
C      1  0.4892700000000  0.5208150000000  0.5783100000000 1.0
C      1  0.5470120000000  0.5157410000000  0.4063170000000 1.0
C      1  0.5031490000000  0.4712200000000  0.5556460000000 1.0
C      1  0.5355510000000  0.4609040000000  0.5238650000000 1.0
C      1  0.4586800000000  0.4799090000000  0.4753610000000 1.0
C      1  0.4816070000000  0.5708540000000  0.6042870000000 1.0
C      1  0.5518660000000  0.4364580000000  0.4378830000000 1.0
C      1  0.5203940000000  0.4893850000000  0.4466380000000 1.0
C      1  0.5377120000000  0.5090370000000  0.4596430000000 1.0
C      1  0.5301760000000  0.5316240000000  0.4758440000000 1.0
C      1  0.4900850000000  0.4666580000000  0.5998870000000 1.0
C      1  0.5253210000000  0.4995820000000  0.3969630000000 1.0
C      1  0.6131970000000  0.4978160000000  0.4384040000000 1.0
C      1  0.5165800000000  0.4201000000000  0.5137060000000 1.0
C      1  0.4967880000000  0.4746550000000  0.3681700000000 1.0
C      1  0.5352660000000  0.5416240000000  0.5023340000000 1.0
C      1  0.5945750000000  0.5118720000000  0.4245920000000 1.0
C      1  0.4949670000000  0.4172680000000  0.5544600000000 1.0
C      1  0.4700790000000  0.4296350000000  0.5660670000000 1.0
C      1  0.5450950000000  0.4536390000000  0.4602350000000 1.0
C      1  0.5384810000000  0.4314660000000  0.5312390000000 1.0
C      1  0.4529070000000  0.6002630000000  0.5484580000000 1.0
C      1  0.5536570000000  0.5981100000000  0.5487200000000 1.0
C      1  0.5119410000000  0.4902500000000  0.4199380000000 1.0
C      1  0.4433100000000  0.4909370000000  0.3803710000000 1.0
C      1  0.5944840000000  0.5254000000000  0.5407530000000 1.0
C      1  0.5766920000000  0.4484280000000  0.4297640000000 1.0
C      1  0.4420300000000  0.4775310000000  0.5224140000000 1.0
C      1  0.5911670000000  0.5087320000000  0.5149840000000 1.0
C      1  0.5241560000000  0.4257250000000  0.5590580000000 1.0
C      1  0.5213440000000  0.5185470000000  0.5417410000000 1.0
C      1  0.5322310000000  0.5936230000000  0.3764360000000 1.0
C      1  0.4095250000000  0.5028860000000  0.5899530000000 1.0
C      1  0.5198960000000  0.5756580000000  0.5757500000000 1.0
C      1  0.3909310000000  0.4820740000000  0.5022620000000 1.0
C      1  0.4457020000000  0.5385670000000  0.5515550000000 1.0
C      1  0.4834740000000  0.5956950000000  0.5106810000000 1.0
C      1  0.5019410000000  0.5803650000000  0.5271850000000 1.0
C      1  0.4815190000000  0.4640060000000  0.4852940000000 1.0
C      1  0.5021690000000  0.5316320000000  0.4716200000000 1.0
C      1  0.5298900000000  0.4420800000000  0.5814330000000 1.0
C      1  0.5535250000000  0.4753440000000  0.5077560000000 1.0
C      1  0.4126640000000  0.5009900000000  0.4960650000000 1.0
C      1  0.5598700000000  0.4055440000000  0.4773420000000 1.0
C      1  0.4406530000000  0.5338080000000  0.5228820000000 1.0
C      1  0.4422300000000  0.4616580000000  0.5938760000000 1.0
C      1  0.5490310000000  0.5855390000000  0.3958040000000 1.0
C      1  0.5666400000000  0.5575340000000  0.5676930000000 1.0
C      1  0.3815970000000  0.4861690000000  0.5324510000000 1.0
C      1  0.5299010000000  0.4183980000000  0.4284170000000 1.0
C      1  0.5491670000000  0.6037030000000  0.5008370000000 1.0
C      1  0.3878890000000  0.4575780000000  0.5436280000000 1.0
C      1  0.5501290000000  0.5647570000000  0.4127690000000 1.0
C      1  0.3534540000000  0.4950250000000  0.5359970000000 1.0
C      1  0.6079790000000  0.4598640000000  0.4986280000000 1.0
C      1  0.4556370000000  0.5951430000000  0.5198370000000 1.0
C      1  0.4238050000000  0.4810390000000  0.5968440000000 1.0
C      1  0.5402300000000  0.5269400000000  0.6168070000000 1.0
C      1  0.5425860000000  0.5205690000000  0.5221140000000 1.0
C      1  0.4955140000000  0.4060100000000  0.5269560000000 1.0
C      1  0.4865990000000  0.4656960000000  0.5130020000000 1.0
C      1  0.4451380000000  0.4244190000000  0.5509590000000 1.0
C      1  0.5971900000000  0.4502250000000  0.4515480000000 1.0
C      1  0.4031390000000  0.5059280000000  0.5419210000000 1.0
C      1  0.4591480000000  0.4939190000000  0.4497950000000 1.0
C      1  0.5663140000000  0.4240600000000  0.5205380000000 1.0
C      1  0.5128190000000  0.5567540000000  0.5161560000000 1.0
C      1  0.4380790000000  0.4864120000000  0.4949610000000 1.0
C      1  0.4826300000000  0.3888190000000  0.5085810000000 1.0
C      1  0.6150950000000  0.4723660000000  0.4472710000000 1.0
C      1  0.4638030000000  0.5228000000000  0.4500300000000 1.0
C      1  0.4601980000000  0.5317660000000  0.3552470000000 1.0
C      1  0.4441450000000  0.5124350000000  0.3645010000000 1.0
END
