TITL C-599893-4344-347 -0.00223361957670385 125000 -469.512425729292 0 0 78 (C1) n - 1
REM
REM in /home/nfs/bkarasulu/CARBON/AIRSS/Generating-Clusters/TERSOFF/Only-C1/FIRE-HFTN
REM
REM
REM
REM
REM
REM ./C.cell (11c1c37f851c82e70ff6c80c92926a4b)
REM AIRSS Version 0.9.1 bugfix July 2018 build 013d7b7c2542+ Fri, 06 Jul 2018 19:26:36 +0100
REM compiler GCC version 9.2.1 20190827 (Red Hat 9.2.1-1)
REM options -cpp -mtune=generic -march=x86-64 -g -O0 -fpre-include=/usr/include/finclude/math-vector-fortran.h
REM seed 616883396 479721607 -1023833316 -374616348 -1835156915 496128801 -54995368 286148667 924927410 298551788 -2129738533 1555072294 -1327646572 2133722887 -1050825802 1628578188 175665588 434730583 -401866342 -897747400 -516450278 -177423171 -125339655 -203424267 763550198 437389952 -1190858064 1730258516 1120546644 739993070 -524827233 -591264939 -143806974
REM
CELL 1.54180   50.00000   50.00000   50.00000   90.00000   90.00000   90.00000
LATT -1
SFAC C  
C      1  0.4037920000000  0.5062480000000  0.5121590000000 1.0
C      1  0.4627390000000  0.5231360000000  0.4834380000000 1.0
C      1  0.5663450000000  0.4718390000000  0.4486050000000 1.0
C      1  0.4857820000000  0.4448480000000  0.5924620000000 1.0
C      1  0.5584610000000  0.5319170000000  0.5748290000000 1.0
C      1  0.4542440000000  0.4557650000000  0.4544220000000 1.0
C      1  0.4415170000000  0.5335440000000  0.6108190000000 1.0
C      1  0.5299450000000  0.4991160000000  0.5963550000000 1.0
C      1  0.4510960000000  0.5506700000000  0.4127500000000 1.0
C      1  0.4771950000000  0.5496050000000  0.5718650000000 1.0
C      1  0.5638450000000  0.4893750000000  0.4707420000000 1.0
C      1  0.5719250000000  0.5460730000000  0.4024280000000 1.0
C      1  0.4256410000000  0.4647810000000  0.5199190000000 1.0
C      1  0.5247290000000  0.4738170000000  0.6074810000000 1.0
C      1  0.5077320000000  0.5166720000000  0.5951350000000 1.0
C      1  0.5525600000000  0.5531270000000  0.5599370000000 1.0
C      1  0.5539460000000  0.5051170000000  0.5818280000000 1.0
C      1  0.5753890000000  0.4793230000000  0.5445810000000 1.0
C      1  0.4824330000000  0.5256260000000  0.5876470000000 1.0
C      1  0.4315060000000  0.4523710000000  0.4954650000000 1.0
C      1  0.5277240000000  0.5575060000000  0.5156490000000 1.0
C      1  0.4891340000000  0.4908830000000  0.5104390000000 1.0
C      1  0.4028590000000  0.5053770000000  0.4851490000000 1.0
C      1  0.4456180000000  0.5429370000000  0.4376420000000 1.0
C      1  0.5703170000000  0.4655630000000  0.5206660000000 1.0
C      1  0.5875730000000  0.4710680000000  0.5906680000000 1.0
C      1  0.4369160000000  0.4033420000000  0.5028660000000 1.0
C      1  0.5721090000000  0.4851850000000  0.5720810000000 1.0
C      1  0.5211300000000  0.5395840000000  0.4971770000000 1.0
C      1  0.5155670000000  0.5964970000000  0.4559630000000 1.0
C      1  0.5559930000000  0.4400830000000  0.5220360000000 1.0
C      1  0.4625910000000  0.5689940000000  0.5870530000000 1.0
C      1  0.5446260000000  0.5251870000000  0.4411520000000 1.0
C      1  0.5130980000000  0.5760580000000  0.4399890000000 1.0
C      1  0.4426910000000  0.5014580000000  0.5736650000000 1.0
C      1  0.5128480000000  0.4904930000000  0.4947750000000 1.0
C      1  0.4865390000000  0.3902430000000  0.4412400000000 1.0
C      1  0.5466410000000  0.5120460000000  0.4660670000000 1.0
C      1  0.4733470000000  0.4677630000000  0.4380890000000 1.0
C      1  0.4449750000000  0.5603720000000  0.6062260000000 1.0
C      1  0.4980640000000  0.4781770000000  0.4298910000000 1.0
C      1  0.5474100000000  0.4607220000000  0.4329900000000 1.0
C      1  0.5593970000000  0.4772630000000  0.4961100000000 1.0
C      1  0.5308350000000  0.4415860000000  0.5079380000000 1.0
C      1  0.5212000000000  0.4621830000000  0.4275320000000 1.0
C      1  0.5250090000000  0.5148010000000  0.4849060000000 1.0
C      1  0.5019880000000  0.5059090000000  0.4272810000000 1.0
C      1  0.4707450000000  0.5567970000000  0.3956930000000 1.0
C      1  0.4856980000000  0.4299180000000  0.5239860000000 1.0
C      1  0.4561890000000  0.5148100000000  0.5947600000000 1.0
C      1  0.4698940000000  0.5116910000000  0.5078560000000 1.0
C      1  0.4907030000000  0.4765130000000  0.5351330000000 1.0
C      1  0.4165880000000  0.4900550000000  0.4676890000000 1.0
C      1  0.4587430000000  0.5216020000000  0.5321180000000 1.0
C      1  0.5451930000000  0.5746200000000  0.3385110000000 1.0
C      1  0.4795400000000  0.4509740000000  0.5415270000000 1.0
C      1  0.5155420000000  0.5636390000000  0.3750390000000 1.0
C      1  0.6010830000000  0.4577040000000  0.6085010000000 1.0
C      1  0.5627740000000  0.5570120000000  0.3799280000000 1.0
C      1  0.4986820000000  0.5587030000000  0.3967060000000 1.0
C      1  0.4702190000000  0.5438880000000  0.5451380000000 1.0
C      1  0.4418950000000  0.4262430000000  0.4891440000000 1.0
C      1  0.5091450000000  0.4865080000000  0.5527610000000 1.0
C      1  0.5402460000000  0.5628970000000  0.5384830000000 1.0
C      1  0.4712580000000  0.4082740000000  0.4522160000000 1.0
C      1  0.4740350000000  0.4450550000000  0.5684450000000 1.0
C      1  0.4520490000000  0.5347480000000  0.4620940000000 1.0
C      1  0.4341730000000  0.4685260000000  0.4709310000000 1.0
C      1  0.4567380000000  0.4284760000000  0.4643610000000 1.0
C      1  0.4208340000000  0.4911840000000  0.5291910000000 1.0
C      1  0.5660410000000  0.5343990000000  0.4256830000000 1.0
C      1  0.5183750000000  0.5284820000000  0.4301270000000 1.0
C      1  0.5102690000000  0.5545200000000  0.4224390000000 1.0
C      1  0.4395880000000  0.5047420000000  0.5457340000000 1.0
C      1  0.5063430000000  0.4544180000000  0.6065820000000 1.0
C      1  0.5307760000000  0.4684520000000  0.4969080000000 1.0
C      1  0.5083540000000  0.4255850000000  0.5103390000000 1.0
C      1  0.5412690000000  0.5653180000000  0.3638690000000 1.0
END
