TITL C-599896-8500-1192 3.41775714406114 125000 -191.9881460535 0 0 33 (C1) n - 1
REM
REM in /home/nfs/bkarasulu/CARBON/AIRSS/Generating-Clusters/TERSOFF/Only-C1/FIRE-HFTN
REM
REM
REM
REM
REM
REM ./C.cell (11c1c37f851c82e70ff6c80c92926a4b)
REM AIRSS Version 0.9.1 bugfix July 2018 build 013d7b7c2542+ Fri, 06 Jul 2018 19:26:36 +0100
REM compiler GCC version 9.2.1 20190827 (Red Hat 9.2.1-1)
REM options -cpp -mtune=generic -march=x86-64 -g -O0 -fpre-include=/usr/include/finclude/math-vector-fortran.h
REM seed -1405721239 1001064430 200051419 -487266820 -1644307600 477101228 -1693850243 751703185 -1996245246 -940506718 904398566 36660177 1505776663 -587036383 -571985012 -71709851 738272599 1786889001 986177926 -1414841601 -227830040 955172937 -381400731 225330257 -1489647286 977020342 -1036307746 1104481174 -244227540 539640834 -361020649 -1127291456 -1084208078
REM
CELL 1.54180   50.00000   50.00000   50.00000   90.00000   90.00000   90.00000
LATT -1
SFAC C  
C      1  0.5375850000000  0.5389250000000  0.5025920000000 1.0
C      1  0.4464610000000  0.5202870000000  0.5366330000000 1.0
C      1  0.4961580000000  0.4889590000000  0.4805370000000 1.0
C      1  0.4677110000000  0.4930570000000  0.4745220000000 1.0
C      1  0.4565740000000  0.5335740000000  0.4212250000000 1.0
C      1  0.4982180000000  0.4852670000000  0.5094580000000 1.0
C      1  0.4929570000000  0.5474450000000  0.4505480000000 1.0
C      1  0.5222110000000  0.4728540000000  0.5962850000000 1.0
C      1  0.5162220000000  0.4869380000000  0.4623300000000 1.0
C      1  0.5533070000000  0.5785860000000  0.4804200000000 1.0
C      1  0.5760800000000  0.4568250000000  0.4905860000000 1.0
C      1  0.4550210000000  0.4784850000000  0.4962610000000 1.0
C      1  0.4602360000000  0.4973540000000  0.5405230000000 1.0
C      1  0.5247330000000  0.4810940000000  0.5709870000000 1.0
C      1  0.5333370000000  0.5171830000000  0.5172190000000 1.0
C      1  0.4200560000000  0.5327100000000  0.3511070000000 1.0
C      1  0.4713030000000  0.4810660000000  0.5204380000000 1.0
C      1  0.5148600000000  0.5553380000000  0.4632940000000 1.0
C      1  0.5280760000000  0.4508410000000  0.6105310000000 1.0
C      1  0.5400160000000  0.4280160000000  0.6026780000000 1.0
C      1  0.4443710000000  0.5333130000000  0.3977190000000 1.0
C      1  0.5355000000000  0.5579070000000  0.4820810000000 1.0
C      1  0.4433330000000  0.5325380000000  0.4878690000000 1.0
C      1  0.5211770000000  0.4928310000000  0.5238750000000 1.0
C      1  0.5496060000000  0.4211460000000  0.5785380000000 1.0
C      1  0.5633190000000  0.4551570000000  0.5132480000000 1.0
C      1  0.4396100000000  0.5338660000000  0.5144210000000 1.0
C      1  0.5317690000000  0.4762180000000  0.5442370000000 1.0
C      1  0.4690910000000  0.5334430000000  0.4461060000000 1.0
C      1  0.4581190000000  0.5190000000000  0.4679030000000 1.0
C      1  0.5518920000000  0.4323580000000  0.5543850000000 1.0
C      1  0.5489780000000  0.4544120000000  0.5372280000000 1.0
C      1  0.4321130000000  0.5330090000000  0.3742190000000 1.0
END
