TITL C-599890-3321-1154 -67647.4850446949 125000 -1083.95309834338 0 0 177 (C1) n - 1
REM
REM in /home/nfs/bkarasulu/CARBON/AIRSS/Generating-Clusters/TERSOFF/Only-C1/FIRE-HFTN
REM
REM
REM
REM
REM
REM ./C.cell (11c1c37f851c82e70ff6c80c92926a4b)
REM AIRSS Version 0.9.1 bugfix July 2018 build 013d7b7c2542+ Fri, 06 Jul 2018 19:26:36 +0100
REM compiler GCC version 9.2.1 20190827 (Red Hat 9.2.1-1)
REM options -cpp -mtune=generic -march=x86-64 -g -O0 -fpre-include=/usr/include/finclude/math-vector-fortran.h
REM seed -513569783 1807511134 1778436165 1991534562 -1640313015 346677242 982466558 -1962470640 1381216083 1804834120 -330880134 -1393886594 -748318574 1175177844 864415858 -388648115 -1851152497 943283576 2034044767 -168618953 2029000625 1330166995 557258856 -1877119841 775453356 842462047 425994749 -400557139 -499800662 -1618093895 1145855336 -1334806082 626566794
REM
CELL 1.54180   50.00000   50.00000   50.00000   90.00000   90.00000   90.00000
LATT -1
SFAC C  
C      1  0.4976440000000  0.4340420000000  0.6157310000000 1.0
C      1  0.4483650000000  0.5044830000000  0.4698820000000 1.0
C      1  0.5166790000000  0.4452140000000  0.6310830000000 1.0
C      1  0.4885500000000  0.4789050000000  0.5375420000000 1.0
C      1  0.3849600000000  0.4207010000000  0.5734210000000 1.0
C      1  0.5337220000000  0.4763720000000  0.5893530000000 1.0
C      1  0.5039830000000  0.4508700000000  0.4097310000000 1.0
C      1  0.5358010000000  0.6118830000000  0.4525230000000 1.0
C      1  0.5378090000000  0.4620570000000  0.6334070000000 1.0
C      1  0.6112380000000  0.5271620000000  0.4947470000000 1.0
C      1  0.4758120000000  0.5295530000000  0.4995870000000 1.0
C      1  0.5792940000000  0.5099840000000  0.5605880000000 1.0
C      1  0.4250270000000  0.5531140000000  0.4842670000000 1.0
C      1  0.6096730000000  0.5258520000000  0.4450390000000 1.0
C      1  0.5165690000000  0.5171490000000  0.5668800000000 1.0
C      1  0.5794200000000  0.4919630000000  0.4970140000000 1.0
C      1  0.5553120000000  0.5344940000000  0.4945210000000 1.0
C      1  0.5666170000000  0.4748150000000  0.4774960000000 1.0
C      1  0.5051500000000  0.4107990000000  0.5338430000000 1.0
C      1  0.4455730000000  0.5034840000000  0.3975560000000 1.0
C      1  0.4854620000000  0.4832410000000  0.5861040000000 1.0
C      1  0.4308060000000  0.4390330000000  0.4263320000000 1.0
C      1  0.6182650000000  0.4133590000000  0.4991790000000 1.0
C      1  0.4620310000000  0.6112550000000  0.5097560000000 1.0
C      1  0.4279000000000  0.5088110000000  0.3769140000000 1.0
C      1  0.4307390000000  0.4107210000000  0.4343010000000 1.0
C      1  0.6721410000000  0.4556970000000  0.5157880000000 1.0
C      1  0.4980620000000  0.5139810000000  0.4165110000000 1.0
C      1  0.5915680000000  0.4105830000000  0.4951110000000 1.0
C      1  0.4120620000000  0.4911060000000  0.5842650000000 1.0
C      1  0.5602060000000  0.6016980000000  0.6054350000000 1.0
C      1  0.4948960000000  0.4748610000000  0.3936390000000 1.0
C      1  0.6073330000000  0.4987490000000  0.4978960000000 1.0
C      1  0.5400630000000  0.4845520000000  0.4642460000000 1.0
C      1  0.3969730000000  0.5069930000000  0.4353720000000 1.0
C      1  0.4256660000000  0.5515230000000  0.4528050000000 1.0
C      1  0.5830140000000  0.5044930000000  0.5867380000000 1.0
C      1  0.5441850000000  0.6067360000000  0.5068050000000 1.0
C      1  0.5168030000000  0.4445560000000  0.4696930000000 1.0
C      1  0.4747770000000  0.5665930000000  0.4242560000000 1.0
C      1  0.5069510000000  0.6091050000000  0.4486620000000 1.0
C      1  0.4164560000000  0.4481670000000  0.4815890000000 1.0
C      1  0.4856290000000  0.5447390000000  0.6177220000000 1.0
C      1  0.4797110000000  0.5683170000000  0.4743990000000 1.0
C      1  0.4777590000000  0.4085790000000  0.5440030000000 1.0
C      1  0.4443490000000  0.5663380000000  0.5042460000000 1.0
C      1  0.5293460000000  0.4605230000000  0.4494890000000 1.0
C      1  0.4824300000000  0.4642580000000  0.5638530000000 1.0
C      1  0.3934780000000  0.4014220000000  0.5572320000000 1.0
C      1  0.4485270000000  0.5974350000000  0.5750500000000 1.0
C      1  0.4501950000000  0.5122710000000  0.4957970000000 1.0
C      1  0.3967600000000  0.5779530000000  0.5268830000000 1.0
C      1  0.4613690000000  0.5263280000000  0.4426550000000 1.0
C      1  0.4593460000000  0.4222300000000  0.4982100000000 1.0
C      1  0.5606200000000  0.5341360000000  0.4447110000000 1.0
C      1  0.4922560000000  0.6216680000000  0.4699830000000 1.0
C      1  0.5126520000000  0.4983640000000  0.3968920000000 1.0
C      1  0.4439910000000  0.3969350000000  0.4556920000000 1.0
C      1  0.6087650000000  0.5452790000000  0.5162850000000 1.0
C      1  0.5286030000000  0.3687740000000  0.4841790000000 1.0
C      1  0.4962270000000  0.5687120000000  0.6118670000000 1.0
C      1  0.4578880000000  0.4053540000000  0.5215680000000 1.0
C      1  0.4374270000000  0.4926970000000  0.5969210000000 1.0
C      1  0.5752600000000  0.4253590000000  0.4763710000000 1.0
C      1  0.4972670000000  0.5049920000000  0.4627980000000 1.0
C      1  0.5255210000000  0.4183640000000  0.4677270000000 1.0
C      1  0.5405410000000  0.5023180000000  0.3924290000000 1.0
C      1  0.5059840000000  0.5259270000000  0.5054590000000 1.0
C      1  0.5453860000000  0.5792990000000  0.5167510000000 1.0
C      1  0.4742490000000  0.3875890000000  0.5649960000000 1.0
C      1  0.5255900000000  0.3981100000000  0.5480800000000 1.0
C      1  0.4550310000000  0.4499470000000  0.5074920000000 1.0
C      1  0.3956510000000  0.4689890000000  0.5893350000000 1.0
C      1  0.5639540000000  0.5546880000000  0.4241610000000 1.0
C      1  0.5501890000000  0.6026420000000  0.4776990000000 1.0
C      1  0.4794810000000  0.4371370000000  0.5682240000000 1.0
C      1  0.4545630000000  0.3703960000000  0.4575730000000 1.0
C      1  0.5260340000000  0.6175910000000  0.5274930000000 1.0
C      1  0.4905340000000  0.4949440000000  0.4379590000000 1.0
C      1  0.4776400000000  0.3961640000000  0.5908570000000 1.0
C      1  0.4838090000000  0.4239440000000  0.5934030000000 1.0
C      1  0.5674640000000  0.5782260000000  0.4668380000000 1.0
C      1  0.5338620000000  0.5043200000000  0.5477820000000 1.0
C      1  0.4579330000000  0.5846220000000  0.4623950000000 1.0
C      1  0.5061910000000  0.4015330000000  0.4569220000000 1.0
C      1  0.4385080000000  0.4570940000000  0.4659820000000 1.0
C      1  0.5722240000000  0.5468130000000  0.4716020000000 1.0
C      1  0.4978080000000  0.5892390000000  0.5927320000000 1.0
C      1  0.5177400000000  0.4876290000000  0.5311900000000 1.0
C      1  0.4621920000000  0.4151640000000  0.4696280000000 1.0
C      1  0.3733360000000  0.5366700000000  0.5371360000000 1.0
C      1  0.4080380000000  0.5366920000000  0.5020960000000 1.0
C      1  0.5484790000000  0.5286820000000  0.3863170000000 1.0
C      1  0.5419890000000  0.4551890000000  0.5724420000000 1.0
C      1  0.6280400000000  0.4808790000000  0.5022770000000 1.0
C      1  0.5709810000000  0.3940360000000  0.5361180000000 1.0
C      1  0.5602370000000  0.5100530000000  0.5396500000000 1.0
C      1  0.4982990000000  0.5838020000000  0.4340870000000 1.0
C      1  0.4793470000000  0.5373130000000  0.4708130000000 1.0
C      1  0.4830460000000  0.4352000000000  0.4250730000000 1.0
C      1  0.3899460000000  0.5512820000000  0.5196310000000 1.0
C      1  0.5537070000000  0.4324570000000  0.5643110000000 1.0
C      1  0.6501830000000  0.4677800000000  0.5086100000000 1.0
C      1  0.5620590000000  0.5511540000000  0.3961550000000 1.0
C      1  0.5490300000000  0.4785050000000  0.6134000000000 1.0
C      1  0.4798680000000  0.3622650000000  0.4643430000000 1.0
C      1  0.5742120000000  0.3908760000000  0.5082890000000 1.0
C      1  0.4753160000000  0.5901330000000  0.5741180000000 1.0
C      1  0.4864450000000  0.6088870000000  0.4949700000000 1.0
C      1  0.4802660000000  0.4642520000000  0.5103080000000 1.0
C      1  0.5159580000000  0.5004290000000  0.5066700000000 1.0
C      1  0.5481590000000  0.5936510000000  0.5823360000000 1.0
C      1  0.4818200000000  0.5378720000000  0.4219100000000 1.0
C      1  0.3975790000000  0.4804160000000  0.4291850000000 1.0
C      1  0.4939880000000  0.5305360000000  0.5530240000000 1.0
C      1  0.5573790000000  0.4601400000000  0.4145000000000 1.0
C      1  0.4454820000000  0.6088770000000  0.4648460000000 1.0
C      1  0.5118080000000  0.4295050000000  0.5150360000000 1.0
C      1  0.4056950000000  0.4535820000000  0.4349260000000 1.0
C      1  0.5726920000000  0.4932840000000  0.6091510000000 1.0
C      1  0.4405470000000  0.5929540000000  0.5144510000000 1.0
C      1  0.4150250000000  0.4829430000000  0.5126020000000 1.0
C      1  0.3966840000000  0.4445650000000  0.4614740000000 1.0
C      1  0.4191670000000  0.5940850000000  0.5333300000000 1.0
C      1  0.5622370000000  0.4852120000000  0.4015590000000 1.0
C      1  0.5482190000000  0.5088690000000  0.4480400000000 1.0
C      1  0.5212500000000  0.5690690000000  0.5050530000000 1.0
C      1  0.5519350000000  0.4069870000000  0.5522750000000 1.0
C      1  0.4733920000000  0.5211670000000  0.6140950000000 1.0
C      1  0.4770530000000  0.5078350000000  0.5453480000000 1.0
C      1  0.4650680000000  0.4976060000000  0.6005030000000 1.0
C      1  0.4973260000000  0.5818210000000  0.4942830000000 1.0
C      1  0.4049880000000  0.5087300000000  0.5627620000000 1.0
C      1  0.5658900000000  0.5724760000000  0.5353200000000 1.0
C      1  0.5261840000000  0.5433110000000  0.4923620000000 1.0
C      1  0.5300890000000  0.4543750000000  0.4219400000000 1.0
C      1  0.3797890000000  0.5197550000000  0.5571070000000 1.0
C      1  0.4164130000000  0.5277530000000  0.4360040000000 1.0
C      1  0.4109450000000  0.3907760000000  0.5402510000000 1.0
C      1  0.4253510000000  0.5146440000000  0.5436780000000 1.0
C      1  0.5621240000000  0.5798490000000  0.5622190000000 1.0
C      1  0.5052340000000  0.3748750000000  0.4678380000000 1.0
C      1  0.4885040000000  0.5830430000000  0.5486450000000 1.0
C      1  0.4256820000000  0.4575100000000  0.5074550000000 1.0
C      1  0.5508560000000  0.4099440000000  0.4745360000000 1.0
C      1  0.6040820000000  0.5108860000000  0.4233840000000 1.0
C      1  0.4505290000000  0.4802110000000  0.4587070000000 1.0
C      1  0.5144190000000  0.4886960000000  0.4810840000000 1.0
C      1  0.4838700000000  0.4174110000000  0.4489570000000 1.0
C      1  0.5124050000000  0.6017250000000  0.5484590000000 1.0
C      1  0.4266850000000  0.6001550000000  0.5597350000000 1.0
C      1  0.4662060000000  0.5517810000000  0.5171080000000 1.0
C      1  0.4484330000000  0.5688120000000  0.4399980000000 1.0
C      1  0.5019480000000  0.4610290000000  0.4887360000000 1.0
C      1  0.6010260000000  0.5367920000000  0.4698530000000 1.0
C      1  0.5514510000000  0.3852300000000  0.4902810000000 1.0
C      1  0.4510010000000  0.5114580000000  0.5523520000000 1.0
C      1  0.5208890000000  0.5988330000000  0.5769750000000 1.0
C      1  0.3861130000000  0.4445860000000  0.5849980000000 1.0
C      1  0.5641410000000  0.5123160000000  0.5110930000000 1.0
C      1  0.5768680000000  0.4508350000000  0.4638420000000 1.0
C      1  0.5763400000000  0.4517530000000  0.4348810000000 1.0
C      1  0.5174850000000  0.5634410000000  0.4417910000000 1.0
C      1  0.4230100000000  0.5120860000000  0.5136920000000 1.0
C      1  0.5223710000000  0.5480770000000  0.4629720000000 1.0
C      1  0.5672850000000  0.5804250000000  0.4364860000000 1.0
C      1  0.5528980000000  0.6043620000000  0.4304950000000 1.0
C      1  0.4677830000000  0.4767270000000  0.4368100000000 1.0
C      1  0.4340350000000  0.3915710000000  0.5270750000000 1.0
C      1  0.5119050000000  0.4948730000000  0.5858870000000 1.0
C      1  0.5908440000000  0.5615740000000  0.5278610000000 1.0
C      1  0.5875300000000  0.4973240000000  0.4070930000000 1.0
C      1  0.4404890000000  0.5178710000000  0.4226110000000 1.0
C      1  0.4671190000000  0.4846310000000  0.3909360000000 1.0
C      1  0.5736920000000  0.5688810000000  0.3788840000000 1.0
C      1  0.4585280000000  0.4510990000000  0.4245630000000 1.0
C      1  0.4838000000000  0.5559360000000  0.5404140000000 1.0
END
