TITL C-599895-9959-953 6846.10338563218 125000 -436.391933912507 0 0 73 (C1) n - 1
REM
REM in /home/nfs/bkarasulu/CARBON/AIRSS/Generating-Clusters/TERSOFF/Only-C1/FIRE-HFTN
REM
REM
REM
REM
REM
REM ./C.cell (11c1c37f851c82e70ff6c80c92926a4b)
REM AIRSS Version 0.9.1 bugfix July 2018 build 013d7b7c2542+ Fri, 06 Jul 2018 19:26:36 +0100
REM compiler GCC version 9.2.1 20190827 (Red Hat 9.2.1-1)
REM options -cpp -mtune=generic -march=x86-64 -g -O0 -fpre-include=/usr/include/finclude/math-vector-fortran.h
REM seed -1020714719 1336272649 1272760974 -654298369 240971068 -200915936 -462609709 -311374729 1172630128 1467035443 -2124972778 -844398255 1237545619 -1493822192 -400414615 1301664080 -1519267282 60238407 -1677297883 663395217 1183531823 1215989361 -594397471 616173235 -1304708234 -494674860 2098385142 1632185622 -267949607 -1366614014 -1797761807 6814478 -876130530
REM
CELL 1.54180   50.00000   50.00000   50.00000   90.00000   90.00000   90.00000
LATT -1
SFAC C  
C      1  0.4629190000000  0.4568190000000  0.5573820000000 1.0
C      1  0.4951890000000  0.5703050000000  0.4797850000000 1.0
C      1  0.4311810000000  0.4584800000000  0.5057280000000 1.0
C      1  0.4741680000000  0.5692710000000  0.5005700000000 1.0
C      1  0.4881990000000  0.4694650000000  0.4328330000000 1.0
C      1  0.4381950000000  0.5071670000000  0.4503700000000 1.0
C      1  0.5230190000000  0.4732850000000  0.4814860000000 1.0
C      1  0.5519030000000  0.4616650000000  0.5443670000000 1.0
C      1  0.4749410000000  0.5646250000000  0.5295040000000 1.0
C      1  0.5740250000000  0.4791030000000  0.4980470000000 1.0
C      1  0.4296270000000  0.4684420000000  0.4779930000000 1.0
C      1  0.5474990000000  0.5543860000000  0.4913020000000 1.0
C      1  0.5581180000000  0.5568880000000  0.5183090000000 1.0
C      1  0.5540470000000  0.5282320000000  0.4788560000000 1.0
C      1  0.5355640000000  0.5210960000000  0.4555260000000 1.0
C      1  0.4847710000000  0.5054440000000  0.4279180000000 1.0
C      1  0.4752610000000  0.4829330000000  0.4798390000000 1.0
C      1  0.5055040000000  0.5242930000000  0.4202270000000 1.0
C      1  0.5370300000000  0.5052090000000  0.5167880000000 1.0
C      1  0.5085920000000  0.5154010000000  0.4710230000000 1.0
C      1  0.4505840000000  0.4817530000000  0.5435030000000 1.0
C      1  0.4936250000000  0.4305890000000  0.4764660000000 1.0
C      1  0.4834930000000  0.5644260000000  0.4534960000000 1.0
C      1  0.5325960000000  0.4547910000000  0.4624020000000 1.0
C      1  0.4662040000000  0.4365340000000  0.4826820000000 1.0
C      1  0.5236980000000  0.4800160000000  0.5086750000000 1.0
C      1  0.5071450000000  0.4446430000000  0.4526490000000 1.0
C      1  0.4538310000000  0.4388290000000  0.5099420000000 1.0
C      1  0.5253840000000  0.5685550000000  0.4768320000000 1.0
C      1  0.4292550000000  0.4978320000000  0.4755520000000 1.0
C      1  0.4325010000000  0.4829710000000  0.5206730000000 1.0
C      1  0.5245270000000  0.5409670000000  0.4348830000000 1.0
C      1  0.5017380000000  0.4880990000000  0.4701410000000 1.0
C      1  0.5605260000000  0.5056180000000  0.4965840000000 1.0
C      1  0.5506960000000  0.5125720000000  0.5436970000000 1.0
C      1  0.5693170000000  0.4627270000000  0.5213790000000 1.0
C      1  0.4406950000000  0.5553120000000  0.4654880000000 1.0
C      1  0.5935260000000  0.4808990000000  0.4326960000000 1.0
C      1  0.4541720000000  0.5453900000000  0.5375120000000 1.0
C      1  0.4476060000000  0.5571660000000  0.4927540000000 1.0
C      1  0.4615430000000  0.5477600000000  0.4470920000000 1.0
C      1  0.5522970000000  0.4874600000000  0.5580030000000 1.0
C      1  0.5480620000000  0.5424680000000  0.5419170000000 1.0
C      1  0.5292000000000  0.4424750000000  0.5447860000000 1.0
C      1  0.5291750000000  0.5665040000000  0.4473060000000 1.0
C      1  0.4909650000000  0.4970480000000  0.5603090000000 1.0
C      1  0.5646370000000  0.4788150000000  0.4336260000000 1.0
C      1  0.4995290000000  0.5647580000000  0.5429090000000 1.0
C      1  0.5815180000000  0.4652570000000  0.4743660000000 1.0
C      1  0.4561490000000  0.5289620000000  0.5607630000000 1.0
C      1  0.4395910000000  0.5371700000000  0.5126800000000 1.0
C      1  0.4628180000000  0.4604740000000  0.4385610000000 1.0
C      1  0.5143020000000  0.5261210000000  0.5172820000000 1.0
C      1  0.4831810000000  0.4708720000000  0.5746610000000 1.0
C      1  0.4716880000000  0.5034150000000  0.5031010000000 1.0
C      1  0.5592380000000  0.4591400000000  0.4551250000000 1.0
C      1  0.4610280000000  0.5198020000000  0.4390810000000 1.0
C      1  0.5010520000000  0.4715600000000  0.5227310000000 1.0
C      1  0.5020430000000  0.4419080000000  0.5284080000000 1.0
C      1  0.4853260000000  0.5210400000000  0.6014370000000 1.0
C      1  0.4812410000000  0.5213250000000  0.5733290000000 1.0
C      1  0.4794820000000  0.4914160000000  0.5314980000000 1.0
C      1  0.4855790000000  0.4731070000000  0.6029010000000 1.0
C      1  0.4956470000000  0.5229620000000  0.4963930000000 1.0
C      1  0.4405400000000  0.5045920000000  0.5609260000000 1.0
C      1  0.5190120000000  0.5456570000000  0.5381290000000 1.0
C      1  0.4868530000000  0.4974750000000  0.6151860000000 1.0
C      1  0.4566900000000  0.4606270000000  0.4672500000000 1.0
C      1  0.6036490000000  0.4730720000000  0.4573030000000 1.0
C      1  0.5486410000000  0.5014790000000  0.4368970000000 1.0
C      1  0.5071800000000  0.4264680000000  0.5020230000000 1.0
C      1  0.4401260000000  0.5080800000000  0.5030840000000 1.0
C      1  0.4711470000000  0.4385330000000  0.5350760000000 1.0
END
