TITL C-599893-4344-781 -4.47057509266505e-05 125000 -988.230262284784 0 0 160 (C1) n - 1
REM
REM in /home/nfs/bkarasulu/CARBON/AIRSS/Generating-Clusters/TERSOFF/Only-C1/FIRE-HFTN
REM
REM
REM
REM
REM
REM ./C.cell (11c1c37f851c82e70ff6c80c92926a4b)
REM AIRSS Version 0.9.1 bugfix July 2018 build 013d7b7c2542+ Fri, 06 Jul 2018 19:26:36 +0100
REM compiler GCC version 9.2.1 20190827 (Red Hat 9.2.1-1)
REM options -cpp -mtune=generic -march=x86-64 -g -O0 -fpre-include=/usr/include/finclude/math-vector-fortran.h
REM seed 588953629 1644981834 609467565 396433998 -2091367628 1542142585 1724848859 -229499176 1141340477 1648181776 -511693687 -704562643 1006415772 -2055562500 -1380532642 -1095840835 -1470426600 -1813344339 -825382406 1478015992 -1437201289 -1851907454 -330312723 -606650896 2091562767 -770420897 1050946401 -165263130 780903193 -228527900 -1679822063 614013112 1743050232
REM
CELL 1.54180   50.00000   50.00000   50.00000   90.00000   90.00000   90.00000
LATT -1
SFAC C  
C      1  0.4328300000000  0.4135090000000  0.6017280000000 1.0
C      1  0.4818240000000  0.5032510000000  0.3977560000000 1.0
C      1  0.5341720000000  0.5763860000000  0.4807100000000 1.0
C      1  0.6026090000000  0.5087070000000  0.4327720000000 1.0
C      1  0.5828320000000  0.5062390000000  0.4120800000000 1.0
C      1  0.4702390000000  0.3880620000000  0.5122630000000 1.0
C      1  0.4439690000000  0.6073390000000  0.4744550000000 1.0
C      1  0.4483980000000  0.4258740000000  0.4337930000000 1.0
C      1  0.5463860000000  0.5675620000000  0.4188230000000 1.0
C      1  0.5226870000000  0.4144160000000  0.5747020000000 1.0
C      1  0.5577930000000  0.5296130000000  0.5297500000000 1.0
C      1  0.4483200000000  0.5199860000000  0.5433540000000 1.0
C      1  0.4761260000000  0.3545500000000  0.4775550000000 1.0
C      1  0.5080630000000  0.5363400000000  0.4538280000000 1.0
C      1  0.5030990000000  0.4936670000000  0.4426390000000 1.0
C      1  0.4392580000000  0.5459450000000  0.4320970000000 1.0
C      1  0.4498680000000  0.5629890000000  0.4899650000000 1.0
C      1  0.4013380000000  0.4687540000000  0.4578880000000 1.0
C      1  0.4784870000000  0.5552800000000  0.3983460000000 1.0
C      1  0.5151950000000  0.6047190000000  0.4364530000000 1.0
C      1  0.4715350000000  0.4767680000000  0.3954950000000 1.0
C      1  0.5999850000000  0.5185470000000  0.5666640000000 1.0
C      1  0.5053300000000  0.5521230000000  0.5820540000000 1.0
C      1  0.5203650000000  0.5901970000000  0.5271460000000 1.0
C      1  0.5383130000000  0.5438720000000  0.4044510000000 1.0
C      1  0.4849160000000  0.4364690000000  0.5087070000000 1.0
C      1  0.4816800000000  0.4487260000000  0.4599050000000 1.0
C      1  0.4419650000000  0.5801040000000  0.4669750000000 1.0
C      1  0.5924680000000  0.4772810000000  0.4773340000000 1.0
C      1  0.6117290000000  0.4944400000000  0.4890450000000 1.0
C      1  0.6180810000000  0.5642390000000  0.5229060000000 1.0
C      1  0.4731960000000  0.4810760000000  0.4928140000000 1.0
C      1  0.4815970000000  0.6117450000000  0.5081180000000 1.0
C      1  0.6057610000000  0.5307860000000  0.4483360000000 1.0
C      1  0.5442020000000  0.4884200000000  0.4659880000000 1.0
C      1  0.5793450000000  0.5197900000000  0.5477670000000 1.0
C      1  0.5698310000000  0.5748770000000  0.5242740000000 1.0
C      1  0.5285790000000  0.4393830000000  0.5878660000000 1.0
C      1  0.4906090000000  0.5425860000000  0.5350270000000 1.0
C      1  0.5245480000000  0.4353750000000  0.4358580000000 1.0
C      1  0.5876590000000  0.5523790000000  0.4535140000000 1.0
C      1  0.4239640000000  0.5620840000000  0.5331090000000 1.0
C      1  0.5029150000000  0.6113000000000  0.4877090000000 1.0
C      1  0.4651840000000  0.3781670000000  0.4859650000000 1.0
C      1  0.4688800000000  0.4329620000000  0.4167010000000 1.0
C      1  0.4656210000000  0.4699260000000  0.4467770000000 1.0
C      1  0.4506050000000  0.5676910000000  0.5450170000000 1.0
C      1  0.4153430000000  0.4332250000000  0.5980290000000 1.0
C      1  0.5668600000000  0.5635670000000  0.6146060000000 1.0
C      1  0.4417360000000  0.5179850000000  0.4382800000000 1.0
C      1  0.5538700000000  0.4599100000000  0.5279290000000 1.0
C      1  0.4444780000000  0.5077760000000  0.5963210000000 1.0
C      1  0.5014740000000  0.4910400000000  0.4949860000000 1.0
C      1  0.4760670000000  0.3881950000000  0.5831230000000 1.0
C      1  0.5154980000000  0.4862000000000  0.4678790000000 1.0
C      1  0.4736090000000  0.5844580000000  0.5549810000000 1.0
C      1  0.4102550000000  0.4751370000000  0.5663500000000 1.0
C      1  0.4641890000000  0.5422220000000  0.5430190000000 1.0
C      1  0.4106500000000  0.5170010000000  0.5161850000000 1.0
C      1  0.4002160000000  0.5592150000000  0.4620770000000 1.0
C      1  0.5314920000000  0.4008770000000  0.4946420000000 1.0
C      1  0.5329350000000  0.4039700000000  0.5495930000000 1.0
C      1  0.5454770000000  0.4734410000000  0.5524790000000 1.0
C      1  0.4725540000000  0.3711540000000  0.5611110000000 1.0
C      1  0.4872180000000  0.4537950000000  0.4061350000000 1.0
C      1  0.5230630000000  0.5944100000000  0.4984620000000 1.0
C      1  0.5885070000000  0.4290600000000  0.4719690000000 1.0
C      1  0.5147920000000  0.4867720000000  0.6125800000000 1.0
C      1  0.5212720000000  0.5418810000000  0.6040490000000 1.0
C      1  0.5352520000000  0.4391460000000  0.5211050000000 1.0
C      1  0.5075990000000  0.5076790000000  0.5603880000000 1.0
C      1  0.4727230000000  0.3711910000000  0.5344550000000 1.0
C      1  0.4702740000000  0.4953040000000  0.5956880000000 1.0
C      1  0.5051150000000  0.6148740000000  0.4595620000000 1.0
C      1  0.4952460000000  0.5389820000000  0.5075980000000 1.0
C      1  0.5083400000000  0.4482510000000  0.5200440000000 1.0
C      1  0.5013530000000  0.5735880000000  0.3992510000000 1.0
C      1  0.5649740000000  0.4820670000000  0.4834850000000 1.0
C      1  0.6219700000000  0.5161580000000  0.5011860000000 1.0
C      1  0.4600280000000  0.5587420000000  0.5970600000000 1.0
C      1  0.5380700000000  0.5479670000000  0.5452940000000 1.0
C      1  0.5702690000000  0.5492210000000  0.5083790000000 1.0
C      1  0.4009340000000  0.4702140000000  0.5098720000000 1.0
C      1  0.4248880000000  0.5642270000000  0.4491400000000 1.0
C      1  0.5464910000000  0.5539350000000  0.4704360000000 1.0
C      1  0.5222440000000  0.5845990000000  0.4174400000000 1.0
C      1  0.4488960000000  0.3933040000000  0.4686950000000 1.0
C      1  0.4881470000000  0.5533930000000  0.4625200000000 1.0
C      1  0.4227390000000  0.5001200000000  0.5770620000000 1.0
C      1  0.4058000000000  0.4550490000000  0.5860640000000 1.0
C      1  0.5403400000000  0.5079800000000  0.5196540000000 1.0
C      1  0.4007230000000  0.5610030000000  0.4892780000000 1.0
C      1  0.6010900000000  0.5384150000000  0.5863940000000 1.0
C      1  0.4057060000000  0.4711220000000  0.4314510000000 1.0
C      1  0.4201280000000  0.4719490000000  0.4087530000000 1.0
C      1  0.4755390000000  0.4528210000000  0.4871210000000 1.0
C      1  0.4110030000000  0.4637170000000  0.5378390000000 1.0
C      1  0.4235580000000  0.5217840000000  0.5587380000000 1.0
C      1  0.5030110000000  0.5056610000000  0.4165670000000 1.0
C      1  0.5569850000000  0.4963460000000  0.4207090000000 1.0
C      1  0.5972850000000  0.5806760000000  0.5291810000000 1.0
C      1  0.4247140000000  0.5631810000000  0.5048030000000 1.0
C      1  0.5405960000000  0.5589500000000  0.6152360000000 1.0
C      1  0.6182770000000  0.4982610000000  0.5661410000000 1.0
C      1  0.5110160000000  0.4118140000000  0.4772070000000 1.0
C      1  0.5857530000000  0.5283800000000  0.3942170000000 1.0
C      1  0.5113730000000  0.5380190000000  0.5561290000000 1.0
C      1  0.4525390000000  0.4938940000000  0.4447210000000 1.0
C      1  0.5544910000000  0.3954050000000  0.4791620000000 1.0
C      1  0.4403230000000  0.4241280000000  0.5240580000000 1.0
C      1  0.4539560000000  0.3980020000000  0.5971680000000 1.0
C      1  0.4431160000000  0.4737260000000  0.3948100000000 1.0
C      1  0.4360390000000  0.4491540000000  0.5360170000000 1.0
C      1  0.5358520000000  0.4108830000000  0.5217140000000 1.0
C      1  0.5231700000000  0.5222780000000  0.4063060000000 1.0
C      1  0.5486700000000  0.5085200000000  0.4462360000000 1.0
C      1  0.5525710000000  0.4273010000000  0.4389360000000 1.0
C      1  0.5935160000000  0.4540340000000  0.4330540000000 1.0
C      1  0.5241670000000  0.5137540000000  0.6099100000000 1.0
C      1  0.5732350000000  0.5509120000000  0.4791800000000 1.0
C      1  0.4774490000000  0.5697990000000  0.4427770000000 1.0
C      1  0.6252030000000  0.5404340000000  0.5123650000000 1.0
C      1  0.5385490000000  0.4751650000000  0.4102680000000 1.0
C      1  0.5748400000000  0.5638600000000  0.4280230000000 1.0
C      1  0.5723680000000  0.4402210000000  0.4224680000000 1.0
C      1  0.5014260000000  0.3997240000000  0.5860350000000 1.0
C      1  0.5895850000000  0.5552160000000  0.6034950000000 1.0
C      1  0.4393370000000  0.5086320000000  0.5181920000000 1.0
C      1  0.4757250000000  0.5290790000000  0.3865600000000 1.0
C      1  0.4864460000000  0.4861710000000  0.6168570000000 1.0
C      1  0.5262920000000  0.4625420000000  0.6020680000000 1.0
C      1  0.5429740000000  0.5757630000000  0.5375980000000 1.0
C      1  0.5573350000000  0.4831850000000  0.5099990000000 1.0
C      1  0.4464270000000  0.5359400000000  0.6029580000000 1.0
C      1  0.5170660000000  0.4545860000000  0.4145600000000 1.0
C      1  0.3669330000000  0.5040790000000  0.4984480000000 1.0
C      1  0.4545450000000  0.4862600000000  0.5125400000000 1.0
C      1  0.4085260000000  0.5369980000000  0.5393330000000 1.0
C      1  0.5882670000000  0.5540170000000  0.4037750000000 1.0
C      1  0.4370560000000  0.4176160000000  0.4592110000000 1.0
C      1  0.4911250000000  0.5972730000000  0.5339800000000 1.0
C      1  0.4566600000000  0.4679690000000  0.5345840000000 1.0
C      1  0.5078130000000  0.4762050000000  0.5217980000000 1.0
C      1  0.5654680000000  0.4150140000000  0.4623220000000 1.0
C      1  0.4842650000000  0.4936830000000  0.5706490000000 1.0
C      1  0.4624440000000  0.5588080000000  0.4215010000000 1.0
C      1  0.4562540000000  0.6170680000000  0.4967480000000 1.0
C      1  0.4744470000000  0.4727690000000  0.5549620000000 1.0
C      1  0.4768840000000  0.5514370000000  0.4885570000000 1.0
C      1  0.4209470000000  0.4164880000000  0.5050400000000 1.0
C      1  0.5241570000000  0.4922160000000  0.5418050000000 1.0
C      1  0.5971340000000  0.4541200000000  0.4613930000000 1.0
C      1  0.4672070000000  0.4159510000000  0.5176030000000 1.0
C      1  0.4816860000000  0.5693510000000  0.5809010000000 1.0
C      1  0.5046230000000  0.4307670000000  0.4562990000000 1.0
C      1  0.5142990000000  0.5179790000000  0.5026070000000 1.0
C      1  0.5357890000000  0.5334550000000  0.4545090000000 1.0
C      1  0.4197500000000  0.4302370000000  0.4800240000000 1.0
C      1  0.4068460000000  0.4563630000000  0.4830070000000 1.0
C      1  0.3918550000000  0.4976940000000  0.5075040000000 1.0
END
