TITL C-599896-8500-670 0.00586740049995827 125000 -460.312090434378 0 0 78 (C1) n - 1
REM
REM in /home/nfs/bkarasulu/CARBON/AIRSS/Generating-Clusters/TERSOFF/Only-C1/FIRE-HFTN
REM
REM
REM
REM
REM
REM ./C.cell (11c1c37f851c82e70ff6c80c92926a4b)
REM AIRSS Version 0.9.1 bugfix July 2018 build 013d7b7c2542+ Fri, 06 Jul 2018 19:26:36 +0100
REM compiler GCC version 9.2.1 20190827 (Red Hat 9.2.1-1)
REM options -cpp -mtune=generic -march=x86-64 -g -O0 -fpre-include=/usr/include/finclude/math-vector-fortran.h
REM seed 707533631 1487643085 2075021635 1190117476 779253489 -1144844822 -16203961 1347190492 1726949132 1602586456 -1484961431 1985726023 146869463 866401329 1830731834 -1905532514 -1112113762 1787751733 -821681050 -1160142880 911353276 742665623 448638008 -2120752978 994123806 566396248 1069737614 -359544132 -637171793 -1504376970 197385457 -1523919137 1128741851
REM
CELL 1.54180   50.00000   50.00000   50.00000   90.00000   90.00000   90.00000
LATT -1
SFAC C  
C      1  0.5719420000000  0.3970870000000  0.4816140000000 1.0
C      1  0.4469440000000  0.4298580000000  0.5195970000000 1.0
C      1  0.5725010000000  0.5601040000000  0.5599190000000 1.0
C      1  0.5026970000000  0.4834750000000  0.5558750000000 1.0
C      1  0.5669540000000  0.5383500000000  0.5447850000000 1.0
C      1  0.5476180000000  0.5282550000000  0.4980680000000 1.0
C      1  0.5001860000000  0.4494770000000  0.4668010000000 1.0
C      1  0.4318770000000  0.4504720000000  0.5112170000000 1.0
C      1  0.4650480000000  0.4830100000000  0.5150160000000 1.0
C      1  0.4826280000000  0.3495760000000  0.5524520000000 1.0
C      1  0.4687500000000  0.4177010000000  0.4573320000000 1.0
C      1  0.5589450000000  0.5911860000000  0.5102830000000 1.0
C      1  0.4791330000000  0.5323330000000  0.4198150000000 1.0
C      1  0.5279830000000  0.6163280000000  0.5389450000000 1.0
C      1  0.5650290000000  0.5456320000000  0.4829670000000 1.0
C      1  0.5149860000000  0.4248190000000  0.4616020000000 1.0
C      1  0.4553690000000  0.4697280000000  0.4564890000000 1.0
C      1  0.4951610000000  0.4820640000000  0.4347750000000 1.0
C      1  0.4646440000000  0.3690020000000  0.5570820000000 1.0
C      1  0.5085610000000  0.4712610000000  0.5300910000000 1.0
C      1  0.4899540000000  0.5279170000000  0.5424910000000 1.0
C      1  0.5528860000000  0.4530350000000  0.4517460000000 1.0
C      1  0.4938270000000  0.4056820000000  0.4567460000000 1.0
C      1  0.4343820000000  0.4796440000000  0.4725090000000 1.0
C      1  0.4605560000000  0.3941700000000  0.5489940000000 1.0
C      1  0.5111010000000  0.3957850000000  0.5190800000000 1.0
C      1  0.4981680000000  0.6192340000000  0.5028800000000 1.0
C      1  0.5160340000000  0.3698330000000  0.5232660000000 1.0
C      1  0.5427960000000  0.4268710000000  0.4568410000000 1.0
C      1  0.5084410000000  0.4939470000000  0.4858790000000 1.0
C      1  0.5095490000000  0.4431050000000  0.5287260000000 1.0
C      1  0.5311760000000  0.6421350000000  0.5253830000000 1.0
C      1  0.4611660000000  0.5132070000000  0.4274400000000 1.0
C      1  0.4518020000000  0.5578710000000  0.5617780000000 1.0
C      1  0.5828800000000  0.3910710000000  0.5044910000000 1.0
C      1  0.4747280000000  0.5983030000000  0.5420380000000 1.0
C      1  0.5111470000000  0.4766550000000  0.4608420000000 1.0
C      1  0.4245080000000  0.5222300000000  0.5330030000000 1.0
C      1  0.5107600000000  0.5497410000000  0.4507020000000 1.0
C      1  0.5049410000000  0.3498340000000  0.5373800000000 1.0
C      1  0.4589200000000  0.4777940000000  0.5435090000000 1.0
C      1  0.3887710000000  0.4979590000000  0.4501310000000 1.0
C      1  0.5648390000000  0.5727820000000  0.4915980000000 1.0
C      1  0.4959580000000  0.4186130000000  0.5257440000000 1.0
C      1  0.4677990000000  0.4151200000000  0.5315090000000 1.0
C      1  0.5223070000000  0.5192960000000  0.4865600000000 1.0
C      1  0.5147010000000  0.6428260000000  0.5031480000000 1.0
C      1  0.5634050000000  0.5854590000000  0.5577040000000 1.0
C      1  0.4675960000000  0.4876830000000  0.4380390000000 1.0
C      1  0.4695010000000  0.5784430000000  0.5616130000000 1.0
C      1  0.4706510000000  0.4461410000000  0.4624500000000 1.0
C      1  0.4523130000000  0.5999500000000  0.5239730000000 1.0
C      1  0.4509240000000  0.5841230000000  0.5018410000000 1.0
C      1  0.5465740000000  0.5365420000000  0.5254740000000 1.0
C      1  0.4219920000000  0.5014450000000  0.5160070000000 1.0
C      1  0.4975220000000  0.5476110000000  0.5237120000000 1.0
C      1  0.4753640000000  0.5772820000000  0.4892290000000 1.0
C      1  0.5069530000000  0.5363550000000  0.4263340000000 1.0
C      1  0.5199510000000  0.5215340000000  0.5807550000000 1.0
C      1  0.5064650000000  0.5414030000000  0.4770710000000 1.0
C      1  0.4355380000000  0.5400010000000  0.5498980000000 1.0
C      1  0.5091110000000  0.4916220000000  0.4121760000000 1.0
C      1  0.4899820000000  0.5539580000000  0.4966110000000 1.0
C      1  0.5244420000000  0.5537180000000  0.5299000000000 1.0
C      1  0.5598360000000  0.4043130000000  0.4574680000000 1.0
C      1  0.4767470000000  0.4748060000000  0.5636530000000 1.0
C      1  0.5055880000000  0.5114090000000  0.5598770000000 1.0
C      1  0.5643480000000  0.3897880000000  0.4347300000000 1.0
C      1  0.4996380000000  0.6086230000000  0.5314300000000 1.0
C      1  0.5503890000000  0.5988260000000  0.5365180000000 1.0
C      1  0.4372900000000  0.4790690000000  0.5019980000000 1.0
C      1  0.4106050000000  0.4889200000000  0.4611170000000 1.0
C      1  0.5248990000000  0.5146240000000  0.4193040000000 1.0
C      1  0.5400890000000  0.4782530000000  0.4508890000000 1.0
C      1  0.4905660000000  0.6006640000000  0.4832070000000 1.0
C      1  0.5818170000000  0.5367200000000  0.4634370000000 1.0
C      1  0.5455020000000  0.5025780000000  0.4360830000000 1.0
C      1  0.4933490000000  0.4837600000000  0.5083670000000 1.0
END
