TITL C-599893-4344-893 0.305009644057537 125000 -514.949460050044 0 0 85 (C1) n - 1
REM
REM in /home/nfs/bkarasulu/CARBON/AIRSS/Generating-Clusters/TERSOFF/Only-C1/FIRE-HFTN
REM
REM
REM
REM
REM
REM ./C.cell (11c1c37f851c82e70ff6c80c92926a4b)
REM AIRSS Version 0.9.1 bugfix July 2018 build 013d7b7c2542+ Fri, 06 Jul 2018 19:26:36 +0100
REM compiler GCC version 9.2.1 20190827 (Red Hat 9.2.1-1)
REM options -cpp -mtune=generic -march=x86-64 -g -O0 -fpre-include=/usr/include/finclude/math-vector-fortran.h
REM seed 854038232 1760701138 779039986 -968165729 -982662962 2115672207 -933238521 -1012991163 -695929087 181613355 -1654565344 -687917995 1751192871 1499186056 -870408773 248675078 -1168584100 764742323 -895081574 405409458 1363994352 662834936 -1072166494 -958619211 433853940 229079754 -1966544313 1488460784 446321802 -1768002723 -723640173 -428665840 309044791
REM
CELL 1.54180   50.00000   50.00000   50.00000   90.00000   90.00000   90.00000
LATT -1
SFAC C  
C      1  0.4660000000000  0.5132080000000  0.5280420000000 1.0
C      1  0.5604480000000  0.5968730000000  0.5218690000000 1.0
C      1  0.5985620000000  0.4609240000000  0.5761510000000 1.0
C      1  0.4989330000000  0.5206620000000  0.4814630000000 1.0
C      1  0.5252850000000  0.4253290000000  0.4886200000000 1.0
C      1  0.4748550000000  0.5303650000000  0.5805640000000 1.0
C      1  0.5417830000000  0.5133160000000  0.5361740000000 1.0
C      1  0.5190560000000  0.4471170000000  0.4359160000000 1.0
C      1  0.4942830000000  0.5159110000000  0.5306540000000 1.0
C      1  0.4353990000000  0.4396120000000  0.4572810000000 1.0
C      1  0.4903860000000  0.4431570000000  0.6079750000000 1.0
C      1  0.4636690000000  0.4923500000000  0.4228720000000 1.0
C      1  0.5330920000000  0.4022530000000  0.5334060000000 1.0
C      1  0.5624300000000  0.5320770000000  0.5386670000000 1.0
C      1  0.5027090000000  0.4187510000000  0.4721990000000 1.0
C      1  0.4791960000000  0.4707710000000  0.4967000000000 1.0
C      1  0.5432080000000  0.5964720000000  0.4707680000000 1.0
C      1  0.5295750000000  0.4534010000000  0.4937910000000 1.0
C      1  0.5962020000000  0.5403260000000  0.5041550000000 1.0
C      1  0.5995370000000  0.5067970000000  0.3555270000000 1.0
C      1  0.4638010000000  0.5623290000000  0.4875300000000 1.0
C      1  0.5084430000000  0.4958710000000  0.5731280000000 1.0
C      1  0.4729870000000  0.4219370000000  0.5495740000000 1.0
C      1  0.4467260000000  0.4460550000000  0.4337610000000 1.0
C      1  0.5241340000000  0.4727560000000  0.4467100000000 1.0
C      1  0.4902700000000  0.4649190000000  0.5233400000000 1.0
C      1  0.5465210000000  0.4663330000000  0.5809920000000 1.0
C      1  0.4713210000000  0.5622590000000  0.5416250000000 1.0
C      1  0.5984470000000  0.5317570000000  0.4787830000000 1.0
C      1  0.4527010000000  0.4878610000000  0.5284190000000 1.0
C      1  0.4704030000000  0.5660050000000  0.5149560000000 1.0
C      1  0.5018970000000  0.4465220000000  0.5832040000000 1.0
C      1  0.4883290000000  0.5070990000000  0.4231340000000 1.0
C      1  0.4770380000000  0.4160360000000  0.4836460000000 1.0
C      1  0.5073080000000  0.5450150000000  0.4704650000000 1.0
C      1  0.5471820000000  0.5708480000000  0.4826990000000 1.0
C      1  0.5356170000000  0.4069920000000  0.5071870000000 1.0
C      1  0.4699370000000  0.5561180000000  0.5694330000000 1.0
C      1  0.4289560000000  0.5645220000000  0.4545040000000 1.0
C      1  0.4192890000000  0.4914490000000  0.4823100000000 1.0
C      1  0.5954440000000  0.5117150000000  0.3808000000000 1.0
C      1  0.5360050000000  0.5474990000000  0.4708260000000 1.0
C      1  0.5796660000000  0.5254540000000  0.4587210000000 1.0
C      1  0.5187960000000  0.4696810000000  0.5790510000000 1.0
C      1  0.5193080000000  0.4103410000000  0.5548060000000 1.0
C      1  0.5457470000000  0.4996720000000  0.4832570000000 1.0
C      1  0.5067250000000  0.4250410000000  0.4450730000000 1.0
C      1  0.4975790000000  0.4260840000000  0.5633840000000 1.0
C      1  0.4098250000000  0.5001250000000  0.5287610000000 1.0
C      1  0.4705880000000  0.4720680000000  0.5446500000000 1.0
C      1  0.5076330000000  0.5126840000000  0.5060300000000 1.0
C      1  0.4272760000000  0.4765750000000  0.5230020000000 1.0
C      1  0.5912610000000  0.5167070000000  0.4064930000000 1.0
C      1  0.4190020000000  0.5392040000000  0.4956320000000 1.0
C      1  0.4598180000000  0.4645820000000  0.4190850000000 1.0
C      1  0.4144200000000  0.5034510000000  0.5571370000000 1.0
C      1  0.4625090000000  0.4836240000000  0.5712560000000 1.0
C      1  0.4227620000000  0.4657740000000  0.4969530000000 1.0
C      1  0.5460000000000  0.6202370000000  0.4837350000000 1.0
C      1  0.4105430000000  0.5127890000000  0.5017590000000 1.0
C      1  0.4836350000000  0.5601760000000  0.4652450000000 1.0
C      1  0.4737990000000  0.5565750000000  0.4381110000000 1.0
C      1  0.5527300000000  0.5233230000000  0.4678460000000 1.0
C      1  0.4437150000000  0.5035130000000  0.4397950000000 1.0
C      1  0.5599010000000  0.5713890000000  0.5091150000000 1.0
C      1  0.4854480000000  0.5354600000000  0.4230240000000 1.0
C      1  0.4470750000000  0.5650620000000  0.4342960000000 1.0
C      1  0.5357410000000  0.4741920000000  0.4734230000000 1.0
C      1  0.4358560000000  0.5566820000000  0.4809540000000 1.0
C      1  0.4549680000000  0.4253490000000  0.4993760000000 1.0
C      1  0.4633630000000  0.5764600000000  0.5867020000000 1.0
C      1  0.4576660000000  0.4215940000000  0.5273820000000 1.0
C      1  0.5543570000000  0.6204190000000  0.5096530000000 1.0
C      1  0.5162490000000  0.5110340000000  0.5503300000000 1.0
C      1  0.5866290000000  0.5214630000000  0.4321340000000 1.0
C      1  0.4351570000000  0.4420620000000  0.4857530000000 1.0
C      1  0.5180110000000  0.4604030000000  0.5193640000000 1.0
C      1  0.5727800000000  0.4633850000000  0.5791130000000 1.0
C      1  0.4425050000000  0.4962110000000  0.4666730000000 1.0
C      1  0.5353240000000  0.5063640000000  0.5087050000000 1.0
C      1  0.4817330000000  0.5026780000000  0.5810380000000 1.0
C      1  0.4661410000000  0.4848390000000  0.4779940000000 1.0
C      1  0.5115730000000  0.4942520000000  0.4330710000000 1.0
C      1  0.4344460000000  0.4922040000000  0.5726620000000 1.0
C      1  0.5743780000000  0.5492490000000  0.5196360000000 1.0
END
