TITL C-599891-72-305 46.7410822828019 125000 -495.601932125885 0 0 84 (C1) n - 1
REM
REM in /home/nfs/bkarasulu/CARBON/AIRSS/Generating-Clusters/TERSOFF/Only-C1/FIRE-HFTN
REM
REM
REM
REM
REM
REM ./C.cell (11c1c37f851c82e70ff6c80c92926a4b)
REM AIRSS Version 0.9.1 bugfix July 2018 build 013d7b7c2542+ Fri, 06 Jul 2018 19:26:36 +0100
REM compiler GCC version 9.2.1 20190827 (Red Hat 9.2.1-1)
REM options -cpp -mtune=generic -march=x86-64 -g -O0 -fpre-include=/usr/include/finclude/math-vector-fortran.h
REM seed 1662182295 -31891986 226564424 -1047212480 1230696928 197159833 812310957 111038641 -1643197560 1439743640 -1403804980 -1868096625 2047702334 -1952060932 -2146221755 -700985933 -1665498818 -811867432 -506657116 1696945182 49700395 -688529053 -1884772252 -1848839767 1802865010 -720423489 408425842 -1283047962 596879494 -148448282 -556599553 51983835 419069463
REM
CELL 1.54180   50.00000   50.00000   50.00000   90.00000   90.00000   90.00000
LATT -1
SFAC C  
C      1  0.4798510000000  0.5006550000000  0.4965390000000 1.0
C      1  0.4786450000000  0.4989840000000  0.5820980000000 1.0
C      1  0.4509170000000  0.5298890000000  0.5385060000000 1.0
C      1  0.5437200000000  0.5543950000000  0.5602230000000 1.0
C      1  0.5316270000000  0.4574250000000  0.4780950000000 1.0
C      1  0.4322700000000  0.4154480000000  0.5802600000000 1.0
C      1  0.5714500000000  0.5688740000000  0.4734720000000 1.0
C      1  0.5468160000000  0.5870240000000  0.4087930000000 1.0
C      1  0.5505150000000  0.6539230000000  0.4410130000000 1.0
C      1  0.5369870000000  0.5952560000000  0.4947460000000 1.0
C      1  0.4983120000000  0.5459810000000  0.5304960000000 1.0
C      1  0.4371130000000  0.4300020000000  0.4511640000000 1.0
C      1  0.5299700000000  0.5752410000000  0.5491160000000 1.0
C      1  0.5739870000000  0.5438660000000  0.4648510000000 1.0
C      1  0.4572560000000  0.3545880000000  0.5031260000000 1.0
C      1  0.5599670000000  0.4670860000000  0.5129090000000 1.0
C      1  0.4348460000000  0.5119750000000  0.5534640000000 1.0
C      1  0.5578320000000  0.6270440000000  0.4428880000000 1.0
C      1  0.5923540000000  0.6300210000000  0.4768990000000 1.0
C      1  0.4717750000000  0.4452410000000  0.5767890000000 1.0
C      1  0.5604590000000  0.4618660000000  0.4839690000000 1.0
C      1  0.4377930000000  0.4818340000000  0.4339110000000 1.0
C      1  0.4908210000000  0.5442600000000  0.5933160000000 1.0
C      1  0.5154940000000  0.5292100000000  0.5140500000000 1.0
C      1  0.4916220000000  0.4256540000000  0.5676630000000 1.0
C      1  0.5672940000000  0.5197090000000  0.4523610000000 1.0
C      1  0.4471300000000  0.4478150000000  0.4959910000000 1.0
C      1  0.4381700000000  0.4559560000000  0.4402400000000 1.0
C      1  0.4516410000000  0.5325530000000  0.4354870000000 1.0
C      1  0.5061990000000  0.4720670000000  0.5370090000000 1.0
C      1  0.4522570000000  0.3031210000000  0.4936800000000 1.0
C      1  0.4598260000000  0.3819620000000  0.5081110000000 1.0
C      1  0.5601300000000  0.5939560000000  0.4789500000000 1.0
C      1  0.5794440000000  0.4724160000000  0.4667320000000 1.0
C      1  0.5442010000000  0.5269270000000  0.5530390000000 1.0
C      1  0.5197960000000  0.4861860000000  0.5169570000000 1.0
C      1  0.4410250000000  0.5082610000000  0.4324110000000 1.0
C      1  0.4776770000000  0.5350770000000  0.5473800000000 1.0
C      1  0.5473280000000  0.4936560000000  0.5177350000000 1.0
C      1  0.4694550000000  0.4475080000000  0.5129000000000 1.0
C      1  0.4278660000000  0.4619460000000  0.5659150000000 1.0
C      1  0.5433600000000  0.5184890000000  0.4369970000000 1.0
C      1  0.5210870000000  0.4773010000000  0.4604870000000 1.0
C      1  0.5015570000000  0.5168650000000  0.4924420000000 1.0
C      1  0.5195550000000  0.4797050000000  0.5625990000000 1.0
C      1  0.5178500000000  0.5050720000000  0.4467600000000 1.0
C      1  0.5431630000000  0.5219420000000  0.5245330000000 1.0
C      1  0.4436650000000  0.4400350000000  0.5739280000000 1.0
C      1  0.4405200000000  0.5362610000000  0.5131780000000 1.0
C      1  0.4223310000000  0.4949920000000  0.4913650000000 1.0
C      1  0.5381180000000  0.4276050000000  0.5460230000000 1.0
C      1  0.4828080000000  0.4035490000000  0.5525620000000 1.0
C      1  0.5332010000000  0.5046070000000  0.5671770000000 1.0
C      1  0.5438640000000  0.6795390000000  0.4397790000000 1.0
C      1  0.5427500000000  0.5609460000000  0.4058060000000 1.0
C      1  0.5523560000000  0.6094640000000  0.4218290000000 1.0
C      1  0.4911700000000  0.4930460000000  0.3995880000000 1.0
C      1  0.5130790000000  0.5822270000000  0.5018030000000 1.0
C      1  0.5414650000000  0.5360450000000  0.4150250000000 1.0
C      1  0.4547370000000  0.3286470000000  0.4983650000000 1.0
C      1  0.4291110000000  0.4090260000000  0.4354720000000 1.0
C      1  0.5056300000000  0.5255090000000  0.4659320000000 1.0
C      1  0.4961820000000  0.4498560000000  0.5201260000000 1.0
C      1  0.5002100000000  0.4995670000000  0.4231450000000 1.0
C      1  0.4773290000000  0.4721970000000  0.5844170000000 1.0
C      1  0.4441160000000  0.4256150000000  0.4784470000000 1.0
C      1  0.5373730000000  0.7047610000000  0.4386250000000 1.0
C      1  0.4982220000000  0.5715100000000  0.4798050000000 1.0
C      1  0.4501680000000  0.4004040000000  0.4892440000000 1.0
C      1  0.4214360000000  0.3923870000000  0.5857380000000 1.0
C      1  0.5198640000000  0.4323710000000  0.5677630000000 1.0
C      1  0.4270290000000  0.5209410000000  0.4957210000000 1.0
C      1  0.4929940000000  0.5508260000000  0.4609460000000 1.0
C      1  0.4830770000000  0.5260140000000  0.5743400000000 1.0
C      1  0.4255840000000  0.4878690000000  0.5600860000000 1.0
C      1  0.5704590000000  0.6173100000000  0.4665010000000 1.0
C      1  0.5099540000000  0.5723210000000  0.5289170000000 1.0
C      1  0.5436760000000  0.4428090000000  0.5224310000000 1.0
C      1  0.4701890000000  0.5495530000000  0.4445850000000 1.0
C      1  0.4720130000000  0.3905910000000  0.5319340000000 1.0
C      1  0.4296230000000  0.4695960000000  0.4947180000000 1.0
C      1  0.5824400000000  0.4964650000000  0.4555450000000 1.0
C      1  0.5249590000000  0.4576590000000  0.5794940000000 1.0
C      1  0.5198880000000  0.4436500000000  0.5025680000000 1.0
END
