TITL C-599897-7526-301 -0.198521661515203 125000 -416.163174900771 0 0 69 (C1) n - 1
REM
REM in /home/nfs/bkarasulu/CARBON/AIRSS/Generating-Clusters/TERSOFF/Only-C1/FIRE-HFTN
REM
REM
REM
REM
REM
REM ./C.cell (11c1c37f851c82e70ff6c80c92926a4b)
REM AIRSS Version 0.9.1 bugfix July 2018 build 013d7b7c2542+ Fri, 06 Jul 2018 19:26:36 +0100
REM compiler GCC version 9.2.1 20190827 (Red Hat 9.2.1-1)
REM options -cpp -mtune=generic -march=x86-64 -g -O0 -fpre-include=/usr/include/finclude/math-vector-fortran.h
REM seed -1954037106 -1829836234 -997665991 1712855940 -724005097 1504087862 424196580 -1235747455 -2108092037 -1570240964 -1584479141 -1260058148 -456267480 -607960060 712774960 -904909735 1294805219 -1981296111 1358353511 -2099781973 89461978 1530281816 1576989836 -1146027174 1651105067 1568756175 890783295 2060845614 -658665464 1489773543 266109546 -1451851297 -2100011291
REM
CELL 1.54180   50.00000   50.00000   50.00000   90.00000   90.00000   90.00000
LATT -1
SFAC C  
C      1  0.6165110000000  0.4710490000000  0.5108330000000 1.0
C      1  0.3995180000000  0.5106410000000  0.4522650000000 1.0
C      1  0.5516150000000  0.5614090000000  0.5217730000000 1.0
C      1  0.4929030000000  0.5237490000000  0.5844790000000 1.0
C      1  0.5419920000000  0.5402180000000  0.5383440000000 1.0
C      1  0.5730010000000  0.4786040000000  0.4704270000000 1.0
C      1  0.5520460000000  0.5071960000000  0.5043920000000 1.0
C      1  0.4819800000000  0.5406860000000  0.4489580000000 1.0
C      1  0.5905710000000  0.4799090000000  0.5159590000000 1.0
C      1  0.5334140000000  0.5782780000000  0.6126360000000 1.0
C      1  0.4805320000000  0.5040910000000  0.5713660000000 1.0
C      1  0.5269240000000  0.5136920000000  0.4636240000000 1.0
C      1  0.5652070000000  0.4452050000000  0.5404280000000 1.0
C      1  0.4491380000000  0.5614990000000  0.5118260000000 1.0
C      1  0.5105220000000  0.5442320000000  0.5770720000000 1.0
C      1  0.4026390000000  0.5941300000000  0.4666900000000 1.0
C      1  0.4702090000000  0.5168810000000  0.4485280000000 1.0
C      1  0.4965310000000  0.5570030000000  0.5308840000000 1.0
C      1  0.4583440000000  0.4330330000000  0.4845480000000 1.0
C      1  0.3977560000000  0.5684880000000  0.4724450000000 1.0
C      1  0.5274160000000  0.5083800000000  0.4903470000000 1.0
C      1  0.4237600000000  0.6096770000000  0.4723490000000 1.0
C      1  0.5211940000000  0.3739660000000  0.4620680000000 1.0
C      1  0.5545940000000  0.4906350000000  0.5486100000000 1.0
C      1  0.4968210000000  0.4156020000000  0.4606220000000 1.0
C      1  0.5448290000000  0.5948440000000  0.6292160000000 1.0
C      1  0.4810090000000  0.4613330000000  0.5114150000000 1.0
C      1  0.4795290000000  0.4930100000000  0.5472490000000 1.0
C      1  0.4106620000000  0.5442230000000  0.5345080000000 1.0
C      1  0.5934880000000  0.4163140000000  0.4536360000000 1.0
C      1  0.4577640000000  0.4600310000000  0.4942200000000 1.0
C      1  0.5684820000000  0.4290130000000  0.4522990000000 1.0
C      1  0.4118510000000  0.4949810000000  0.4341900000000 1.0
C      1  0.6319090000000  0.4530640000000  0.4985950000000 1.0
C      1  0.4517250000000  0.4824930000000  0.4791510000000 1.0
C      1  0.3848720000000  0.5040970000000  0.4977300000000 1.0
C      1  0.5738680000000  0.4911270000000  0.4954400000000 1.0
C      1  0.6325620000000  0.4326360000000  0.4814570000000 1.0
C      1  0.5341770000000  0.5759100000000  0.5067580000000 1.0
C      1  0.4831220000000  0.4251500000000  0.4377010000000 1.0
C      1  0.5364210000000  0.4456850000000  0.5439120000000 1.0
C      1  0.6177680000000  0.4182200000000  0.4645590000000 1.0
C      1  0.5181140000000  0.4334110000000  0.5266930000000 1.0
C      1  0.5210000000000  0.4010430000000  0.4581150000000 1.0
C      1  0.4649590000000  0.4399890000000  0.4247940000000 1.0
C      1  0.4856080000000  0.4224010000000  0.4857780000000 1.0
C      1  0.4906070000000  0.5623930000000  0.4618030000000 1.0
C      1  0.4543620000000  0.4947180000000  0.4541520000000 1.0
C      1  0.5760820000000  0.4720690000000  0.5390720000000 1.0
C      1  0.4472260000000  0.4599390000000  0.4222070000000 1.0
C      1  0.5446410000000  0.4145510000000  0.4515320000000 1.0
C      1  0.5218900000000  0.5614860000000  0.5956920000000 1.0
C      1  0.4467940000000  0.6034330000000  0.4844580000000 1.0
C      1  0.4886150000000  0.4861110000000  0.5218420000000 1.0
C      1  0.4375410000000  0.4835410000000  0.4339250000000 1.0
C      1  0.4874900000000  0.5753170000000  0.4864620000000 1.0
C      1  0.3974130000000  0.5203420000000  0.4786810000000 1.0
C      1  0.4604300000000  0.5811020000000  0.4940830000000 1.0
C      1  0.5160290000000  0.5464560000000  0.5493420000000 1.0
C      1  0.4973590000000  0.4373460000000  0.5083860000000 1.0
C      1  0.4227770000000  0.5503430000000  0.5104930000000 1.0
C      1  0.5062450000000  0.5717040000000  0.5075820000000 1.0
C      1  0.5682670000000  0.4568530000000  0.4558640000000 1.0
C      1  0.3739350000000  0.4877740000000  0.5148510000000 1.0
C      1  0.4071630000000  0.5460630000000  0.4865560000000 1.0
C      1  0.5327060000000  0.4724600000000  0.5552790000000 1.0
C      1  0.5506920000000  0.5138010000000  0.5325730000000 1.0
C      1  0.5044110000000  0.5023390000000  0.5053110000000 1.0
C      1  0.4684690000000  0.5526280000000  0.5309650000000 1.0
END
