TITL C-599891-72-117 4377.20821431935 125000 -824.502853698031 0 0 137 (C1) n - 1
REM
REM in /home/nfs/bkarasulu/CARBON/AIRSS/Generating-Clusters/TERSOFF/Only-C1/FIRE-HFTN
REM
REM
REM
REM
REM
REM ./C.cell (11c1c37f851c82e70ff6c80c92926a4b)
REM AIRSS Version 0.9.1 bugfix July 2018 build 013d7b7c2542+ Fri, 06 Jul 2018 19:26:36 +0100
REM compiler GCC version 9.2.1 20190827 (Red Hat 9.2.1-1)
REM options -cpp -mtune=generic -march=x86-64 -g -O0 -fpre-include=/usr/include/finclude/math-vector-fortran.h
REM seed 1133088881 1643795006 -745634060 471669132 2128172994 1189157114 -1954936256 -370479174 841045693 1120031166 -918738897 1618043864 1390277039 -1996651726 -2005370214 727258053 1352612264 -992558803 831144749 1596877759 -790392443 1365162541 779551364 859796080 487723420 1141665924 1450058367 769063217 -2090952005 -714264594 1513638749 604556882 -106210977
REM
CELL 1.54180   50.00000   50.00000   50.00000   90.00000   90.00000   90.00000
LATT -1
SFAC C  
C      1  0.4280700000000  0.5150830000000  0.4287790000000 1.0
C      1  0.5129980000000  0.4248460000000  0.4371160000000 1.0
C      1  0.5574620000000  0.4146640000000  0.5381740000000 1.0
C      1  0.4684270000000  0.4511190000000  0.4154960000000 1.0
C      1  0.4915340000000  0.5293290000000  0.5621280000000 1.0
C      1  0.4374880000000  0.4981490000000  0.3811670000000 1.0
C      1  0.5112780000000  0.5059720000000  0.4107710000000 1.0
C      1  0.4416920000000  0.5410610000000  0.4280000000000 1.0
C      1  0.5826450000000  0.5153570000000  0.5580500000000 1.0
C      1  0.5538990000000  0.4056940000000  0.5094270000000 1.0
C      1  0.5218590000000  0.6117330000000  0.5218970000000 1.0
C      1  0.4027740000000  0.4873060000000  0.5003430000000 1.0
C      1  0.3955070000000  0.5136380000000  0.5106100000000 1.0
C      1  0.3758710000000  0.4752070000000  0.4609630000000 1.0
C      1  0.5167040000000  0.5660330000000  0.5687340000000 1.0
C      1  0.5632260000000  0.4358330000000  0.4581340000000 1.0
C      1  0.5386970000000  0.4411120000000  0.4417430000000 1.0
C      1  0.5547940000000  0.5307150000000  0.4921120000000 1.0
C      1  0.5691860000000  0.5553900000000  0.4898490000000 1.0
C      1  0.4399550000000  0.5466460000000  0.5680870000000 1.0
C      1  0.5656600000000  0.4503830000000  0.5040260000000 1.0
C      1  0.5684730000000  0.5604450000000  0.4633240000000 1.0
C      1  0.5625450000000  0.5616210000000  0.5527370000000 1.0
C      1  0.4140730000000  0.4669140000000  0.5196970000000 1.0
C      1  0.4737240000000  0.6179410000000  0.5132910000000 1.0
C      1  0.4134540000000  0.4766860000000  0.5472600000000 1.0
C      1  0.5738330000000  0.4583110000000  0.5783230000000 1.0
C      1  0.4572440000000  0.4823220000000  0.4990350000000 1.0
C      1  0.4464230000000  0.5519240000000  0.5222890000000 1.0
C      1  0.5561420000000  0.5204300000000  0.5179030000000 1.0
C      1  0.4669710000000  0.5554790000000  0.4227350000000 1.0
C      1  0.5061980000000  0.5517840000000  0.4916550000000 1.0
C      1  0.5145710000000  0.3512130000000  0.6235890000000 1.0
C      1  0.5477630000000  0.5194800000000  0.4371930000000 1.0
C      1  0.5031920000000  0.4719780000000  0.4440890000000 1.0
C      1  0.5033040000000  0.4061930000000  0.4576120000000 1.0
C      1  0.5514620000000  0.5425320000000  0.4206910000000 1.0
C      1  0.6008350000000  0.5155670000000  0.5045200000000 1.0
C      1  0.4600610000000  0.5936730000000  0.5098130000000 1.0
C      1  0.5926840000000  0.4797810000000  0.4716300000000 1.0
C      1  0.5482130000000  0.5292410000000  0.5892860000000 1.0
C      1  0.5887080000000  0.4670070000000  0.4973170000000 1.0
C      1  0.4481770000000  0.4708670000000  0.4227880000000 1.0
C      1  0.5849360000000  0.4545600000000  0.5516990000000 1.0
C      1  0.5154180000000  0.5700710000000  0.4387830000000 1.0
C      1  0.4830060000000  0.4724210000000  0.5052770000000 1.0
C      1  0.4255700000000  0.4962470000000  0.5649650000000 1.0
C      1  0.4394630000000  0.5027980000000  0.3551630000000 1.0
C      1  0.5151310000000  0.4445480000000  0.5152340000000 1.0
C      1  0.5980740000000  0.5378010000000  0.4288480000000 1.0
C      1  0.4746600000000  0.4280610000000  0.5338800000000 1.0
C      1  0.4386070000000  0.4761630000000  0.4502700000000 1.0
C      1  0.5295820000000  0.5516240000000  0.5911290000000 1.0
C      1  0.4301430000000  0.4416230000000  0.5150710000000 1.0
C      1  0.4912870000000  0.4356360000000  0.4193640000000 1.0
C      1  0.4582400000000  0.5351320000000  0.4802670000000 1.0
C      1  0.4575180000000  0.5756240000000  0.5325900000000 1.0
C      1  0.4631120000000  0.5308490000000  0.5105790000000 1.0
C      1  0.5621810000000  0.4244400000000  0.4873930000000 1.0
C      1  0.5256490000000  0.5533850000000  0.4166410000000 1.0
C      1  0.4187740000000  0.4972910000000  0.4517550000000 1.0
C      1  0.4958560000000  0.4551130000000  0.4665730000000 1.0
C      1  0.4664020000000  0.4908820000000  0.5460980000000 1.0
C      1  0.5482400000000  0.4982190000000  0.5923110000000 1.0
C      1  0.4622730000000  0.5664800000000  0.5600940000000 1.0
C      1  0.4849130000000  0.5727500000000  0.4399980000000 1.0
C      1  0.4892610000000  0.5575320000000  0.5646170000000 1.0
C      1  0.5725890000000  0.4772050000000  0.5392400000000 1.0
C      1  0.3912450000000  0.5338260000000  0.4885280000000 1.0
C      1  0.5680370000000  0.5377670000000  0.5689730000000 1.0
C      1  0.5361990000000  0.5739530000000  0.4616040000000 1.0
C      1  0.5295720000000  0.4999330000000  0.5530050000000 1.0
C      1  0.5146230000000  0.3867960000000  0.5849040000000 1.0
C      1  0.5408550000000  0.4861840000000  0.4684140000000 1.0
C      1  0.5086290000000  0.5155260000000  0.5162410000000 1.0
C      1  0.4534460000000  0.4225480000000  0.5151590000000 1.0
C      1  0.5835130000000  0.5693550000000  0.5091180000000 1.0
C      1  0.4419720000000  0.5077480000000  0.3296920000000 1.0
C      1  0.3991970000000  0.4870900000000  0.4710950000000 1.0
C      1  0.5780540000000  0.5465970000000  0.4126390000000 1.0
C      1  0.4211770000000  0.5244800000000  0.5586230000000 1.0
C      1  0.5928820000000  0.5322880000000  0.4555190000000 1.0
C      1  0.4392520000000  0.5578880000000  0.4784530000000 1.0
C      1  0.4966430000000  0.4676170000000  0.5777190000000 1.0
C      1  0.4721350000000  0.5879870000000  0.4606140000000 1.0
C      1  0.5317820000000  0.5170380000000  0.5307590000000 1.0
C      1  0.4753230000000  0.5096240000000  0.4423100000000 1.0
C      1  0.4901260000000  0.4120410000000  0.5515770000000 1.0
C      1  0.4129460000000  0.5527720000000  0.4904990000000 1.0
C      1  0.4855970000000  0.3998200000000  0.4776500000000 1.0
C      1  0.5055630000000  0.5094220000000  0.6014900000000 1.0
C      1  0.4895140000000  0.4524960000000  0.5264480000000 1.0
C      1  0.4720110000000  0.4793470000000  0.5919320000000 1.0
C      1  0.5388700000000  0.5171310000000  0.4668980000000 1.0
C      1  0.4558450000000  0.5027590000000  0.5202410000000 1.0
C      1  0.4814940000000  0.5445640000000  0.4005410000000 1.0
C      1  0.4190280000000  0.5510270000000  0.5189800000000 1.0
C      1  0.5102830000000  0.5110090000000  0.5727340000000 1.0
C      1  0.5972970000000  0.5094380000000  0.4749610000000 1.0
C      1  0.4921080000000  0.4929800000000  0.4282840000000 1.0
C      1  0.3694060000000  0.5360620000000  0.4725660000000 1.0
C      1  0.5369640000000  0.4968310000000  0.4221070000000 1.0
C      1  0.5459920000000  0.4464710000000  0.5796500000000 1.0
C      1  0.4833190000000  0.4970280000000  0.6112550000000 1.0
C      1  0.5333940000000  0.4723510000000  0.4403080000000 1.0
C      1  0.5146580000000  0.3686990000000  0.6042530000000 1.0
C      1  0.5024670000000  0.4923420000000  0.5027730000000 1.0
C      1  0.5825910000000  0.5718340000000  0.5357770000000 1.0
C      1  0.5353070000000  0.5711710000000  0.5464420000000 1.0
C      1  0.4543560000000  0.5830420000000  0.4824680000000 1.0
C      1  0.5293590000000  0.5843430000000  0.5198080000000 1.0
C      1  0.5074370000000  0.5341800000000  0.4042690000000 1.0
C      1  0.5246130000000  0.5731280000000  0.4924780000000 1.0
C      1  0.5368180000000  0.4546680000000  0.5279290000000 1.0
C      1  0.5789170000000  0.4332860000000  0.5353200000000 1.0
C      1  0.4684420000000  0.4473700000000  0.4679040000000 1.0
C      1  0.4989120000000  0.6252120000000  0.5187350000000 1.0
C      1  0.5396220000000  0.4216560000000  0.5617340000000 1.0
C      1  0.3541920000000  0.4643700000000  0.4513930000000 1.0
C      1  0.4644830000000  0.4049050000000  0.4946510000000 1.0
C      1  0.5265650000000  0.4685930000000  0.5868780000000 1.0
C      1  0.4380400000000  0.4947160000000  0.4086990000000 1.0
C      1  0.5077630000000  0.5319670000000  0.4703850000000 1.0
C      1  0.4880730000000  0.4705770000000  0.5497790000000 1.0
C      1  0.4922610000000  0.5377270000000  0.5122130000000 1.0
C      1  0.5145960000000  0.4071410000000  0.5656030000000 1.0
C      1  0.4554970000000  0.4262800000000  0.4558080000000 1.0
C      1  0.5831640000000  0.5167020000000  0.5283190000000 1.0
C      1  0.5839190000000  0.4578530000000  0.4536850000000 1.0
C      1  0.5736700000000  0.4886660000000  0.5813630000000 1.0
C      1  0.4511170000000  0.4693040000000  0.4742240000000 1.0
C      1  0.4071820000000  0.5289720000000  0.5332130000000 1.0
C      1  0.5163050000000  0.4509140000000  0.4871130000000 1.0
C      1  0.4801630000000  0.5258970000000  0.4638890000000 1.0
C      1  0.4525280000000  0.4895590000000  0.5721460000000 1.0
C      1  0.5400720000000  0.4671510000000  0.4864010000000 1.0
C      1  0.5439600000000  0.4768680000000  0.5426410000000 1.0
END
