TITL C-599894-471-1123 0.228869288373146 125000 -363.726390019362 0 0 60 (C1) n - 1
REM
REM in /home/nfs/bkarasulu/CARBON/AIRSS/Generating-Clusters/TERSOFF/Only-C1/FIRE-HFTN
REM
REM
REM
REM
REM
REM ./C.cell (11c1c37f851c82e70ff6c80c92926a4b)
REM AIRSS Version 0.9.1 bugfix July 2018 build 013d7b7c2542+ Fri, 06 Jul 2018 19:26:36 +0100
REM compiler GCC version 9.2.1 20190827 (Red Hat 9.2.1-1)
REM options -cpp -mtune=generic -march=x86-64 -g -O0 -fpre-include=/usr/include/finclude/math-vector-fortran.h
REM seed 1211513165 127202749 -535784274 -339055587 -2092614843 -642595693 1645908110 685005048 -632553241 1840797866 -22888363 -1823387329 2037413737 -1201969594 -769526601 -1338639627 -472977365 -131273950 -1622004647 1673169709 1037967611 -1848532160 -1834374165 1684348343 1999427053 230362577 -657191408 1812742246 -1052155941 -1689376645 1254901744 421684842 890221513
REM
CELL 1.54180   50.00000   50.00000   50.00000   90.00000   90.00000   90.00000
LATT -1
SFAC C  
C      1  0.4274060000000  0.4827290000000  0.5719780000000 1.0
C      1  0.5658780000000  0.5500220000000  0.4686370000000 1.0
C      1  0.4560310000000  0.5205350000000  0.5764130000000 1.0
C      1  0.4530510000000  0.5397390000000  0.5581700000000 1.0
C      1  0.5292200000000  0.4543500000000  0.5574960000000 1.0
C      1  0.5221350000000  0.4181900000000  0.4432580000000 1.0
C      1  0.5145080000000  0.4403740000000  0.4864820000000 1.0
C      1  0.5518780000000  0.5711280000000  0.4549080000000 1.0
C      1  0.5858760000000  0.5313160000000  0.4621380000000 1.0
C      1  0.4780170000000  0.4213820000000  0.5155410000000 1.0
C      1  0.4735220000000  0.4747810000000  0.5846270000000 1.0
C      1  0.5322570000000  0.5682140000000  0.4962400000000 1.0
C      1  0.5688000000000  0.4494960000000  0.4872000000000 1.0
C      1  0.5005610000000  0.4824880000000  0.5840420000000 1.0
C      1  0.4691430000000  0.5647250000000  0.5173590000000 1.0
C      1  0.4685940000000  0.4471650000000  0.5810950000000 1.0
C      1  0.4453520000000  0.5000970000000  0.4495080000000 1.0
C      1  0.5448380000000  0.5194260000000  0.5019410000000 1.0
C      1  0.5287460000000  0.5802930000000  0.4697720000000 1.0
C      1  0.5476330000000  0.4929580000000  0.5800760000000 1.0
C      1  0.4191210000000  0.4723730000000  0.5486980000000 1.0
C      1  0.4805770000000  0.4388560000000  0.4248520000000 1.0
C      1  0.4453940000000  0.5402040000000  0.4846260000000 1.0
C      1  0.4805900000000  0.5746820000000  0.4697170000000 1.0
C      1  0.4790880000000  0.4839160000000  0.5106270000000 1.0
C      1  0.5591290000000  0.4274800000000  0.4747540000000 1.0
C      1  0.5239290000000  0.4657730000000  0.4962950000000 1.0
C      1  0.5524230000000  0.4716240000000  0.4937690000000 1.0
C      1  0.4349220000000  0.5351260000000  0.5111840000000 1.0
C      1  0.4973240000000  0.6481140000000  0.4069430000000 1.0
C      1  0.5316370000000  0.4254950000000  0.4685750000000 1.0
C      1  0.5198240000000  0.5108810000000  0.5115700000000 1.0
C      1  0.5067070000000  0.4863240000000  0.5066890000000 1.0
C      1  0.4909140000000  0.4248220000000  0.5407710000000 1.0
C      1  0.4499720000000  0.4170410000000  0.5162870000000 1.0
C      1  0.4991070000000  0.6286910000000  0.4242400000000 1.0
C      1  0.6259090000000  0.5418900000000  0.4277580000000 1.0
C      1  0.5829290000000  0.5065170000000  0.4754180000000 1.0
C      1  0.4429050000000  0.5227930000000  0.4631830000000 1.0
C      1  0.5263540000000  0.4769440000000  0.5740990000000 1.0
C      1  0.4878030000000  0.4321160000000  0.4910110000000 1.0
C      1  0.5617910000000  0.4982900000000  0.4921810000000 1.0
C      1  0.4927790000000  0.5755300000000  0.5272270000000 1.0
C      1  0.4655260000000  0.4507250000000  0.4455010000000 1.0
C      1  0.4652120000000  0.5611560000000  0.4885870000000 1.0
C      1  0.4535880000000  0.4775250000000  0.5151570000000 1.0
C      1  0.4319540000000  0.4627140000000  0.5257190000000 1.0
C      1  0.4693200000000  0.4391250000000  0.4708510000000 1.0
C      1  0.6066230000000  0.5365900000000  0.4444650000000 1.0
C      1  0.5034390000000  0.5881360000000  0.4601960000000 1.0
C      1  0.4520770000000  0.4931540000000  0.5809370000000 1.0
C      1  0.4304560000000  0.4353870000000  0.5190900000000 1.0
C      1  0.5033760000000  0.4246420000000  0.4252580000000 1.0
C      1  0.5009670000000  0.6089450000000  0.4418060000000 1.0
C      1  0.5500690000000  0.5458040000000  0.4933100000000 1.0
C      1  0.4523820000000  0.4752460000000  0.4430910000000 1.0
C      1  0.4505330000000  0.5479940000000  0.5318430000000 1.0
C      1  0.4747030000000  0.4275430000000  0.5638710000000 1.0
C      1  0.5180870000000  0.5759100000000  0.5187890000000 1.0
C      1  0.5171160000000  0.4345140000000  0.5441750000000 1.0
END
