TITL C-599893-4344-576 -0.0450784471052747 125000 -1000.85208409633 0 0 164 (C1) n - 1
REM
REM in /home/nfs/bkarasulu/CARBON/AIRSS/Generating-Clusters/TERSOFF/Only-C1/FIRE-HFTN
REM
REM
REM
REM
REM
REM ./C.cell (11c1c37f851c82e70ff6c80c92926a4b)
REM AIRSS Version 0.9.1 bugfix July 2018 build 013d7b7c2542+ Fri, 06 Jul 2018 19:26:36 +0100
REM compiler GCC version 9.2.1 20190827 (Red Hat 9.2.1-1)
REM options -cpp -mtune=generic -march=x86-64 -g -O0 -fpre-include=/usr/include/finclude/math-vector-fortran.h
REM seed -1497782606 509172742 2137680090 372605730 2004953925 1961467938 1818755260 1348740432 59449173 -643947274 -271910069 -315232695 -429574994 -189952294 1792849878 -284809260 -57459849 920051216 255456397 -1054490166 -1139226649 -696356138 -416756464 1966160222 1652268761 -854149401 -1393753332 -1974042587 1821186465 -1235284221 -2051812888 156598791 -1889442749
REM
CELL 1.54180   50.00000   50.00000   50.00000   90.00000   90.00000   90.00000
LATT -1
SFAC C  
C      1  0.5359920000000  0.5267870000000  0.5591850000000 1.0
C      1  0.4763120000000  0.4990720000000  0.5282090000000 1.0
C      1  0.5569670000000  0.4462050000000  0.5068410000000 1.0
C      1  0.5844050000000  0.5797660000000  0.4633790000000 1.0
C      1  0.5659200000000  0.6032740000000  0.5054730000000 1.0
C      1  0.5002030000000  0.4294090000000  0.5129740000000 1.0
C      1  0.4492270000000  0.4310940000000  0.4363960000000 1.0
C      1  0.4729390000000  0.6287790000000  0.4634460000000 1.0
C      1  0.4933750000000  0.5482660000000  0.4057570000000 1.0
C      1  0.4556420000000  0.5091420000000  0.4157230000000 1.0
C      1  0.4632280000000  0.6022010000000  0.5780720000000 1.0
C      1  0.5401730000000  0.3854830000000  0.4993420000000 1.0
C      1  0.6018080000000  0.5653770000000  0.4456670000000 1.0
C      1  0.4311450000000  0.5871740000000  0.3903670000000 1.0
C      1  0.4463560000000  0.4471560000000  0.5239800000000 1.0
C      1  0.4905880000000  0.4852420000000  0.6277850000000 1.0
C      1  0.4640550000000  0.4965300000000  0.4700200000000 1.0
C      1  0.5534350000000  0.3986800000000  0.5800250000000 1.0
C      1  0.3904710000000  0.4545390000000  0.3889840000000 1.0
C      1  0.5865700000000  0.5917210000000  0.4891160000000 1.0
C      1  0.4859840000000  0.4535520000000  0.5539560000000 1.0
C      1  0.5592520000000  0.5943660000000  0.5323930000000 1.0
C      1  0.5384610000000  0.4871150000000  0.4365830000000 1.0
C      1  0.4912820000000  0.4785550000000  0.5146690000000 1.0
C      1  0.4262960000000  0.5052220000000  0.5353340000000 1.0
C      1  0.4069430000000  0.4856210000000  0.5492230000000 1.0
C      1  0.6005380000000  0.4118010000000  0.5831910000000 1.0
C      1  0.5559220000000  0.5271450000000  0.6086560000000 1.0
C      1  0.5231340000000  0.5823240000000  0.4237370000000 1.0
C      1  0.5305410000000  0.5975990000000  0.5400480000000 1.0
C      1  0.4739890000000  0.5745800000000  0.5390660000000 1.0
C      1  0.6285260000000  0.5267610000000  0.4717930000000 1.0
C      1  0.5764610000000  0.4573890000000  0.4252490000000 1.0
C      1  0.5738160000000  0.4601850000000  0.5534470000000 1.0
C      1  0.4744580000000  0.6440800000000  0.4850410000000 1.0
C      1  0.3923410000000  0.4294930000000  0.3984700000000 1.0
C      1  0.5002620000000  0.3879570000000  0.5346460000000 1.0
C      1  0.5326940000000  0.5437070000000  0.4830990000000 1.0
C      1  0.5233560000000  0.5110660000000  0.4369280000000 1.0
C      1  0.5042240000000  0.5749410000000  0.5062590000000 1.0
C      1  0.4372270000000  0.5104820000000  0.5069030000000 1.0
C      1  0.4653080000000  0.4349890000000  0.5897660000000 1.0
C      1  0.6112920000000  0.4799690000000  0.5772980000000 1.0
C      1  0.4105300000000  0.5500700000000  0.5564290000000 1.0
C      1  0.5207310000000  0.5716710000000  0.5297540000000 1.0
C      1  0.5080370000000  0.6074650000000  0.5546580000000 1.0
C      1  0.5072380000000  0.5544670000000  0.4877250000000 1.0
C      1  0.4077020000000  0.4611450000000  0.4925410000000 1.0
C      1  0.5174920000000  0.4301890000000  0.5834620000000 1.0
C      1  0.5750130000000  0.5022210000000  0.4088370000000 1.0
C      1  0.5295090000000  0.5021230000000  0.5444780000000 1.0
C      1  0.4294270000000  0.4708060000000  0.5902170000000 1.0
C      1  0.4745660000000  0.4153300000000  0.4382090000000 1.0
C      1  0.5312320000000  0.4816050000000  0.4821470000000 1.0
C      1  0.5866650000000  0.5221660000000  0.5296280000000 1.0
C      1  0.6002660000000  0.5052920000000  0.6195240000000 1.0
C      1  0.4760800000000  0.5812650000000  0.5108290000000 1.0
C      1  0.5038680000000  0.4559350000000  0.5302150000000 1.0
C      1  0.4899220000000  0.5253570000000  0.5218710000000 1.0
C      1  0.5214250000000  0.5213110000000  0.3800940000000 1.0
C      1  0.5679010000000  0.5203900000000  0.5087780000000 1.0
C      1  0.5192490000000  0.4532230000000  0.4007010000000 1.0
C      1  0.4567310000000  0.5058990000000  0.5751900000000 1.0
C      1  0.4529080000000  0.4534550000000  0.4160360000000 1.0
C      1  0.5079340000000  0.4762480000000  0.3920390000000 1.0
C      1  0.5752750000000  0.3956300000000  0.4643370000000 1.0
C      1  0.4655620000000  0.4897700000000  0.6197060000000 1.0
C      1  0.5014560000000  0.5203850000000  0.4495960000000 1.0
C      1  0.4959330000000  0.4665170000000  0.4552060000000 1.0
C      1  0.4857640000000  0.4511290000000  0.4766670000000 1.0
C      1  0.5374170000000  0.5931230000000  0.4462650000000 1.0
C      1  0.5672220000000  0.5641120000000  0.4057220000000 1.0
C      1  0.4475460000000  0.4919610000000  0.5983850000000 1.0
C      1  0.4970050000000  0.4128980000000  0.4580680000000 1.0
C      1  0.5326930000000  0.4686410000000  0.6086730000000 1.0
C      1  0.4390850000000  0.5878020000000  0.5787730000000 1.0
C      1  0.4293760000000  0.5339960000000  0.4923960000000 1.0
C      1  0.5561360000000  0.4027580000000  0.4838130000000 1.0
C      1  0.5301020000000  0.4717700000000  0.5394520000000 1.0
C      1  0.4513430000000  0.5899890000000  0.4065930000000 1.0
C      1  0.5197020000000  0.5138610000000  0.5184420000000 1.0
C      1  0.5575050000000  0.5750730000000  0.4553870000000 1.0
C      1  0.6222040000000  0.4957800000000  0.5135610000000 1.0
C      1  0.5181270000000  0.4799810000000  0.6299070000000 1.0
C      1  0.5858880000000  0.4095240000000  0.4438540000000 1.0
C      1  0.4911820000000  0.4385690000000  0.5780270000000 1.0
C      1  0.5372570000000  0.4400370000000  0.4588820000000 1.0
C      1  0.3772950000000  0.4233660000000  0.5170130000000 1.0
C      1  0.4770950000000  0.6567840000000  0.5076530000000 1.0
C      1  0.5779760000000  0.5197920000000  0.6216410000000 1.0
C      1  0.4803650000000  0.5465210000000  0.5415700000000 1.0
C      1  0.5256650000000  0.4033740000000  0.5773090000000 1.0
C      1  0.4556700000000  0.4617280000000  0.5498670000000 1.0
C      1  0.4818310000000  0.5953050000000  0.5577410000000 1.0
C      1  0.5386120000000  0.4492900000000  0.5892970000000 1.0
C      1  0.6022460000000  0.4985180000000  0.5334570000000 1.0
C      1  0.5138690000000  0.4293100000000  0.4151090000000 1.0
C      1  0.5340160000000  0.6140270000000  0.4652250000000 1.0
C      1  0.4473200000000  0.4883540000000  0.4918200000000 1.0
C      1  0.5870580000000  0.5479460000000  0.5416880000000 1.0
C      1  0.3912090000000  0.4415970000000  0.5037670000000 1.0
C      1  0.5961030000000  0.4786850000000  0.5536030000000 1.0
C      1  0.4062850000000  0.4776820000000  0.5752550000000 1.0
C      1  0.6130870000000  0.4897720000000  0.6020090000000 1.0
C      1  0.3641980000000  0.4052850000000  0.5312970000000 1.0
C      1  0.4833720000000  0.4095030000000  0.5261950000000 1.0
C      1  0.4010920000000  0.5283590000000  0.4875240000000 1.0
C      1  0.5384580000000  0.5522690000000  0.5443330000000 1.0
C      1  0.4818770000000  0.5188620000000  0.4704210000000 1.0
C      1  0.5502890000000  0.4310620000000  0.4835040000000 1.0
C      1  0.5207900000000  0.5466940000000  0.3927730000000 1.0
C      1  0.5907530000000  0.5632740000000  0.4192160000000 1.0
C      1  0.3998430000000  0.5082580000000  0.4674990000000 1.0
C      1  0.4447880000000  0.4506680000000  0.5768480000000 1.0
C      1  0.4684270000000  0.6219660000000  0.5961880000000 1.0
C      1  0.3897570000000  0.5321550000000  0.5136850000000 1.0
C      1  0.3970490000000  0.4790240000000  0.4727390000000 1.0
C      1  0.4536940000000  0.4938550000000  0.5476700000000 1.0
C      1  0.4036260000000  0.4164460000000  0.4189910000000 1.0
C      1  0.6299750000000  0.5082000000000  0.4910230000000 1.0
C      1  0.5854230000000  0.4328170000000  0.4306510000000 1.0
C      1  0.4954550000000  0.4261230000000  0.4842730000000 1.0
C      1  0.4565590000000  0.5742520000000  0.4910560000000 1.0
C      1  0.4101310000000  0.5109560000000  0.4389780000000 1.0
C      1  0.4427320000000  0.5534900000000  0.4767740000000 1.0
C      1  0.5312080000000  0.4855580000000  0.6539860000000 1.0
C      1  0.4950020000000  0.5737650000000  0.4204410000000 1.0
C      1  0.5652210000000  0.5661510000000  0.5419520000000 1.0
C      1  0.4354280000000  0.4631930000000  0.5010760000000 1.0
C      1  0.4796490000000  0.5210100000000  0.4031620000000 1.0
C      1  0.4072970000000  0.5304890000000  0.5369630000000 1.0
C      1  0.5005180000000  0.5034100000000  0.3894310000000 1.0
C      1  0.4353110000000  0.5240320000000  0.4319450000000 1.0
C      1  0.4693570000000  0.4391790000000  0.3967760000000 1.0
C      1  0.4866230000000  0.4206780000000  0.4108750000000 1.0
C      1  0.5087650000000  0.3873860000000  0.5615410000000 1.0
C      1  0.4213770000000  0.5696450000000  0.5707620000000 1.0
C      1  0.4733170000000  0.6103400000000  0.4444270000000 1.0
C      1  0.3985580000000  0.4877840000000  0.4252310000000 1.0
C      1  0.5632640000000  0.4822800000000  0.4235100000000 1.0
C      1  0.5482090000000  0.5497010000000  0.4614450000000 1.0
C      1  0.4585460000000  0.4806490000000  0.4237400000000 1.0
C      1  0.5415390000000  0.5267620000000  0.5032430000000 1.0
C      1  0.5132500000000  0.4902730000000  0.5006960000000 1.0
C      1  0.5459880000000  0.6169560000000  0.4896270000000 1.0
C      1  0.5409720000000  0.5270000000000  0.5866930000000 1.0
C      1  0.4731080000000  0.5911690000000  0.4241230000000 1.0
C      1  0.5645120000000  0.4448110000000  0.5764240000000 1.0
C      1  0.4562140000000  0.4194450000000  0.5243710000000 1.0
C      1  0.3911400000000  0.4692140000000  0.4462790000000 1.0
C      1  0.4425190000000  0.5465580000000  0.4487580000000 1.0
C      1  0.4730500000000  0.4811230000000  0.4479490000000 1.0
C      1  0.6200640000000  0.5468530000000  0.4562950000000 1.0
C      1  0.5269410000000  0.4680550000000  0.4563480000000 1.0
C      1  0.5389170000000  0.5655700000000  0.4047440000000 1.0
C      1  0.3946820000000  0.4791470000000  0.3990190000000 1.0
C      1  0.5550850000000  0.4595680000000  0.5319270000000 1.0
C      1  0.4871400000000  0.5345140000000  0.4926970000000 1.0
C      1  0.5742280000000  0.4179870000000  0.5799490000000 1.0
C      1  0.3514380000000  0.3875320000000  0.5454970000000 1.0
C      1  0.5212640000000  0.4223410000000  0.4427350000000 1.0
C      1  0.5435610000000  0.4906530000000  0.6763620000000 1.0
C      1  0.5195010000000  0.3792030000000  0.5153710000000 1.0
C      1  0.4239190000000  0.4187140000000  0.4364020000000 1.0
END
