TITL C-599891-72-669 0.0697104439637312 125000 -356.608003308167 0 0 60 (C1) n - 1
REM
REM in /home/nfs/bkarasulu/CARBON/AIRSS/Generating-Clusters/TERSOFF/Only-C1/FIRE-HFTN
REM
REM
REM
REM
REM
REM ./C.cell (11c1c37f851c82e70ff6c80c92926a4b)
REM AIRSS Version 0.9.1 bugfix July 2018 build 013d7b7c2542+ Fri, 06 Jul 2018 19:26:36 +0100
REM compiler GCC version 9.2.1 20190827 (Red Hat 9.2.1-1)
REM options -cpp -mtune=generic -march=x86-64 -g -O0 -fpre-include=/usr/include/finclude/math-vector-fortran.h
REM seed -920656990 2125050182 1663273176 1623430151 -1786854553 -1778610689 321331755 -134464958 -449640478 -1365054280 1537107282 310890803 -770704225 -1598650476 -1030271272 -947669456 -1664460291 2101974739 -698092487 -2086982225 656621346 1610722459 -27498320 -1016722508 -368245986 -385148330 1681939198 -1885972617 -625287520 1609190310 739463280 -1223834982 -886655767
REM
CELL 1.54180   50.00000   50.00000   50.00000   90.00000   90.00000   90.00000
LATT -1
SFAC C  
C      1  0.5615390000000  0.5215520000000  0.4809820000000 1.0
C      1  0.5235080000000  0.4901490000000  0.4544510000000 1.0
C      1  0.4727170000000  0.4480570000000  0.5375420000000 1.0
C      1  0.4865270000000  0.4685520000000  0.5535010000000 1.0
C      1  0.4405440000000  0.5379470000000  0.4672180000000 1.0
C      1  0.5133470000000  0.4736410000000  0.5175270000000 1.0
C      1  0.5028360000000  0.5632990000000  0.4752470000000 1.0
C      1  0.5684320000000  0.5063780000000  0.5282510000000 1.0
C      1  0.5371990000000  0.4773950000000  0.5594980000000 1.0
C      1  0.4747640000000  0.5378660000000  0.5298530000000 1.0
C      1  0.4731640000000  0.5948320000000  0.4949780000000 1.0
C      1  0.5306640000000  0.5410000000000  0.5149030000000 1.0
C      1  0.4439140000000  0.4959760000000  0.4441310000000 1.0
C      1  0.4274190000000  0.4958130000000  0.5570990000000 1.0
C      1  0.5399650000000  0.4316520000000  0.4802760000000 1.0
C      1  0.5141550000000  0.4662480000000  0.5462710000000 1.0
C      1  0.5843570000000  0.4855480000000  0.5166260000000 1.0
C      1  0.4793270000000  0.4634260000000  0.4478490000000 1.0
C      1  0.4769840000000  0.5900880000000  0.5213030000000 1.0
C      1  0.4205410000000  0.4897200000000  0.5316170000000 1.0
C      1  0.5610790000000  0.4415590000000  0.5219950000000 1.0
C      1  0.5816900000000  0.5349940000000  0.4671680000000 1.0
C      1  0.6011280000000  0.5476410000000  0.4543600000000 1.0
C      1  0.3962960000000  0.5567920000000  0.5255250000000 1.0
C      1  0.4897070000000  0.4261400000000  0.5301100000000 1.0
C      1  0.4377440000000  0.4792880000000  0.5116490000000 1.0
C      1  0.4775540000000  0.4355890000000  0.4424170000000 1.0
C      1  0.4499890000000  0.4961110000000  0.4918230000000 1.0
C      1  0.5657760000000  0.4362790000000  0.4692750000000 1.0
C      1  0.4991490000000  0.4220700000000  0.4524350000000 1.0
C      1  0.4962660000000  0.4776440000000  0.4944500000000 1.0
C      1  0.4856360000000  0.5279880000000  0.5024180000000 1.0
C      1  0.5804020000000  0.4586840000000  0.5090590000000 1.0
C      1  0.4782440000000  0.5006910000000  0.4954420000000 1.0
C      1  0.6203010000000  0.5600740000000  0.4418120000000 1.0
C      1  0.5131360000000  0.5020910000000  0.4307060000000 1.0
C      1  0.5146830000000  0.4204000000000  0.5213500000000 1.0
C      1  0.4771050000000  0.5758560000000  0.4742900000000 1.0
C      1  0.5265530000000  0.4979700000000  0.5193920000000 1.0
C      1  0.5169980000000  0.4395340000000  0.4666400000000 1.0
C      1  0.4680370000000  0.4854650000000  0.4344070000000 1.0
C      1  0.5185540000000  0.5212800000000  0.5336510000000 1.0
C      1  0.4516600000000  0.4988960000000  0.5685870000000 1.0
C      1  0.4550300000000  0.5604960000000  0.4654970000000 1.0
C      1  0.5092020000000  0.5439460000000  0.4947550000000 1.0
C      1  0.4782630000000  0.4959240000000  0.5592010000000 1.0
C      1  0.4876330000000  0.5013480000000  0.4215720000000 1.0
C      1  0.4516530000000  0.4560390000000  0.5204540000000 1.0
C      1  0.5451910000000  0.5024360000000  0.4677920000000 1.0
C      1  0.5388850000000  0.4286390000000  0.5090490000000 1.0
C      1  0.4921160000000  0.5192570000000  0.5474070000000 1.0
C      1  0.4398260000000  0.5096520000000  0.4685690000000 1.0
C      1  0.4452270000000  0.5372590000000  0.5311750000000 1.0
C      1  0.5558270000000  0.4966160000000  0.5527590000000 1.0
C      1  0.4810220000000  0.5671080000000  0.5347620000000 1.0
C      1  0.3724200000000  0.5662790000000  0.5211130000000 1.0
C      1  0.5570830000000  0.5272170000000  0.5091180000000 1.0
C      1  0.5052850000000  0.4685720000000  0.4668110000000 1.0
C      1  0.4205580000000  0.5469080000000  0.5295220000000 1.0
C      1  0.5851930000000  0.4501290000000  0.4823580000000 1.0
END
