TITL C-599891-72-300 0.0419057001659931 125000 -336.712550586421 0 0 58 (C1) n - 1
REM
REM in /home/nfs/bkarasulu/CARBON/AIRSS/Generating-Clusters/TERSOFF/Only-C1/FIRE-HFTN
REM
REM
REM
REM
REM
REM ./C.cell (11c1c37f851c82e70ff6c80c92926a4b)
REM AIRSS Version 0.9.1 bugfix July 2018 build 013d7b7c2542+ Fri, 06 Jul 2018 19:26:36 +0100
REM compiler GCC version 9.2.1 20190827 (Red Hat 9.2.1-1)
REM options -cpp -mtune=generic -march=x86-64 -g -O0 -fpre-include=/usr/include/finclude/math-vector-fortran.h
REM seed 1500648201 1036215057 -1438405 -1167085101 -1118128523 1809042369 -639258910 -2083981654 -800610602 634912359 -1674736119 1797664981 1110292370 841684445 48344708 -98885284 -1272429632 -1460356156 -634048181 1564321886 -958782646 -91404002 1821735615 -304392358 1596555944 1030263308 -245089162 -1984370532 776479263 1489990518 -786654519 2128392393 -672124430
REM
CELL 1.54180   50.00000   50.00000   50.00000   90.00000   90.00000   90.00000
LATT -1
SFAC C  
C      1  0.6375720000000  0.5025570000000  0.4851620000000 1.0
C      1  0.5475320000000  0.4817450000000  0.4650350000000 1.0
C      1  0.4975390000000  0.5193200000000  0.4493520000000 1.0
C      1  0.4287800000000  0.5447540000000  0.5388530000000 1.0
C      1  0.4762170000000  0.5364170000000  0.4572990000000 1.0
C      1  0.5469520000000  0.5097310000000  0.4605820000000 1.0
C      1  0.5889810000000  0.4895150000000  0.5517470000000 1.0
C      1  0.4623100000000  0.4640290000000  0.4703300000000 1.0
C      1  0.5228670000000  0.4852650000000  0.5084990000000 1.0
C      1  0.4466250000000  0.5570520000000  0.4927790000000 1.0
C      1  0.5143580000000  0.5317930000000  0.5055300000000 1.0
C      1  0.4910320000000  0.4863340000000  0.5606910000000 1.0
C      1  0.5447620000000  0.4857810000000  0.5235740000000 1.0
C      1  0.5966090000000  0.5195140000000  0.4637800000000 1.0
C      1  0.5308010000000  0.5551320000000  0.4718200000000 1.0
C      1  0.4751280000000  0.5155090000000  0.5214420000000 1.0
C      1  0.4571000000000  0.4971410000000  0.5100090000000 1.0
C      1  0.5073250000000  0.5750200000000  0.5174220000000 1.0
C      1  0.4647930000000  0.5271150000000  0.5678330000000 1.0
C      1  0.5601040000000  0.5535650000000  0.4707570000000 1.0
C      1  0.5153930000000  0.4425630000000  0.4773600000000 1.0
C      1  0.4671900000000  0.4399100000000  0.4894620000000 1.0
C      1  0.5185480000000  0.5724750000000  0.4920670000000 1.0
C      1  0.4477110000000  0.4383110000000  0.5119030000000 1.0
C      1  0.5396780000000  0.4577390000000  0.4752740000000 1.0
C      1  0.4830280000000  0.4659260000000  0.4481950000000 1.0
C      1  0.4281660000000  0.4595320000000  0.5117300000000 1.0
C      1  0.5233260000000  0.5279030000000  0.4589530000000 1.0
C      1  0.4701080000000  0.5447330000000  0.4835110000000 1.0
C      1  0.4948030000000  0.5660350000000  0.5404800000000 1.0
C      1  0.4315110000000  0.5566670000000  0.5149740000000 1.0
C      1  0.6113850000000  0.5102460000000  0.4864630000000 1.0
C      1  0.4812360000000  0.5499780000000  0.5584560000000 1.0
C      1  0.4333530000000  0.4660630000000  0.4632170000000 1.0
C      1  0.4870160000000  0.5334790000000  0.5036390000000 1.0
C      1  0.4388910000000  0.5234410000000  0.5545500000000 1.0
C      1  0.4283220000000  0.4969860000000  0.5488060000000 1.0
C      1  0.4916510000000  0.4408070000000  0.5309830000000 1.0
C      1  0.4764660000000  0.5025450000000  0.5801280000000 1.0
C      1  0.5698880000000  0.5271840000000  0.4648910000000 1.0
C      1  0.4912580000000  0.4925720000000  0.4408520000000 1.0
C      1  0.6512500000000  0.5034180000000  0.4615110000000 1.0
C      1  0.4114380000000  0.4845980000000  0.5664150000000 1.0
C      1  0.4361580000000  0.4844190000000  0.5242240000000 1.0
C      1  0.4243240000000  0.4708440000000  0.4373920000000 1.0
C      1  0.5017580000000  0.4446100000000  0.4516580000000 1.0
C      1  0.6122730000000  0.5198640000000  0.4398410000000 1.0
C      1  0.4163510000000  0.4627970000000  0.4858890000000 1.0
C      1  0.4640990000000  0.4306520000000  0.5339400000000 1.0
C      1  0.4962040000000  0.4385350000000  0.4999770000000 1.0
C      1  0.4975510000000  0.4597910000000  0.5519640000000 1.0
C      1  0.4933920000000  0.5047470000000  0.5396330000000 1.0
C      1  0.5004500000000  0.4860290000000  0.4937900000000 1.0
C      1  0.4170230000000  0.4759680000000  0.4129060000000 1.0
C      1  0.5669670000000  0.4875860000000  0.5379200000000 1.0
C      1  0.6384570000000  0.5120950000000  0.4389660000000 1.0
C      1  0.4737620000000  0.4962030000000  0.6065120000000 1.0
C      1  0.4722220000000  0.4854640000000  0.4890740000000 1.0
END
