TITL C-599892-9790-216 -0.00539632216187271 125000 -985.245936109238 0 0 160 (C1) n - 1
REM
REM in /home/nfs/bkarasulu/CARBON/AIRSS/Generating-Clusters/TERSOFF/Only-C1/FIRE-HFTN
REM
REM
REM
REM
REM
REM ./C.cell (11c1c37f851c82e70ff6c80c92926a4b)
REM AIRSS Version 0.9.1 bugfix July 2018 build 013d7b7c2542+ Fri, 06 Jul 2018 19:26:36 +0100
REM compiler GCC version 9.2.1 20190827 (Red Hat 9.2.1-1)
REM options -cpp -mtune=generic -march=x86-64 -g -O0 -fpre-include=/usr/include/finclude/math-vector-fortran.h
REM seed -494939646 254467462 -289841975 -1502926597 -1024993522 1225193257 1845570550 1595643305 821257994 -546076830 -1382167418 -664456159 386760521 -807085089 -1508026626 1416955026 2046128526 972619282 2023913182 -775312486 1037864631 -1427720079 -545947166 905197055 405226960 -769683359 498438494 -2120576986 992120205 -1296189299 794207456 -1344734200 1171727808
REM
CELL 1.54180   50.00000   50.00000   50.00000   90.00000   90.00000   90.00000
LATT -1
SFAC C  
C      1  0.5626560000000  0.5057240000000  0.3977100000000 1.0
C      1  0.4393520000000  0.4346900000000  0.4969440000000 1.0
C      1  0.4800610000000  0.5572990000000  0.4946110000000 1.0
C      1  0.5555820000000  0.5393930000000  0.5706480000000 1.0
C      1  0.5223720000000  0.4645790000000  0.5412570000000 1.0
C      1  0.4139550000000  0.4350810000000  0.4868290000000 1.0
C      1  0.4380250000000  0.5491200000000  0.5525510000000 1.0
C      1  0.5253870000000  0.3881940000000  0.4583480000000 1.0
C      1  0.4553270000000  0.4108520000000  0.4943940000000 1.0
C      1  0.4655930000000  0.3788190000000  0.4074420000000 1.0
C      1  0.5742410000000  0.5283430000000  0.6264630000000 1.0
C      1  0.5392220000000  0.5458470000000  0.5938040000000 1.0
C      1  0.5097070000000  0.6042860000000  0.5809260000000 1.0
C      1  0.5429300000000  0.5015340000000  0.4617560000000 1.0
C      1  0.5207940000000  0.4368930000000  0.4546120000000 1.0
C      1  0.4427710000000  0.4521490000000  0.5693760000000 1.0
C      1  0.5875770000000  0.5492980000000  0.4289700000000 1.0
C      1  0.5088680000000  0.4066100000000  0.5191810000000 1.0
C      1  0.5107610000000  0.5496220000000  0.5480900000000 1.0
C      1  0.4011420000000  0.5336360000000  0.5181850000000 1.0
C      1  0.5428560000000  0.4708540000000  0.4263060000000 1.0
C      1  0.4188790000000  0.4478630000000  0.4303270000000 1.0
C      1  0.5853620000000  0.4830350000000  0.4539210000000 1.0
C      1  0.6261000000000  0.4953190000000  0.5129550000000 1.0
C      1  0.4013800000000  0.4868380000000  0.5327430000000 1.0
C      1  0.4839900000000  0.3983110000000  0.5330620000000 1.0
C      1  0.4906680000000  0.4957680000000  0.4863760000000 1.0
C      1  0.4665650000000  0.4619150000000  0.5577320000000 1.0
C      1  0.5575230000000  0.4819240000000  0.4481630000000 1.0
C      1  0.5684000000000  0.5607510000000  0.5576720000000 1.0
C      1  0.5781750000000  0.4616270000000  0.5029420000000 1.0
C      1  0.4771750000000  0.5130870000000  0.4632560000000 1.0
C      1  0.4815540000000  0.3911650000000  0.4257650000000 1.0
C      1  0.4786900000000  0.3877090000000  0.4545910000000 1.0
C      1  0.5085940000000  0.4321500000000  0.5061080000000 1.0
C      1  0.4915370000000  0.5306230000000  0.5582390000000 1.0
C      1  0.5157460000000  0.4912880000000  0.5476110000000 1.0
C      1  0.4580630000000  0.6051310000000  0.5108230000000 1.0
C      1  0.3990520000000  0.5587020000000  0.5037880000000 1.0
C      1  0.4908800000000  0.4770420000000  0.3897780000000 1.0
C      1  0.5663930000000  0.5031660000000  0.5344910000000 1.0
C      1  0.5030810000000  0.4261830000000  0.3967510000000 1.0
C      1  0.5709800000000  0.4331880000000  0.5066970000000 1.0
C      1  0.4575470000000  0.4022190000000  0.5222240000000 1.0
C      1  0.6357880000000  0.4801700000000  0.5325580000000 1.0
C      1  0.5538860000000  0.5503380000000  0.4700620000000 1.0
C      1  0.5121880000000  0.5595070000000  0.5990500000000 1.0
C      1  0.5106210000000  0.6024340000000  0.4879670000000 1.0
C      1  0.4489990000000  0.5124760000000  0.4663880000000 1.0
C      1  0.4427340000000  0.4875200000000  0.4174200000000 1.0
C      1  0.4274330000000  0.4955880000000  0.5756700000000 1.0
C      1  0.4916340000000  0.4660610000000  0.4786960000000 1.0
C      1  0.5196220000000  0.5736670000000  0.4054130000000 1.0
C      1  0.5311520000000  0.6155310000000  0.5697400000000 1.0
C      1  0.5270040000000  0.5386590000000  0.6383330000000 1.0
C      1  0.5516990000000  0.5428920000000  0.3684180000000 1.0
C      1  0.4909750000000  0.4753880000000  0.4350050000000 1.0
C      1  0.4520330000000  0.5749980000000  0.5560890000000 1.0
C      1  0.4398160000000  0.4317120000000  0.4350090000000 1.0
C      1  0.4903740000000  0.3998610000000  0.5611890000000 1.0
C      1  0.4042160000000  0.4579690000000  0.5352080000000 1.0
C      1  0.3648760000000  0.4923910000000  0.4722900000000 1.0
C      1  0.5309410000000  0.4505080000000  0.5990980000000 1.0
C      1  0.4365530000000  0.4897230000000  0.4767000000000 1.0
C      1  0.4636400000000  0.5864430000000  0.5322370000000 1.0
C      1  0.4125410000000  0.4845330000000  0.4626760000000 1.0
C      1  0.5544990000000  0.6090800000000  0.5584500000000 1.0
C      1  0.5016440000000  0.4510140000000  0.5267560000000 1.0
C      1  0.5038930000000  0.4084170000000  0.4190680000000 1.0
C      1  0.4821380000000  0.5345060000000  0.4451260000000 1.0
C      1  0.4525630000000  0.4553660000000  0.5110260000000 1.0
C      1  0.4744420000000  0.4064540000000  0.5838850000000 1.0
C      1  0.4611130000000  0.5285590000000  0.5494690000000 1.0
C      1  0.4855010000000  0.4281800000000  0.5996790000000 1.0
C      1  0.5585380000000  0.5341830000000  0.3936030000000 1.0
C      1  0.5407420000000  0.4879450000000  0.4023450000000 1.0
C      1  0.4394340000000  0.5376530000000  0.4751610000000 1.0
C      1  0.5786910000000  0.5450400000000  0.4795240000000 1.0
C      1  0.5568880000000  0.4924140000000  0.5835720000000 1.0
C      1  0.4980890000000  0.5023990000000  0.5660330000000 1.0
C      1  0.4561190000000  0.5428760000000  0.4978130000000 1.0
C      1  0.5405080000000  0.5931310000000  0.4432730000000 1.0
C      1  0.4662460000000  0.4093360000000  0.4683060000000 1.0
C      1  0.5155010000000  0.5080730000000  0.5256440000000 1.0
C      1  0.5157250000000  0.5046060000000  0.4986140000000 1.0
C      1  0.4963790000000  0.5802640000000  0.5871460000000 1.0
C      1  0.4134250000000  0.5333180000000  0.5452430000000 1.0
C      1  0.5566740000000  0.4163150000000  0.5236350000000 1.0
C      1  0.5073890000000  0.5565210000000  0.4826720000000 1.0
C      1  0.4460680000000  0.4622500000000  0.6128730000000 1.0
C      1  0.4772120000000  0.5973190000000  0.4078500000000 1.0
C      1  0.4184690000000  0.5497430000000  0.4604980000000 1.0
C      1  0.5058590000000  0.5515690000000  0.6264070000000 1.0
C      1  0.5979720000000  0.5001300000000  0.4335440000000 1.0
C      1  0.5105950000000  0.5692970000000  0.5274250000000 1.0
C      1  0.6068390000000  0.5014460000000  0.4935800000000 1.0
C      1  0.5221810000000  0.4114370000000  0.4420960000000 1.0
C      1  0.4735050000000  0.4543010000000  0.5315320000000 1.0
C      1  0.5489920000000  0.5360100000000  0.6201130000000 1.0
C      1  0.4744890000000  0.4870590000000  0.5690700000000 1.0
C      1  0.5258970000000  0.5439090000000  0.4639760000000 1.0
C      1  0.4984410000000  0.4497940000000  0.3840530000000 1.0
C      1  0.4338550000000  0.4122160000000  0.5373090000000 1.0
C      1  0.5323540000000  0.4087210000000  0.5380910000000 1.0
C      1  0.4813680000000  0.6126640000000  0.4922280000000 1.0
C      1  0.4147860000000  0.4325480000000  0.5386310000000 1.0
C      1  0.4602560000000  0.5232130000000  0.5190170000000 1.0
C      1  0.5235530000000  0.5181930000000  0.4478010000000 1.0
C      1  0.4705130000000  0.4778720000000  0.4117260000000 1.0
C      1  0.4189500000000  0.5508050000000  0.4326460000000 1.0
C      1  0.5609350000000  0.5119860000000  0.5625500000000 1.0
C      1  0.5207130000000  0.5775710000000  0.5010550000000 1.0
C      1  0.4353330000000  0.5121030000000  0.4053900000000 1.0
C      1  0.5134890000000  0.4303780000000  0.5893880000000 1.0
C      1  0.5186970000000  0.4580060000000  0.4353890000000 1.0
C      1  0.4299630000000  0.6026230000000  0.5051870000000 1.0
C      1  0.5591940000000  0.5157770000000  0.5099110000000 1.0
C      1  0.5130040000000  0.4961760000000  0.3993410000000 1.0
C      1  0.4919780000000  0.5736870000000  0.4103840000000 1.0
C      1  0.5505990000000  0.4588180000000  0.5428280000000 1.0
C      1  0.5180410000000  0.4119920000000  0.5651280000000 1.0
C      1  0.5105430000000  0.4440050000000  0.4808790000000 1.0
C      1  0.4828300000000  0.5699780000000  0.5208530000000 1.0
C      1  0.4106410000000  0.5840610000000  0.5103900000000 1.0
C      1  0.5688300000000  0.5870840000000  0.5534390000000 1.0
C      1  0.5904660000000  0.4412470000000  0.5663500000000 1.0
C      1  0.4621000000000  0.4336860000000  0.4523070000000 1.0
C      1  0.4690300000000  0.5778530000000  0.5791310000000 1.0
C      1  0.5633230000000  0.5539190000000  0.4147850000000 1.0
C      1  0.5879370000000  0.4959780000000  0.4068780000000 1.0
C      1  0.5432980000000  0.5745370000000  0.4211170000000 1.0
C      1  0.4688020000000  0.4987390000000  0.5081500000000 1.0
C      1  0.4817920000000  0.5524580000000  0.4255030000000 1.0
C      1  0.5640440000000  0.4500440000000  0.5664100000000 1.0
C      1  0.4685970000000  0.6188770000000  0.4209430000000 1.0
C      1  0.4683550000000  0.4460840000000  0.6137570000000 1.0
C      1  0.6387860000000  0.4593530000000  0.5511580000000 1.0
C      1  0.5064680000000  0.5030440000000  0.4285060000000 1.0
C      1  0.5676790000000  0.4750650000000  0.5268860000000 1.0
C      1  0.5257340000000  0.6054010000000  0.4629050000000 1.0
C      1  0.6024350000000  0.5280790000000  0.4373190000000 1.0
C      1  0.4728260000000  0.6294910000000  0.4706300000000 1.0
C      1  0.4253750000000  0.5361400000000  0.4113070000000 1.0
C      1  0.6160250000000  0.4458950000000  0.5605800000000 1.0
C      1  0.4481300000000  0.4807660000000  0.5006280000000 1.0
C      1  0.5981360000000  0.5279380000000  0.4875150000000 1.0
C      1  0.3965290000000  0.5044600000000  0.5083440000000 1.0
C      1  0.4758080000000  0.4592090000000  0.4556450000000 1.0
C      1  0.5526320000000  0.4646260000000  0.5880740000000 1.0
C      1  0.4310670000000  0.4698080000000  0.5892200000000 1.0
C      1  0.3910210000000  0.4937370000000  0.4808710000000 1.0
C      1  0.4212200000000  0.4757430000000  0.4351810000000 1.0
C      1  0.4674360000000  0.6311110000000  0.4445860000000 1.0
C      1  0.4529370000000  0.5060130000000  0.5683840000000 1.0
C      1  0.5917430000000  0.4790870000000  0.4823660000000 1.0
C      1  0.5419170000000  0.5060200000000  0.4892190000000 1.0
C      1  0.6636670000000  0.4522480000000  0.5600170000000 1.0
C      1  0.3958500000000  0.5559040000000  0.4758220000000 1.0
C      1  0.5021020000000  0.3760850000000  0.4660940000000 1.0
C      1  0.4094090000000  0.5047690000000  0.5551590000000 1.0
END
