TITL C-599892-9790-391 3.70201362495084e-05 125000 -448.600677975237 0 0 72 (C1) n - 1
REM
REM in /home/nfs/bkarasulu/CARBON/AIRSS/Generating-Clusters/TERSOFF/Only-C1/FIRE-HFTN
REM
REM
REM
REM
REM
REM ./C.cell (11c1c37f851c82e70ff6c80c92926a4b)
REM AIRSS Version 0.9.1 bugfix July 2018 build 013d7b7c2542+ Fri, 06 Jul 2018 19:26:36 +0100
REM compiler GCC version 9.2.1 20190827 (Red Hat 9.2.1-1)
REM options -cpp -mtune=generic -march=x86-64 -g -O0 -fpre-include=/usr/include/finclude/math-vector-fortran.h
REM seed -492623566 -14290517 -1622810509 1998895832 -411376903 -952143394 1236152615 -79877810 1803989400 1836431484 958432757 1686731756 1106282523 -2035439165 -1402343694 -1319215443 504845210 -1734407681 405861437 -1357493613 1020428188 -770485439 959844266 -1038895996 861248314 -481056920 -1984703997 -837502345 -500825264 274264834 697293164 2050419627 -1570090678
REM
CELL 1.54180   50.00000   50.00000   50.00000   90.00000   90.00000   90.00000
LATT -1
SFAC C  
C      1  0.5113630000000  0.5154580000000  0.4227050000000 1.0
C      1  0.5397870000000  0.5154420000000  0.4232650000000 1.0
C      1  0.5258840000000  0.5605090000000  0.5124070000000 1.0
C      1  0.5387220000000  0.5615010000000  0.4391650000000 1.0
C      1  0.4910280000000  0.4535100000000  0.4815290000000 1.0
C      1  0.5250940000000  0.5347390000000  0.5776130000000 1.0
C      1  0.4877120000000  0.4998040000000  0.5141490000000 1.0
C      1  0.5319870000000  0.4786080000000  0.4884310000000 1.0
C      1  0.4512120000000  0.5502600000000  0.4752640000000 1.0
C      1  0.4692590000000  0.4444610000000  0.5620840000000 1.0
C      1  0.4857780000000  0.5934720000000  0.5162900000000 1.0
C      1  0.5369620000000  0.5100160000000  0.5713870000000 1.0
C      1  0.5529420000000  0.5370750000000  0.4362060000000 1.0
C      1  0.5507450000000  0.4815040000000  0.5358400000000 1.0
C      1  0.4612720000000  0.5897390000000  0.5061760000000 1.0
C      1  0.5512700000000  0.4900230000000  0.4189010000000 1.0
C      1  0.4905760000000  0.4262080000000  0.5236400000000 1.0
C      1  0.5408810000000  0.5585380000000  0.4882300000000 1.0
C      1  0.4781620000000  0.5457270000000  0.4670130000000 1.0
C      1  0.4028130000000  0.4934360000000  0.4809630000000 1.0
C      1  0.5342600000000  0.4894510000000  0.5143600000000 1.0
C      1  0.4152370000000  0.4515490000000  0.4990890000000 1.0
C      1  0.4129380000000  0.4671570000000  0.4756320000000 1.0
C      1  0.5103870000000  0.5831620000000  0.5184630000000 1.0
C      1  0.5456510000000  0.4569980000000  0.5493780000000 1.0
C      1  0.4252270000000  0.5136060000000  0.5191610000000 1.0
C      1  0.5448000000000  0.4519320000000  0.4503120000000 1.0
C      1  0.5395240000000  0.4332670000000  0.5356440000000 1.0
C      1  0.5133340000000  0.4595390000000  0.4150320000000 1.0
C      1  0.5181850000000  0.4205300000000  0.5253780000000 1.0
C      1  0.4833010000000  0.4498180000000  0.5087750000000 1.0
C      1  0.5572360000000  0.5056890000000  0.5508670000000 1.0
C      1  0.4856040000000  0.5187490000000  0.4637530000000 1.0
C      1  0.4183020000000  0.4623620000000  0.5237460000000 1.0
C      1  0.4336440000000  0.5283040000000  0.4708640000000 1.0
C      1  0.4214060000000  0.4881000000000  0.5311800000000 1.0
C      1  0.5532850000000  0.4681440000000  0.4725940000000 1.0
C      1  0.4468120000000  0.5732390000000  0.4907390000000 1.0
C      1  0.4743550000000  0.4820750000000  0.4344650000000 1.0
C      1  0.4557980000000  0.5448890000000  0.5505700000000 1.0
C      1  0.4746740000000  0.4225420000000  0.5469080000000 1.0
C      1  0.4981300000000  0.5652180000000  0.4646650000000 1.0
C      1  0.4182650000000  0.5152970000000  0.4912110000000 1.0
C      1  0.4887390000000  0.5010440000000  0.4851520000000 1.0
C      1  0.5349780000000  0.4613500000000  0.5755630000000 1.0
C      1  0.4769280000000  0.4977500000000  0.5943960000000 1.0
C      1  0.5262650000000  0.5663550000000  0.4641890000000 1.0
C      1  0.5020770000000  0.5482340000000  0.5750940000000 1.0
C      1  0.4894660000000  0.5068040000000  0.4379400000000 1.0
C      1  0.4801110000000  0.4744500000000  0.5258700000000 1.0
C      1  0.5700530000000  0.5334970000000  0.4585250000000 1.0
C      1  0.4467230000000  0.4851110000000  0.4418300000000 1.0
C      1  0.5192880000000  0.5361090000000  0.5243340000000 1.0
C      1  0.5760980000000  0.5237610000000  0.5056950000000 1.0
C      1  0.4904360000000  0.4579100000000  0.4326270000000 1.0
C      1  0.4774070000000  0.5506710000000  0.5651120000000 1.0
C      1  0.5638730000000  0.5407710000000  0.4857530000000 1.0
C      1  0.4378130000000  0.5119590000000  0.4475160000000 1.0
C      1  0.5244090000000  0.4318940000000  0.4555250000000 1.0
C      1  0.4383270000000  0.5334440000000  0.5339870000000 1.0
C      1  0.5785920000000  0.4785490000000  0.4795670000000 1.0
C      1  0.5716090000000  0.5240160000000  0.5341280000000 1.0
C      1  0.5052360000000  0.4784040000000  0.4793550000000 1.0
C      1  0.4921810000000  0.4857900000000  0.5749640000000 1.0
C      1  0.5380770000000  0.4442580000000  0.5965030000000 1.0
C      1  0.4967470000000  0.4410670000000  0.4563270000000 1.0
C      1  0.4302060000000  0.4651230000000  0.4532650000000 1.0
C      1  0.4789990000000  0.4702880000000  0.5546900000000 1.0
C      1  0.5399350000000  0.4649190000000  0.4248920000000 1.0
C      1  0.5139310000000  0.5090150000000  0.5214540000000 1.0
C      1  0.5868380000000  0.4995650000000  0.4945210000000 1.0
C      1  0.5208590000000  0.4862440000000  0.5771780000000 1.0
END
