TITL C-599897-7526-823 0.0548287718973574 125000 -352.676157956851 0 0 59 (C1) n - 1
REM
REM in /home/nfs/bkarasulu/CARBON/AIRSS/Generating-Clusters/TERSOFF/Only-C1/FIRE-HFTN
REM
REM
REM
REM
REM
REM ./C.cell (11c1c37f851c82e70ff6c80c92926a4b)
REM AIRSS Version 0.9.1 bugfix July 2018 build 013d7b7c2542+ Fri, 06 Jul 2018 19:26:36 +0100
REM compiler GCC version 9.2.1 20190827 (Red Hat 9.2.1-1)
REM options -cpp -mtune=generic -march=x86-64 -g -O0 -fpre-include=/usr/include/finclude/math-vector-fortran.h
REM seed 1773708732 1283994901 -875003425 59594618 1632999798 960440113 749596405 703139055 1417461347 -1955470452 583474075 -152565113 -410660674 -1434171208 1777937637 1757281676 -419693320 1895503572 2061139086 1992435216 -1553043294 1403866022 -1536785287 -830876721 2066133114 1888358580 1107083754 1400891313 727837110 1876145658 1647646585 633350048 -1263017019
REM
CELL 1.54180   50.00000   50.00000   50.00000   90.00000   90.00000   90.00000
LATT -1
SFAC C  
C      1  0.5437380000000  0.4802480000000  0.4112210000000 1.0
C      1  0.5932220000000  0.5092420000000  0.4389550000000 1.0
C      1  0.5241240000000  0.5489220000000  0.4378170000000 1.0
C      1  0.5408520000000  0.4258940000000  0.5104520000000 1.0
C      1  0.4836960000000  0.5015660000000  0.4853900000000 1.0
C      1  0.4818430000000  0.6075950000000  0.5553780000000 1.0
C      1  0.4404310000000  0.4771910000000  0.4800630000000 1.0
C      1  0.3983380000000  0.4949940000000  0.4977060000000 1.0
C      1  0.5007100000000  0.5085330000000  0.4344330000000 1.0
C      1  0.4125540000000  0.4747220000000  0.4806970000000 1.0
C      1  0.5928930000000  0.4985370000000  0.4867190000000 1.0
C      1  0.5478180000000  0.4534130000000  0.4535290000000 1.0
C      1  0.4432380000000  0.5131450000000  0.5117920000000 1.0
C      1  0.4604260000000  0.4766890000000  0.5514640000000 1.0
C      1  0.6011080000000  0.4925190000000  0.4602870000000 1.0
C      1  0.4598460000000  0.5235700000000  0.5319880000000 1.0
C      1  0.5617980000000  0.4399160000000  0.4978930000000 1.0
C      1  0.5619800000000  0.5583300000000  0.5355220000000 1.0
C      1  0.5729160000000  0.5163160000000  0.4227780000000 1.0
C      1  0.5074250000000  0.4951450000000  0.5011930000000 1.0
C      1  0.4687150000000  0.5750010000000  0.5875490000000 1.0
C      1  0.5236570000000  0.5230180000000  0.4261970000000 1.0
C      1  0.5464400000000  0.4573550000000  0.4255430000000 1.0
C      1  0.4567570000000  0.4966020000000  0.4926970000000 1.0
C      1  0.5361570000000  0.4746420000000  0.4681200000000 1.0
C      1  0.5260030000000  0.5093630000000  0.5191620000000 1.0
C      1  0.4785080000000  0.5572440000000  0.4997620000000 1.0
C      1  0.4797820000000  0.5814780000000  0.5633510000000 1.0
C      1  0.5939780000000  0.4423850000000  0.4604800000000 1.0
C      1  0.4150830000000  0.5129660000000  0.5111300000000 1.0
C      1  0.4876110000000  0.5051800000000  0.4575130000000 1.0
C      1  0.4940030000000  0.5627370000000  0.4785700000000 1.0
C      1  0.5152730000000  0.5499050000000  0.5478710000000 1.0
C      1  0.5671010000000  0.5359580000000  0.5217240000000 1.0
C      1  0.5160450000000  0.5215480000000  0.5432630000000 1.0
C      1  0.3820880000000  0.4647850000000  0.5639060000000 1.0
C      1  0.6074940000000  0.4652930000000  0.4555950000000 1.0
C      1  0.3916800000000  0.4580550000000  0.4696340000000 1.0
C      1  0.4963550000000  0.4387290000000  0.5353260000000 1.0
C      1  0.4891590000000  0.5609420000000  0.5464080000000 1.0
C      1  0.3702320000000  0.4887170000000  0.4952400000000 1.0
C      1  0.5550940000000  0.5111030000000  0.5153150000000 1.0
C      1  0.5464450000000  0.5082610000000  0.4163870000000 1.0
C      1  0.3561810000000  0.4620610000000  0.5628990000000 1.0
C      1  0.4971190000000  0.5071040000000  0.5581260000000 1.0
C      1  0.5454270000000  0.5001020000000  0.4641340000000 1.0
C      1  0.4343680000000  0.4718110000000  0.5601150000000 1.0
C      1  0.3668290000000  0.4667560000000  0.4785460000000 1.0
C      1  0.5178640000000  0.4274870000000  0.5241150000000 1.0
C      1  0.4704860000000  0.5033960000000  0.5499500000000 1.0
C      1  0.4772160000000  0.4552740000000  0.5438690000000 1.0
C      1  0.5188800000000  0.4717710000000  0.4897840000000 1.0
C      1  0.4084110000000  0.4678800000000  0.5636340000000 1.0
C      1  0.4729650000000  0.5487170000000  0.5262940000000 1.0
C      1  0.5112390000000  0.5612500000000  0.4580620000000 1.0
C      1  0.5672440000000  0.4393100000000  0.4693440000000 1.0
C      1  0.5390150000000  0.5646700000000  0.5479430000000 1.0
C      1  0.5734210000000  0.4911300000000  0.5060840000000 1.0
C      1  0.5707170000000  0.4635300000000  0.5110830000000 1.0
END
