TITL C-599894-471-622 -0.0018763842357818 125000 -205.354158879898 0 0 35 (C1) n - 1
REM
REM in /home/nfs/bkarasulu/CARBON/AIRSS/Generating-Clusters/TERSOFF/Only-C1/FIRE-HFTN
REM
REM
REM
REM
REM
REM ./C.cell (11c1c37f851c82e70ff6c80c92926a4b)
REM AIRSS Version 0.9.1 bugfix July 2018 build 013d7b7c2542+ Fri, 06 Jul 2018 19:26:36 +0100
REM compiler GCC version 9.2.1 20190827 (Red Hat 9.2.1-1)
REM options -cpp -mtune=generic -march=x86-64 -g -O0 -fpre-include=/usr/include/finclude/math-vector-fortran.h
REM seed 1014324645 -1934991261 1679598209 -1733275375 -442936225 -749142017 862936893 -903079739 1696836925 -1094744732 2059307747 562524552 1238902180 -1955403740 165196763 234126977 -1036637684 1070357612 -2113405374 1827496945 -1739625358 280810838 264347299 1693553753 -1417511042 1978534018 -847280197 556630355 862993241 -913832443 -340508969 635158513 -1456575682
REM
CELL 1.54180   50.00000   50.00000   50.00000   90.00000   90.00000   90.00000
LATT -1
SFAC C  
C      1  0.5226620000000  0.4486010000000  0.4246960000000 1.0
C      1  0.5074560000000  0.4452630000000  0.4706960000000 1.0
C      1  0.4565830000000  0.4858690000000  0.5224680000000 1.0
C      1  0.5771450000000  0.5091680000000  0.5482960000000 1.0
C      1  0.4747210000000  0.5599760000000  0.5191340000000 1.0
C      1  0.4550630000000  0.5190470000000  0.4489120000000 1.0
C      1  0.4946970000000  0.5168380000000  0.5131210000000 1.0
C      1  0.4181300000000  0.5479390000000  0.4384380000000 1.0
C      1  0.4837970000000  0.4937990000000  0.5254960000000 1.0
C      1  0.5406740000000  0.4500900000000  0.5282470000000 1.0
C      1  0.4706520000000  0.4982790000000  0.4433590000000 1.0
C      1  0.5581950000000  0.5264340000000  0.4840550000000 1.0
C      1  0.4703670000000  0.4423820000000  0.5013200000000 1.0
C      1  0.5721500000000  0.5323590000000  0.5061580000000 1.0
C      1  0.4353540000000  0.5020300000000  0.5302330000000 1.0
C      1  0.5671880000000  0.5311430000000  0.5338860000000 1.0
C      1  0.5183580000000  0.5490480000000  0.5404290000000 1.0
C      1  0.4564020000000  0.5640510000000  0.5002010000000 1.0
C      1  0.4158030000000  0.5179000000000  0.5369410000000 1.0
C      1  0.4951600000000  0.5422470000000  0.5261840000000 1.0
C      1  0.5702380000000  0.4837960000000  0.5534940000000 1.0
C      1  0.5474190000000  0.4682400000000  0.5500600000000 1.0
C      1  0.5382160000000  0.4406200000000  0.4053670000000 1.0
C      1  0.4528530000000  0.4603470000000  0.5110330000000 1.0
C      1  0.5023490000000  0.4751540000000  0.5357410000000 1.0
C      1  0.4878530000000  0.4781480000000  0.4412790000000 1.0
C      1  0.4983010000000  0.4439970000000  0.4970530000000 1.0
C      1  0.5060930000000  0.4572490000000  0.4454010000000 1.0
C      1  0.4445420000000  0.5566140000000  0.4776060000000 1.0
C      1  0.4390130000000  0.5412850000000  0.4548020000000 1.0
C      1  0.5095280000000  0.5146110000000  0.4893320000000 1.0
C      1  0.5214560000000  0.4797120000000  0.5566440000000 1.0
C      1  0.5446710000000  0.5452260000000  0.5433720000000 1.0
C      1  0.5333070000000  0.5187730000000  0.4779250000000 1.0
C      1  0.5136040000000  0.4537650000000  0.5186210000000 1.0
END
