TITL C-599890-3321-294 0.0075398571835535 125000 -504.393698911492 0 0 83 (C1) n - 1
REM
REM in /home/nfs/bkarasulu/CARBON/AIRSS/Generating-Clusters/TERSOFF/Only-C1/FIRE-HFTN
REM
REM
REM
REM
REM
REM ./C.cell (11c1c37f851c82e70ff6c80c92926a4b)
REM AIRSS Version 0.9.1 bugfix July 2018 build 013d7b7c2542+ Fri, 06 Jul 2018 19:26:36 +0100
REM compiler GCC version 9.2.1 20190827 (Red Hat 9.2.1-1)
REM options -cpp -mtune=generic -march=x86-64 -g -O0 -fpre-include=/usr/include/finclude/math-vector-fortran.h
REM seed 716558776 -725950675 -1007768090 -246138747 -251714094 -150434569 1612059002 -1931983383 2051497232 -54700527 -1859656232 299433315 345883245 -1082728234 -1197546292 -1201844055 -338841607 1691803314 -855191674 -91834042 568199776 -235368869 -1954790121 1093632232 -541557197 -628781944 -1322926794 -558346775 1721906737 -920405609 -1375881866 -909181717 -854407712
REM
CELL 1.54180   50.00000   50.00000   50.00000   90.00000   90.00000   90.00000
LATT -1
SFAC C  
C      1  0.5088480000000  0.4570050000000  0.4345800000000 1.0
C      1  0.6124540000000  0.5198390000000  0.4909670000000 1.0
C      1  0.4880420000000  0.5337150000000  0.5942720000000 1.0
C      1  0.5083180000000  0.3934020000000  0.4920150000000 1.0
C      1  0.5660500000000  0.5284350000000  0.5616630000000 1.0
C      1  0.4455450000000  0.4152230000000  0.5429490000000 1.0
C      1  0.4700700000000  0.5043410000000  0.4503560000000 1.0
C      1  0.4895660000000  0.5564330000000  0.4879850000000 1.0
C      1  0.5094970000000  0.5405720000000  0.4048040000000 1.0
C      1  0.4568130000000  0.6264280000000  0.5294590000000 1.0
C      1  0.5368750000000  0.5168490000000  0.5998700000000 1.0
C      1  0.5270990000000  0.5271460000000  0.4225740000000 1.0
C      1  0.5273210000000  0.4036830000000  0.4763870000000 1.0
C      1  0.4698240000000  0.5176700000000  0.5770730000000 1.0
C      1  0.4687930000000  0.6028850000000  0.5314550000000 1.0
C      1  0.4813890000000  0.5777220000000  0.5331160000000 1.0
C      1  0.5632090000000  0.5499200000000  0.5453740000000 1.0
C      1  0.4483280000000  0.5332070000000  0.5104810000000 1.0
C      1  0.4866350000000  0.4943870000000  0.4739450000000 1.0
C      1  0.4723260000000  0.4705240000000  0.4883680000000 1.0
C      1  0.5184470000000  0.5535480000000  0.5667790000000 1.0
C      1  0.4450230000000  0.6495930000000  0.5274680000000 1.0
C      1  0.5114190000000  0.5233850000000  0.6069550000000 1.0
C      1  0.4870900000000  0.3993000000000  0.5094150000000 1.0
C      1  0.5519990000000  0.4701570000000  0.5413660000000 1.0
C      1  0.4914080000000  0.3998580000000  0.5378050000000 1.0
C      1  0.4662390000000  0.4233080000000  0.4728630000000 1.0
C      1  0.5172520000000  0.4043980000000  0.5474170000000 1.0
C      1  0.5527760000000  0.4418510000000  0.5434680000000 1.0
C      1  0.5492390000000  0.5653520000000  0.4682140000000 1.0
C      1  0.5420390000000  0.5064720000000  0.4099670000000 1.0
C      1  0.4679930000000  0.4039490000000  0.5531490000000 1.0
C      1  0.4852190000000  0.5314560000000  0.3930390000000 1.0
C      1  0.5444810000000  0.4830680000000  0.5661640000000 1.0
C      1  0.4717200000000  0.5330290000000  0.4474500000000 1.0
C      1  0.5522830000000  0.4804750000000  0.5142460000000 1.0
C      1  0.4958970000000  0.4749650000000  0.5845240000000 1.0
C      1  0.5073220000000  0.4898960000000  0.3801210000000 1.0
C      1  0.4424810000000  0.4680230000000  0.4952250000000 1.0
C      1  0.4009030000000  0.4476670000000  0.5114030000000 1.0
C      1  0.4958690000000  0.5447210000000  0.4604550000000 1.0
C      1  0.5396910000000  0.4254840000000  0.4673150000000 1.0
C      1  0.5217440000000  0.5267440000000  0.4527160000000 1.0
C      1  0.4808700000000  0.4589120000000  0.4395370000000 1.0
C      1  0.4621590000000  0.5454200000000  0.4015500000000 1.0
C      1  0.4566220000000  0.5466840000000  0.4280290000000 1.0
C      1  0.4409670000000  0.4794550000000  0.3903100000000 1.0
C      1  0.5002780000000  0.5715630000000  0.5109730000000 1.0
C      1  0.4284800000000  0.4465270000000  0.5076860000000 1.0
C      1  0.5476970000000  0.5669790000000  0.5311850000000 1.0
C      1  0.4635980000000  0.4883410000000  0.4027730000000 1.0
C      1  0.5289430000000  0.5762700000000  0.5117720000000 1.0
C      1  0.4930350000000  0.5583660000000  0.5781780000000 1.0
C      1  0.5324570000000  0.4907060000000  0.3900880000000 1.0
C      1  0.5557590000000  0.4626720000000  0.4925630000000 1.0
C      1  0.5394780000000  0.4190790000000  0.5473130000000 1.0
C      1  0.4912370000000  0.5131630000000  0.4960250000000 1.0
C      1  0.4836380000000  0.5030190000000  0.3884800000000 1.0
C      1  0.5262460000000  0.4703090000000  0.4530480000000 1.0
C      1  0.5088810000000  0.5103840000000  0.5370060000000 1.0
C      1  0.4410520000000  0.5313500000000  0.5362590000000 1.0
C      1  0.5456270000000  0.5373750000000  0.4677170000000 1.0
C      1  0.4735700000000  0.4492430000000  0.4656390000000 1.0
C      1  0.4832380000000  0.4730270000000  0.5186390000000 1.0
C      1  0.5586820000000  0.5211100000000  0.4869690000000 1.0
C      1  0.4792640000000  0.4915060000000  0.5683850000000 1.0
C      1  0.5865420000000  0.5204510000000  0.4882810000000 1.0
C      1  0.5157580000000  0.5116510000000  0.5100530000000 1.0
C      1  0.4739490000000  0.5613830000000  0.5563770000000 1.0
C      1  0.4682200000000  0.4834720000000  0.4304190000000 1.0
C      1  0.4884430000000  0.4906220000000  0.5412510000000 1.0
C      1  0.4436200000000  0.4236990000000  0.5160190000000 1.0
C      1  0.3751320000000  0.4485570000000  0.5151710000000 1.0
C      1  0.5428330000000  0.5058710000000  0.5049280000000 1.0
C      1  0.5152450000000  0.4959950000000  0.4606340000000 1.0
C      1  0.5196380000000  0.5308580000000  0.5521810000000 1.0
C      1  0.4638540000000  0.4124930000000  0.4986840000000 1.0
C      1  0.5525770000000  0.5085690000000  0.5771050000000 1.0
C      1  0.5224830000000  0.4710070000000  0.5804230000000 1.0
C      1  0.5426120000000  0.4534220000000  0.4695150000000 1.0
C      1  0.5407710000000  0.5828370000000  0.4868420000000 1.0
C      1  0.4733600000000  0.5347510000000  0.4987040000000 1.0
C      1  0.4576460000000  0.5368210000000  0.5580740000000 1.0
END
