TITL C-599892-9790-480 -0.276182871967007 125000 -592.169994046729 0 0 99 (C1) n - 1
REM
REM in /home/nfs/bkarasulu/CARBON/AIRSS/Generating-Clusters/TERSOFF/Only-C1/FIRE-HFTN
REM
REM
REM
REM
REM
REM ./C.cell (11c1c37f851c82e70ff6c80c92926a4b)
REM AIRSS Version 0.9.1 bugfix July 2018 build 013d7b7c2542+ Fri, 06 Jul 2018 19:26:36 +0100
REM compiler GCC version 9.2.1 20190827 (Red Hat 9.2.1-1)
REM options -cpp -mtune=generic -march=x86-64 -g -O0 -fpre-include=/usr/include/finclude/math-vector-fortran.h
REM seed -333215466 -827890908 -1122664500 -1619214351 810562231 -2073546032 -1512863865 21247298 -587813055 -1996318520 -317535783 1881636808 -1949141522 -825658507 1016852941 -843306357 248086830 -1021537137 -1933573126 1976971262 1339282058 450465915 -1043604986 1877266420 -791109881 1052279411 726657205 1758709885 2133601484 2134631810 1163969920 560319512 -1004418280
REM
CELL 1.54180   50.00000   50.00000   50.00000   90.00000   90.00000   90.00000
LATT -1
SFAC C  
C      1  0.4913290000000  0.4761770000000  0.5375510000000 1.0
C      1  0.4900320000000  0.5907390000000  0.4281430000000 1.0
C      1  0.5687930000000  0.4840980000000  0.5577430000000 1.0
C      1  0.5427560000000  0.5885050000000  0.4992180000000 1.0
C      1  0.4627650000000  0.5103370000000  0.5635230000000 1.0
C      1  0.5555230000000  0.5753940000000  0.5238090000000 1.0
C      1  0.5764880000000  0.5379200000000  0.4451700000000 1.0
C      1  0.4953690000000  0.4630270000000  0.5610810000000 1.0
C      1  0.5221700000000  0.5523460000000  0.5898300000000 1.0
C      1  0.5246650000000  0.4185760000000  0.5195920000000 1.0
C      1  0.5406160000000  0.5716400000000  0.5490540000000 1.0
C      1  0.5608660000000  0.4362410000000  0.5540420000000 1.0
C      1  0.5093180000000  0.4753090000000  0.4258820000000 1.0
C      1  0.4819950000000  0.4854010000000  0.4253150000000 1.0
C      1  0.5063120000000  0.5629540000000  0.4829610000000 1.0
C      1  0.4823760000000  0.5081860000000  0.4770150000000 1.0
C      1  0.5721220000000  0.4391540000000  0.4652170000000 1.0
C      1  0.5019490000000  0.5668480000000  0.4340410000000 1.0
C      1  0.5786990000000  0.5110330000000  0.5620840000000 1.0
C      1  0.4326750000000  0.5513110000000  0.5348820000000 1.0
C      1  0.5919300000000  0.4531770000000  0.5883440000000 1.0
C      1  0.3839740000000  0.4560300000000  0.4953100000000 1.0
C      1  0.4726650000000  0.4275270000000  0.5186620000000 1.0
C      1  0.4807410000000  0.4278780000000  0.4350540000000 1.0
C      1  0.3540570000000  0.4608390000000  0.4582180000000 1.0
C      1  0.4948600000000  0.5096090000000  0.5020110000000 1.0
C      1  0.4493500000000  0.4607120000000  0.5592680000000 1.0
C      1  0.4976760000000  0.4178620000000  0.5296540000000 1.0
C      1  0.5289450000000  0.5029150000000  0.5360620000000 1.0
C      1  0.5711970000000  0.5108310000000  0.4337660000000 1.0
C      1  0.4785690000000  0.4797580000000  0.4750910000000 1.0
C      1  0.4956920000000  0.4648530000000  0.4908540000000 1.0
C      1  0.5634030000000  0.5323320000000  0.5738490000000 1.0
C      1  0.4312250000000  0.4533820000000  0.4855400000000 1.0
C      1  0.4833300000000  0.5914390000000  0.5711570000000 1.0
C      1  0.6013350000000  0.4663450000000  0.4395360000000 1.0
C      1  0.5348340000000  0.4679700000000  0.4676180000000 1.0
C      1  0.3581720000000  0.4531350000000  0.4848150000000 1.0
C      1  0.4891560000000  0.5201820000000  0.5739980000000 1.0
C      1  0.5201400000000  0.5445150000000  0.5006190000000 1.0
C      1  0.3377730000000  0.4431690000000  0.4999880000000 1.0
C      1  0.5530230000000  0.4210110000000  0.4774590000000 1.0
C      1  0.4802360000000  0.4980850000000  0.5230240000000 1.0
C      1  0.4191370000000  0.5000890000000  0.5442960000000 1.0
C      1  0.4962950000000  0.5888000000000  0.5253590000000 1.0
C      1  0.5253530000000  0.4720660000000  0.4959060000000 1.0
C      1  0.5476430000000  0.5367570000000  0.4981870000000 1.0
C      1  0.4148490000000  0.5294260000000  0.5440030000000 1.0
C      1  0.4581180000000  0.4689150000000  0.4285530000000 1.0
C      1  0.4716220000000  0.5896650000000  0.5430640000000 1.0
C      1  0.3627770000000  0.4691370000000  0.4345550000000 1.0
C      1  0.4524840000000  0.5369720000000  0.5205920000000 1.0
C      1  0.5669270000000  0.5504340000000  0.5140210000000 1.0
C      1  0.4647970000000  0.5168620000000  0.5353630000000 1.0
C      1  0.4731090000000  0.4557530000000  0.5750000000000 1.0
C      1  0.5111600000000  0.5885100000000  0.4983240000000 1.0
C      1  0.4408660000000  0.4893910000000  0.5614320000000 1.0
C      1  0.4759050000000  0.5677050000000  0.5866710000000 1.0
C      1  0.4485540000000  0.5650120000000  0.5781070000000 1.0
C      1  0.4592530000000  0.4444030000000  0.4438540000000 1.0
C      1  0.5094700000000  0.5452690000000  0.5267060000000 1.0
C      1  0.4100850000000  0.4647920000000  0.5008370000000 1.0
C      1  0.4955620000000  0.5529960000000  0.4583310000000 1.0
C      1  0.4836540000000  0.5265400000000  0.4556830000000 1.0
C      1  0.4531070000000  0.4424310000000  0.5354060000000 1.0
C      1  0.5373760000000  0.5360180000000  0.4083740000000 1.0
C      1  0.4341960000000  0.4762570000000  0.4161480000000 1.0
C      1  0.5171660000000  0.4574230000000  0.4470670000000 1.0
C      1  0.5690100000000  0.5617860000000  0.4572760000000 1.0
C      1  0.4454090000000  0.5725390000000  0.5494640000000 1.0
C      1  0.5513520000000  0.5183270000000  0.4781150000000 1.0
C      1  0.5132810000000  0.5696580000000  0.5404040000000 1.0
C      1  0.5451190000000  0.5543620000000  0.5724980000000 1.0
C      1  0.5128410000000  0.5106840000000  0.5588410000000 1.0
C      1  0.4942840000000  0.5457150000000  0.5874640000000 1.0
C      1  0.5490900000000  0.4831300000000  0.5376390000000 1.0
C      1  0.5619060000000  0.4668510000000  0.4616650000000 1.0
C      1  0.4793240000000  0.5134390000000  0.4307490000000 1.0
C      1  0.5966990000000  0.5208480000000  0.5424040000000 1.0
C      1  0.5432640000000  0.4617450000000  0.5187880000000 1.0
C      1  0.5484610000000  0.5107850000000  0.4150000000000 1.0
C      1  0.5269370000000  0.4163040000000  0.4906270000000 1.0
C      1  0.4528170000000  0.4400770000000  0.4724050000000 1.0
C      1  0.5439630000000  0.4360650000000  0.5310420000000 1.0
C      1  0.5339250000000  0.5126340000000  0.4593610000000 1.0
C      1  0.5205930000000  0.5551900000000  0.4164340000000 1.0
C      1  0.5306030000000  0.4887650000000  0.4126950000000 1.0
C      1  0.5208360000000  0.5004990000000  0.5076910000000 1.0
C      1  0.5905430000000  0.5385240000000  0.5230180000000 1.0
C      1  0.4081170000000  0.4784030000000  0.4118750000000 1.0
C      1  0.4737830000000  0.4265840000000  0.4890800000000 1.0
C      1  0.5791840000000  0.4846440000000  0.4448480000000 1.0
C      1  0.3824160000000  0.4757240000000  0.4179410000000 1.0
C      1  0.5015690000000  0.4210850000000  0.4767870000000 1.0
C      1  0.5747050000000  0.4577310000000  0.5676880000000 1.0
C      1  0.5570310000000  0.5805290000000  0.4738910000000 1.0
C      1  0.5972730000000  0.4410320000000  0.4508660000000 1.0
C      1  0.5042930000000  0.4317950000000  0.4500940000000 1.0
C      1  0.4128020000000  0.4841700000000  0.5214600000000 1.0
END
