TITL C-599894-471-824 30.9369305843875 125000 -784.853054064897 0 0 128 (C1) n - 1
REM
REM in /home/nfs/bkarasulu/CARBON/AIRSS/Generating-Clusters/TERSOFF/Only-C1/FIRE-HFTN
REM
REM
REM
REM
REM
REM ./C.cell (11c1c37f851c82e70ff6c80c92926a4b)
REM AIRSS Version 0.9.1 bugfix July 2018 build 013d7b7c2542+ Fri, 06 Jul 2018 19:26:36 +0100
REM compiler GCC version 9.2.1 20190827 (Red Hat 9.2.1-1)
REM options -cpp -mtune=generic -march=x86-64 -g -O0 -fpre-include=/usr/include/finclude/math-vector-fortran.h
REM seed -2111549443 1129420657 -687576384 -13704651 1838303302 1503619528 -1673923518 488974382 805868990 -920538957 1725132377 1575638084 1829494142 1118683670 -842338060 1610961773 749131489 1665161281 1263152278 -84245480 -1883512985 -1254534057 -2143726285 966567501 1617770792 -910664607 289350902 241985487 530464523 -1758155814 2056634678 204047262 11030740
REM
CELL 1.54180   50.00000   50.00000   50.00000   90.00000   90.00000   90.00000
LATT -1
SFAC C  
C      1  0.4695700000000  0.4172240000000  0.4700380000000 1.0
C      1  0.5099510000000  0.5590710000000  0.4877760000000 1.0
C      1  0.4196290000000  0.4638120000000  0.5173900000000 1.0
C      1  0.6170740000000  0.5849660000000  0.5872480000000 1.0
C      1  0.6788040000000  0.5189480000000  0.6331170000000 1.0
C      1  0.4590280000000  0.4527010000000  0.4071080000000 1.0
C      1  0.3826950000000  0.5156080000000  0.5062160000000 1.0
C      1  0.5826310000000  0.5950690000000  0.5527490000000 1.0
C      1  0.4710310000000  0.4867710000000  0.5319790000000 1.0
C      1  0.5608110000000  0.4341640000000  0.4394680000000 1.0
C      1  0.3928760000000  0.4571120000000  0.4584930000000 1.0
C      1  0.4226900000000  0.4728700000000  0.4885780000000 1.0
C      1  0.5874470000000  0.6008090000000  0.5056870000000 1.0
C      1  0.5678710000000  0.4335460000000  0.4654340000000 1.0
C      1  0.3930730000000  0.4483090000000  0.5203420000000 1.0
C      1  0.3722240000000  0.4944740000000  0.4903280000000 1.0
C      1  0.4029390000000  0.4702290000000  0.4346310000000 1.0
C      1  0.6217670000000  0.5114810000000  0.5782140000000 1.0
C      1  0.4364070000000  0.5385000000000  0.4607670000000 1.0
C      1  0.4877630000000  0.4530750000000  0.5901600000000 1.0
C      1  0.4905070000000  0.4640010000000  0.4876400000000 1.0
C      1  0.4675240000000  0.4127620000000  0.6062920000000 1.0
C      1  0.5565060000000  0.5592970000000  0.4514330000000 1.0
C      1  0.4327520000000  0.4458730000000  0.3976800000000 1.0
C      1  0.5120480000000  0.4636600000000  0.5888040000000 1.0
C      1  0.4775960000000  0.4319650000000  0.4106590000000 1.0
C      1  0.4676100000000  0.4337490000000  0.5886630000000 1.0
C      1  0.5952250000000  0.5272980000000  0.5434620000000 1.0
C      1  0.4788580000000  0.4186320000000  0.5359240000000 1.0
C      1  0.3949210000000  0.5405060000000  0.4955100000000 1.0
C      1  0.5155980000000  0.4810110000000  0.3716280000000 1.0
C      1  0.4300740000000  0.4280310000000  0.4908230000000 1.0
C      1  0.4805910000000  0.4905400000000  0.4342190000000 1.0
C      1  0.5721050000000  0.6050620000000  0.5290450000000 1.0
C      1  0.5543180000000  0.4759850000000  0.4829620000000 1.0
C      1  0.5514430000000  0.5019980000000  0.4372290000000 1.0
C      1  0.5203950000000  0.4654940000000  0.4233930000000 1.0
C      1  0.5422640000000  0.4971340000000  0.4985840000000 1.0
C      1  0.4466350000000  0.4989140000000  0.5383050000000 1.0
C      1  0.6388500000000  0.6100810000000  0.6222980000000 1.0
C      1  0.4628300000000  0.5537110000000  0.4238400000000 1.0
C      1  0.3958440000000  0.4422290000000  0.5655620000000 1.0
C      1  0.4639060000000  0.5802670000000  0.4338260000000 1.0
C      1  0.5041140000000  0.4301790000000  0.5406090000000 1.0
C      1  0.5026540000000  0.3915660000000  0.5046850000000 1.0
C      1  0.4116030000000  0.5422720000000  0.4730600000000 1.0
C      1  0.5570040000000  0.5719820000000  0.4768300000000 1.0
C      1  0.4044730000000  0.5562090000000  0.5181270000000 1.0
C      1  0.4237770000000  0.4827300000000  0.5388760000000 1.0
C      1  0.4639610000000  0.4802290000000  0.4134020000000 1.0
C      1  0.4207570000000  0.4374130000000  0.5776610000000 1.0
C      1  0.5375570000000  0.4676330000000  0.5827300000000 1.0
C      1  0.5031930000000  0.5308130000000  0.4919520000000 1.0
C      1  0.4833370000000  0.4721890000000  0.5133880000000 1.0
C      1  0.3867270000000  0.4698230000000  0.5653110000000 1.0
C      1  0.5331260000000  0.5750110000000  0.4918200000000 1.0
C      1  0.4611740000000  0.5255990000000  0.4692540000000 1.0
C      1  0.6917050000000  0.4973100000000  0.6398260000000 1.0
C      1  0.4039180000000  0.5829750000000  0.5218570000000 1.0
C      1  0.5956850000000  0.5330160000000  0.4670290000000 1.0
C      1  0.5241830000000  0.5916410000000  0.4366540000000 1.0
C      1  0.4881740000000  0.5748430000000  0.4774220000000 1.0
C      1  0.4693090000000  0.5647830000000  0.5278170000000 1.0
C      1  0.5975580000000  0.5290580000000  0.4935580000000 1.0
C      1  0.4876230000000  0.5384460000000  0.4294660000000 1.0
C      1  0.6528950000000  0.5881590000000  0.6300000000000 1.0
C      1  0.4473370000000  0.4353350000000  0.5686480000000 1.0
C      1  0.5793490000000  0.5430640000000  0.4479250000000 1.0
C      1  0.4107150000000  0.4557470000000  0.4120760000000 1.0
C      1  0.4730720000000  0.5863380000000  0.4584970000000 1.0
C      1  0.4289460000000  0.5129410000000  0.4221060000000 1.0
C      1  0.6005660000000  0.5777730000000  0.5648770000000 1.0
C      1  0.4516440000000  0.3905500000000  0.5076770000000 1.0
C      1  0.3924500000000  0.5142070000000  0.5347660000000 1.0
C      1  0.4276660000000  0.3886920000000  0.5243040000000 1.0
C      1  0.5040810000000  0.4778110000000  0.4437380000000 1.0
C      1  0.5205510000000  0.6207510000000  0.4810510000000 1.0
C      1  0.6246480000000  0.5398260000000  0.5789750000000 1.0
C      1  0.5223850000000  0.4004090000000  0.4617070000000 1.0
C      1  0.6213780000000  0.6087780000000  0.6015570000000 1.0
C      1  0.5609620000000  0.4861820000000  0.4568710000000 1.0
C      1  0.5446970000000  0.6098360000000  0.5238450000000 1.0
C      1  0.3985160000000  0.4908300000000  0.5501350000000 1.0
C      1  0.5108580000000  0.6454160000000  0.4876770000000 1.0
C      1  0.6655330000000  0.5407750000000  0.6260940000000 1.0
C      1  0.5405840000000  0.4464280000000  0.4270570000000 1.0
C      1  0.4940840000000  0.4132720000000  0.4201270000000 1.0
C      1  0.3928580000000  0.4275260000000  0.5404700000000 1.0
C      1  0.6507190000000  0.5626830000000  0.6175550000000 1.0
C      1  0.5802320000000  0.5857310000000  0.4847500000000 1.0
C      1  0.5169970000000  0.5052560000000  0.4874650000000 1.0
C      1  0.5324510000000  0.5646020000000  0.4359840000000 1.0
C      1  0.4148260000000  0.4470930000000  0.4750230000000 1.0
C      1  0.4453200000000  0.4993250000000  0.4034870000000 1.0
C      1  0.4474670000000  0.4069490000000  0.4840830000000 1.0
C      1  0.6055430000000  0.5501460000000  0.5579090000000 1.0
C      1  0.4541420000000  0.4322710000000  0.5406680000000 1.0
C      1  0.5105430000000  0.4018420000000  0.4377850000000 1.0
C      1  0.4780920000000  0.3956470000000  0.5186360000000 1.0
C      1  0.5839920000000  0.4821490000000  0.5632140000000 1.0
C      1  0.5616680000000  0.4709680000000  0.5721950000000 1.0
C      1  0.4293590000000  0.4306810000000  0.3752110000000 1.0
C      1  0.5536920000000  0.4468860000000  0.4862260000000 1.0
C      1  0.3737330000000  0.4730740000000  0.4734900000000 1.0
C      1  0.5355170000000  0.4296500000000  0.5008690000000 1.0
C      1  0.5838680000000  0.5243400000000  0.5178460000000 1.0
C      1  0.4414210000000  0.5263240000000  0.5329190000000 1.0
C      1  0.5296130000000  0.6022710000000  0.5011240000000 1.0
C      1  0.5056160000000  0.4825910000000  0.4722110000000 1.0
C      1  0.4381620000000  0.4398250000000  0.5174990000000 1.0
C      1  0.4168490000000  0.4947530000000  0.4416510000000 1.0
C      1  0.6323890000000  0.5612830000000  0.5958820000000 1.0
C      1  0.4249610000000  0.4936240000000  0.4695550000000 1.0
C      1  0.4383390000000  0.5386670000000  0.4315300000000 1.0
C      1  0.5331020000000  0.5183960000000  0.4262830000000 1.0
C      1  0.5217760000000  0.6121290000000  0.4539880000000 1.0
C      1  0.5168020000000  0.4739650000000  0.3966950000000 1.0
C      1  0.5223300000000  0.4059780000000  0.4893360000000 1.0
C      1  0.4140140000000  0.5352970000000  0.5357150000000 1.0
C      1  0.6013700000000  0.5034170000000  0.5595680000000 1.0
C      1  0.4826690000000  0.4401910000000  0.4750450000000 1.0
C      1  0.4739130000000  0.5292730000000  0.4944960000000 1.0
C      1  0.5583180000000  0.5126410000000  0.5152920000000 1.0
C      1  0.4061980000000  0.4025330000000  0.5345390000000 1.0
C      1  0.4613630000000  0.5403350000000  0.5180750000000 1.0
C      1  0.5265820000000  0.4357790000000  0.5269580000000 1.0
C      1  0.4773270000000  0.5164520000000  0.4460490000000 1.0
C      1  0.5166580000000  0.5416770000000  0.4281740000000 1.0
END
