TITL C-599895-9959-408 0.000116390591540472 125000 -318.993997241011 0 0 54 (C1) n - 1
REM
REM in /home/nfs/bkarasulu/CARBON/AIRSS/Generating-Clusters/TERSOFF/Only-C1/FIRE-HFTN
REM
REM
REM
REM
REM
REM ./C.cell (11c1c37f851c82e70ff6c80c92926a4b)
REM AIRSS Version 0.9.1 bugfix July 2018 build 013d7b7c2542+ Fri, 06 Jul 2018 19:26:36 +0100
REM compiler GCC version 9.2.1 20190827 (Red Hat 9.2.1-1)
REM options -cpp -mtune=generic -march=x86-64 -g -O0 -fpre-include=/usr/include/finclude/math-vector-fortran.h
REM seed -300326223 35209736 620904796 890624063 7092648 -1343477568 285076077 472898575 -1180845383 2096156997 -576403642 -1711556681 1371776369 992865009 -686008848 1963474673 2016977225 1982775437 1223005673 -1546830296 1503188502 -1750290862 42259203 -312353861 620859651 1163675942 -1112323909 -1594825308 687239489 -1399478430 1944466002 1908413830 -1917755565
REM
CELL 1.54180   50.00000   50.00000   50.00000   90.00000   90.00000   90.00000
LATT -1
SFAC C  
C      1  0.4349220000000  0.5196540000000  0.4930120000000 1.0
C      1  0.4882430000000  0.4502140000000  0.4398190000000 1.0
C      1  0.5568490000000  0.4717040000000  0.5312130000000 1.0
C      1  0.4926240000000  0.5280900000000  0.5191070000000 1.0
C      1  0.5583420000000  0.5219740000000  0.4638990000000 1.0
C      1  0.4567050000000  0.5198910000000  0.5496740000000 1.0
C      1  0.4406790000000  0.5064800000000  0.4677050000000 1.0
C      1  0.5519190000000  0.4917570000000  0.5506760000000 1.0
C      1  0.4966050000000  0.5873190000000  0.5223510000000 1.0
C      1  0.5217390000000  0.5805710000000  0.5359420000000 1.0
C      1  0.5181840000000  0.4701840000000  0.4873970000000 1.0
C      1  0.5023040000000  0.4248370000000  0.4751240000000 1.0
C      1  0.4881550000000  0.5701510000000  0.5003790000000 1.0
C      1  0.4495350000000  0.5413430000000  0.5050370000000 1.0
C      1  0.4959470000000  0.5363960000000  0.4564010000000 1.0
C      1  0.4657120000000  0.5350060000000  0.5278290000000 1.0
C      1  0.5022710000000  0.4459770000000  0.4938610000000 1.0
C      1  0.5203680000000  0.4443080000000  0.5439510000000 1.0
C      1  0.5394620000000  0.4318170000000  0.4528300000000 1.0
C      1  0.4648400000000  0.5585940000000  0.4868590000000 1.0
C      1  0.4661420000000  0.4651230000000  0.4476220000000 1.0
C      1  0.5423810000000  0.5110420000000  0.5693130000000 1.0
C      1  0.5016880000000  0.5087660000000  0.4623660000000 1.0
C      1  0.4530240000000  0.4438690000000  0.4983050000000 1.0
C      1  0.5448320000000  0.4453600000000  0.5297880000000 1.0
C      1  0.5323850000000  0.5369500000000  0.5630230000000 1.0
C      1  0.4694510000000  0.5454710000000  0.4612200000000 1.0
C      1  0.4138820000000  0.4689900000000  0.5031980000000 1.0
C      1  0.4947900000000  0.5005250000000  0.5145640000000 1.0
C      1  0.5633730000000  0.4799530000000  0.5053350000000 1.0
C      1  0.5234740000000  0.5619290000000  0.5575230000000 1.0
C      1  0.4852590000000  0.4836610000000  0.5366400000000 1.0
C      1  0.5131480000000  0.5524410000000  0.4413490000000 1.0
C      1  0.5105090000000  0.4334310000000  0.4491020000000 1.0
C      1  0.4599690000000  0.4916550000000  0.5484460000000 1.0
C      1  0.5088030000000  0.4945790000000  0.4395760000000 1.0
C      1  0.4351700000000  0.4617620000000  0.4860990000000 1.0
C      1  0.5422150000000  0.5750740000000  0.5163270000000 1.0
C      1  0.5515390000000  0.4279960000000  0.4777900000000 1.0
C      1  0.4779460000000  0.4451060000000  0.5077260000000 1.0
C      1  0.5542560000000  0.4954330000000  0.4621350000000 1.0
C      1  0.5072320000000  0.5471260000000  0.5034590000000 1.0
C      1  0.4461630000000  0.4781050000000  0.4649240000000 1.0
C      1  0.5261290000000  0.5685690000000  0.4255120000000 1.0
C      1  0.4499050000000  0.5274360000000  0.4506570000000 1.0
C      1  0.5462420000000  0.4780240000000  0.4828890000000 1.0
C      1  0.4159660000000  0.4723760000000  0.5299280000000 1.0
C      1  0.5348650000000  0.5537000000000  0.4990160000000 1.0
C      1  0.5509030000000  0.4302780000000  0.5053420000000 1.0
C      1  0.5022110000000  0.4939990000000  0.4877990000000 1.0
C      1  0.5515400000000  0.5421990000000  0.4799830000000 1.0
C      1  0.5427090000000  0.5039070000000  0.5958950000000 1.0
C      1  0.4361690000000  0.4767750000000  0.5471260000000 1.0
C      1  0.5003230000000  0.4621240000000  0.5469590000000 1.0
END
