TITL C-599891-72-255 10.4276544746945 125000 -198.340205400652 0 0 35 (C1) n - 1
REM
REM in /home/nfs/bkarasulu/CARBON/AIRSS/Generating-Clusters/TERSOFF/Only-C1/FIRE-HFTN
REM
REM
REM
REM
REM
REM ./C.cell (11c1c37f851c82e70ff6c80c92926a4b)
REM AIRSS Version 0.9.1 bugfix July 2018 build 013d7b7c2542+ Fri, 06 Jul 2018 19:26:36 +0100
REM compiler GCC version 9.2.1 20190827 (Red Hat 9.2.1-1)
REM options -cpp -mtune=generic -march=x86-64 -g -O0 -fpre-include=/usr/include/finclude/math-vector-fortran.h
REM seed 1470326574 1616653441 -674057216 250666261 -1530363143 659957570 1547656843 -1256778028 -1543046728 -1000936268 -956249225 2034036076 966753544 76307750 395667596 -480603544 -381216478 1802617354 -861705391 2004509295 1839305041 570251947 -1280355562 -238287678 525315422 2124801690 -479884325 1906703789 -427051515 274271996 -484321436 -293385010 275511311
REM
CELL 1.54180   50.00000   50.00000   50.00000   90.00000   90.00000   90.00000
LATT -1
SFAC C  
C      1  0.5723300000000  0.5021780000000  0.4636470000000 1.0
C      1  0.4844750000000  0.4626240000000  0.4733240000000 1.0
C      1  0.5881310000000  0.5225000000000  0.4529260000000 1.0
C      1  0.4986380000000  0.4424200000000  0.4866240000000 1.0
C      1  0.3579780000000  0.5728940000000  0.5292060000000 1.0
C      1  0.5366810000000  0.4542220000000  0.5160850000000 1.0
C      1  0.5342520000000  0.4810900000000  0.5237410000000 1.0
C      1  0.4769690000000  0.5134530000000  0.4672130000000 1.0
C      1  0.4875430000000  0.5347010000000  0.4794280000000 1.0
C      1  0.5443530000000  0.4419800000000  0.4695640000000 1.0
C      1  0.4765490000000  0.4868620000000  0.4658620000000 1.0
C      1  0.4248750000000  0.5461080000000  0.5330890000000 1.0
C      1  0.4062770000000  0.5197600000000  0.4683270000000 1.0
C      1  0.5636560000000  0.4500100000000  0.4509540000000 1.0
C      1  0.5560630000000  0.5069220000000  0.4858920000000 1.0
C      1  0.4985230000000  0.5349550000000  0.5619330000000 1.0
C      1  0.4473370000000  0.5442330000000  0.5470010000000 1.0
C      1  0.4045210000000  0.5329290000000  0.4912490000000 1.0
C      1  0.4858930000000  0.4198710000000  0.4954120000000 1.0
C      1  0.5490020000000  0.4357340000000  0.5330020000000 1.0
C      1  0.5050370000000  0.5404150000000  0.4988460000000 1.0
C      1  0.5123710000000  0.5187960000000  0.5437320000000 1.0
C      1  0.3797340000000  0.5601060000000  0.5226970000000 1.0
C      1  0.4030330000000  0.5463870000000  0.5156830000000 1.0
C      1  0.5735400000000  0.4327480000000  0.4322730000000 1.0
C      1  0.5265860000000  0.4456870000000  0.4908270000000 1.0
C      1  0.5206790000000  0.5256920000000  0.5166600000000 1.0
C      1  0.5205350000000  0.4912900000000  0.5470690000000 1.0
C      1  0.5111300000000  0.5451220000000  0.5839660000000 1.0
C      1  0.6028390000000  0.5415520000000  0.4429290000000 1.0
C      1  0.5723400000000  0.4765810000000  0.4524040000000 1.0
C      1  0.5381260000000  0.5045430000000  0.5068410000000 1.0
C      1  0.5603710000000  0.4182790000000  0.5486600000000 1.0
C      1  0.4080730000000  0.5067110000000  0.4458300000000 1.0
C      1  0.4715610000000  0.5406440000000  0.5571020000000 1.0
END
