TITL C-599894-471-1118 -3558.52961542886 125000 -960.307508188941 0 0 156 (C1) n - 1
REM
REM in /home/nfs/bkarasulu/CARBON/AIRSS/Generating-Clusters/TERSOFF/Only-C1/FIRE-HFTN
REM
REM
REM
REM
REM
REM ./C.cell (11c1c37f851c82e70ff6c80c92926a4b)
REM AIRSS Version 0.9.1 bugfix July 2018 build 013d7b7c2542+ Fri, 06 Jul 2018 19:26:36 +0100
REM compiler GCC version 9.2.1 20190827 (Red Hat 9.2.1-1)
REM options -cpp -mtune=generic -march=x86-64 -g -O0 -fpre-include=/usr/include/finclude/math-vector-fortran.h
REM seed -1033323733 72385028 790005899 123804687 -1144572541 -1000738451 -165055496 -1370424176 9295215 -2043230499 1006573104 940565737 118352048 -1007847737 -2101080260 948175938 226152036 1803211457 287115835 1005028657 1358413096 1258613543 -1708849107 -1021673833 1884016736 1146146109 1240458951 -516704771 442436913 -2042602779 1790265587 -1561780163 1487928481
REM
CELL 1.54180   50.00000   50.00000   50.00000   90.00000   90.00000   90.00000
LATT -1
SFAC C  
C      1  0.5012080000000  0.3968720000000  0.4634950000000 1.0
C      1  0.5431170000000  0.4765290000000  0.4603250000000 1.0
C      1  0.5044000000000  0.4370250000000  0.4948210000000 1.0
C      1  0.4853420000000  0.4754970000000  0.6084300000000 1.0
C      1  0.4744150000000  0.5827040000000  0.5005260000000 1.0
C      1  0.4711520000000  0.4489250000000  0.4182830000000 1.0
C      1  0.4938880000000  0.4514540000000  0.5164630000000 1.0
C      1  0.4918450000000  0.5169780000000  0.5730170000000 1.0
C      1  0.4721250000000  0.4771600000000  0.4290390000000 1.0
C      1  0.4120060000000  0.4536380000000  0.5654160000000 1.0
C      1  0.3937420000000  0.4956380000000  0.5114090000000 1.0
C      1  0.6200340000000  0.5050670000000  0.5262270000000 1.0
C      1  0.5091960000000  0.5100030000000  0.4241080000000 1.0
C      1  0.4966520000000  0.5938220000000  0.4237800000000 1.0
C      1  0.5684800000000  0.4740660000000  0.4423600000000 1.0
C      1  0.4527340000000  0.4417330000000  0.4822780000000 1.0
C      1  0.5503790000000  0.5873980000000  0.4776270000000 1.0
C      1  0.5084570000000  0.5420330000000  0.5405840000000 1.0
C      1  0.4847940000000  0.5013660000000  0.6217330000000 1.0
C      1  0.4626130000000  0.4705870000000  0.5895150000000 1.0
C      1  0.4973500000000  0.4639180000000  0.3789890000000 1.0
C      1  0.4961270000000  0.5014760000000  0.5132130000000 1.0
C      1  0.5796050000000  0.4885670000000  0.5019620000000 1.0
C      1  0.5247640000000  0.4178760000000  0.4991830000000 1.0
C      1  0.4878830000000  0.5241190000000  0.5290270000000 1.0
C      1  0.5013130000000  0.5560830000000  0.3977970000000 1.0
C      1  0.5128190000000  0.5497420000000  0.4867660000000 1.0
C      1  0.5188880000000  0.4197270000000  0.5847260000000 1.0
C      1  0.5051100000000  0.5366180000000  0.3775850000000 1.0
C      1  0.5102890000000  0.4596120000000  0.6115940000000 1.0
C      1  0.5200710000000  0.5126110000000  0.3728630000000 1.0
C      1  0.4176780000000  0.5558900000000  0.5464150000000 1.0
C      1  0.4987860000000  0.4693780000000  0.5590870000000 1.0
C      1  0.4858790000000  0.5590270000000  0.4896420000000 1.0
C      1  0.6059770000000  0.5253030000000  0.4845540000000 1.0
C      1  0.4538390000000  0.5724310000000  0.4171070000000 1.0
C      1  0.4438860000000  0.5177220000000  0.5463810000000 1.0
C      1  0.6002100000000  0.4472780000000  0.4640560000000 1.0
C      1  0.5293920000000  0.5300060000000  0.4270350000000 1.0
C      1  0.5097930000000  0.4941830000000  0.5709720000000 1.0
C      1  0.5036050000000  0.4823240000000  0.4310110000000 1.0
C      1  0.5187730000000  0.4568840000000  0.6379560000000 1.0
C      1  0.5138300000000  0.5251900000000  0.4710320000000 1.0
C      1  0.4036050000000  0.5061790000000  0.5656920000000 1.0
C      1  0.5938320000000  0.4763340000000  0.4590830000000 1.0
C      1  0.5686560000000  0.5144110000000  0.3954570000000 1.0
C      1  0.5225050000000  0.5815420000000  0.4328930000000 1.0
C      1  0.5490900000000  0.4537730000000  0.4798910000000 1.0
C      1  0.4127270000000  0.5039290000000  0.4122060000000 1.0
C      1  0.5267780000000  0.3926450000000  0.5420770000000 1.0
C      1  0.3934060000000  0.4808260000000  0.4502620000000 1.0
C      1  0.4863460000000  0.5257910000000  0.4584670000000 1.0
C      1  0.5331790000000  0.4693790000000  0.5230010000000 1.0
C      1  0.5827510000000  0.5582670000000  0.5446470000000 1.0
C      1  0.5070030000000  0.4875400000000  0.3705920000000 1.0
C      1  0.5529300000000  0.5217800000000  0.4411310000000 1.0
C      1  0.4570850000000  0.6083990000000  0.4475730000000 1.0
C      1  0.5972130000000  0.4967990000000  0.4783640000000 1.0
C      1  0.5379200000000  0.5021630000000  0.5729260000000 1.0
C      1  0.5228250000000  0.5562800000000  0.4185750000000 1.0
C      1  0.5737880000000  0.5694460000000  0.4742870000000 1.0
C      1  0.5327090000000  0.5415600000000  0.5269100000000 1.0
C      1  0.5277860000000  0.6002280000000  0.5257090000000 1.0
C      1  0.4493380000000  0.4574120000000  0.5332470000000 1.0
C      1  0.4839740000000  0.5906720000000  0.5545360000000 1.0
C      1  0.3919110000000  0.5318780000000  0.4445710000000 1.0
C      1  0.4184440000000  0.5077810000000  0.5055280000000 1.0
C      1  0.5899520000000  0.5504780000000  0.4900280000000 1.0
C      1  0.5067420000000  0.5423850000000  0.5690790000000 1.0
C      1  0.5034030000000  0.6080580000000  0.4676170000000 1.0
C      1  0.5593310000000  0.5077360000000  0.6173620000000 1.0
C      1  0.3964520000000  0.5051960000000  0.4353420000000 1.0
C      1  0.4012770000000  0.5569190000000  0.4490150000000 1.0
C      1  0.5739340000000  0.4455730000000  0.5321710000000 1.0
C      1  0.4395320000000  0.5133920000000  0.6004830000000 1.0
C      1  0.5544970000000  0.5037720000000  0.5495900000000 1.0
C      1  0.4650230000000  0.3874630000000  0.4995460000000 1.0
C      1  0.5229570000000  0.4946940000000  0.5179300000000 1.0
C      1  0.4070080000000  0.4531920000000  0.4941410000000 1.0
C      1  0.4786890000000  0.5294310000000  0.6202210000000 1.0
C      1  0.4789760000000  0.4778460000000  0.5051850000000 1.0
C      1  0.4332650000000  0.4440130000000  0.5030040000000 1.0
C      1  0.5499610000000  0.5176270000000  0.5938430000000 1.0
C      1  0.4962730000000  0.5500660000000  0.6273730000000 1.0
C      1  0.5637380000000  0.3947540000000  0.5074490000000 1.0
C      1  0.4318140000000  0.5669810000000  0.4856840000000 1.0
C      1  0.4722720000000  0.3611850000000  0.5039710000000 1.0
C      1  0.4587500000000  0.4208580000000  0.4633950000000 1.0
C      1  0.5950280000000  0.4919020000000  0.5284220000000 1.0
C      1  0.3910690000000  0.4686270000000  0.5118840000000 1.0
C      1  0.4918190000000  0.4441150000000  0.3985590000000 1.0
C      1  0.4827900000000  0.5214070000000  0.4304640000000 1.0
C      1  0.5436840000000  0.5148400000000  0.5231390000000 1.0
C      1  0.4809960000000  0.5747950000000  0.4078590000000 1.0
C      1  0.4221440000000  0.5742200000000  0.4585570000000 1.0
C      1  0.4384230000000  0.4971910000000  0.4628430000000 1.0
C      1  0.4852920000000  0.6095740000000  0.4447570000000 1.0
C      1  0.4710030000000  0.5189000000000  0.5524220000000 1.0
C      1  0.5241170000000  0.5556170000000  0.5871930000000 1.0
C      1  0.5136120000000  0.5637500000000  0.6119730000000 1.0
C      1  0.4553300000000  0.4806550000000  0.5215310000000 1.0
C      1  0.5524040000000  0.4535780000000  0.5789450000000 1.0
C      1  0.4008620000000  0.4604310000000  0.4667600000000 1.0
C      1  0.4463730000000  0.5786360000000  0.5090020000000 1.0
C      1  0.5119900000000  0.4257710000000  0.4058990000000 1.0
C      1  0.5775340000000  0.4872210000000  0.5504400000000 1.0
C      1  0.4594290000000  0.4801640000000  0.4562370000000 1.0
C      1  0.4331320000000  0.4111680000000  0.5395600000000 1.0
C      1  0.4385140000000  0.5069380000000  0.4057250000000 1.0
C      1  0.4390260000000  0.5023630000000  0.5237590000000 1.0
C      1  0.4719120000000  0.4655400000000  0.4780400000000 1.0
C      1  0.5703780000000  0.5554000000000  0.5684080000000 1.0
C      1  0.5262830000000  0.4154240000000  0.4260420000000 1.0
C      1  0.5274330000000  0.4457370000000  0.5919900000000 1.0
C      1  0.5434910000000  0.4227790000000  0.4751360000000 1.0
C      1  0.5318660000000  0.5580350000000  0.5051020000000 1.0
C      1  0.5508400000000  0.5454620000000  0.5863260000000 1.0
C      1  0.5370290000000  0.3993070000000  0.5172540000000 1.0
C      1  0.4745100000000  0.3995540000000  0.4746160000000 1.0
C      1  0.5581530000000  0.5101990000000  0.4974070000000 1.0
C      1  0.5290220000000  0.5937700000000  0.4588820000000 1.0
C      1  0.5735470000000  0.5179280000000  0.4220460000000 1.0
C      1  0.4487360000000  0.3999140000000  0.5200680000000 1.0
C      1  0.5707490000000  0.4125620000000  0.4857720000000 1.0
C      1  0.5744480000000  0.4511190000000  0.4254300000000 1.0
C      1  0.4195590000000  0.4294810000000  0.5548430000000 1.0
C      1  0.4565200000000  0.5360890000000  0.6027200000000 1.0
C      1  0.4703080000000  0.4615130000000  0.5629790000000 1.0
C      1  0.4603850000000  0.4289510000000  0.4358720000000 1.0
C      1  0.5639950000000  0.4597780000000  0.5064910000000 1.0
C      1  0.6264070000000  0.5211630000000  0.5050350000000 1.0
C      1  0.5397250000000  0.5852240000000  0.5047950000000 1.0
C      1  0.4414800000000  0.5856420000000  0.4399530000000 1.0
C      1  0.4693860000000  0.5410990000000  0.4748380000000 1.0
C      1  0.5070030000000  0.5994690000000  0.5432600000000 1.0
C      1  0.4192600000000  0.5288410000000  0.5557440000000 1.0
C      1  0.4604480000000  0.5750630000000  0.5595430000000 1.0
C      1  0.4994730000000  0.4534510000000  0.4707760000000 1.0
C      1  0.4383420000000  0.4862250000000  0.5915270000000 1.0
C      1  0.4570430000000  0.5588530000000  0.5841350000000 1.0
C      1  0.5118420000000  0.4568300000000  0.5373230000000 1.0
C      1  0.4423190000000  0.5405830000000  0.4807340000000 1.0
C      1  0.5156190000000  0.4684530000000  0.4521260000000 1.0
C      1  0.4636060000000  0.5042060000000  0.4171980000000 1.0
C      1  0.5429650000000  0.5087840000000  0.4688820000000 1.0
C      1  0.4287260000000  0.5162880000000  0.4808610000000 1.0
C      1  0.5891480000000  0.5567340000000  0.5185290000000 1.0
C      1  0.5883030000000  0.4349310000000  0.4866280000000 1.0
C      1  0.5481590000000  0.5129240000000  0.3779270000000 1.0
C      1  0.4890710000000  0.6056270000000  0.4922520000000 1.0
C      1  0.5709980000000  0.4595680000000  0.5576070000000 1.0
C      1  0.4402790000000  0.5722660000000  0.5378300000000 1.0
C      1  0.5939700000000  0.4356090000000  0.4378300000000 1.0
C      1  0.4152280000000  0.4807030000000  0.5748600000000 1.0
C      1  0.5258690000000  0.4095850000000  0.4535520000000 1.0
C      1  0.5195030000000  0.4003790000000  0.5664610000000 1.0
END
