TITL C-599891-72-457 0.0784964315787389 125000 -344.315918635554 0 0 60 (C1) n - 1
REM
REM in /home/nfs/bkarasulu/CARBON/AIRSS/Generating-Clusters/TERSOFF/Only-C1/FIRE-HFTN
REM
REM
REM
REM
REM
REM ./C.cell (11c1c37f851c82e70ff6c80c92926a4b)
REM AIRSS Version 0.9.1 bugfix July 2018 build 013d7b7c2542+ Fri, 06 Jul 2018 19:26:36 +0100
REM compiler GCC version 9.2.1 20190827 (Red Hat 9.2.1-1)
REM options -cpp -mtune=generic -march=x86-64 -g -O0 -fpre-include=/usr/include/finclude/math-vector-fortran.h
REM seed -1112757032 -795333644 -1503374725 -1610507516 1795207615 1511576817 -2038399156 -1466645002 -1005581466 -725686484 -2047919482 1761495943 -1862855670 950160750 1573374212 -1649164715 -960419081 -1704786815 1567231283 -998644615 131045393 -512909299 -2125128944 -2032140879 -1899447435 -1850959148 -108738429 -1915846613 123561688 -502075761 711954355 -53529509 -1025604386
REM
CELL 1.54180   50.00000   50.00000   50.00000   90.00000   90.00000   90.00000
LATT -1
SFAC C  
C      1  0.4388470000000  0.5465190000000  0.4994740000000 1.0
C      1  0.3883530000000  0.4530480000000  0.5098460000000 1.0
C      1  0.4822830000000  0.5118910000000  0.4870350000000 1.0
C      1  0.4794760000000  0.5685560000000  0.5146910000000 1.0
C      1  0.5010410000000  0.5246180000000  0.5247410000000 1.0
C      1  0.4819610000000  0.4791450000000  0.5752460000000 1.0
C      1  0.5492330000000  0.5635580000000  0.5352600000000 1.0
C      1  0.5040360000000  0.4951360000000  0.4835430000000 1.0
C      1  0.5232840000000  0.5334500000000  0.4290330000000 1.0
C      1  0.4677410000000  0.5158900000000  0.4439510000000 1.0
C      1  0.5320430000000  0.4289590000000  0.5179910000000 1.0
C      1  0.5021180000000  0.4435010000000  0.4812890000000 1.0
C      1  0.5259120000000  0.5730650000000  0.5229540000000 1.0
C      1  0.5660710000000  0.4873880000000  0.4576560000000 1.0
C      1  0.4096740000000  0.4701990000000  0.5087330000000 1.0
C      1  0.5634320000000  0.4151750000000  0.4375590000000 1.0
C      1  0.4839520000000  0.4698490000000  0.4438680000000 1.0
C      1  0.4788140000000  0.5464910000000  0.5635370000000 1.0
C      1  0.4612020000000  0.5639710000000  0.4940480000000 1.0
C      1  0.4087770000000  0.4944100000000  0.5230760000000 1.0
C      1  0.5421610000000  0.5488740000000  0.4728060000000 1.0
C      1  0.5137210000000  0.4734640000000  0.5210050000000 1.0
C      1  0.6066690000000  0.4732370000000  0.4801230000000 1.0
C      1  0.5296270000000  0.5035020000000  0.4784600000000 1.0
C      1  0.4741010000000  0.5577570000000  0.4696690000000 1.0
C      1  0.5236310000000  0.5005940000000  0.5606270000000 1.0
C      1  0.5573560000000  0.5210070000000  0.5147440000000 1.0
C      1  0.5209910000000  0.4297780000000  0.4655290000000 1.0
C      1  0.4889770000000  0.4966960000000  0.4352600000000 1.0
C      1  0.5036400000000  0.5546760000000  0.5213130000000 1.0
C      1  0.5856270000000  0.4102610000000  0.4248000000000 1.0
C      1  0.4540850000000  0.4559550000000  0.4799620000000 1.0
C      1  0.4355060000000  0.5391320000000  0.5278220000000 1.0
C      1  0.4759820000000  0.5137040000000  0.5142520000000 1.0
C      1  0.4322140000000  0.4633410000000  0.4932880000000 1.0
C      1  0.5246010000000  0.5984450000000  0.5128790000000 1.0
C      1  0.5150040000000  0.4990060000000  0.5331780000000 1.0
C      1  0.5341280000000  0.5509100000000  0.4469260000000 1.0
C      1  0.5503030000000  0.5355640000000  0.5400610000000 1.0
C      1  0.4549700000000  0.5454330000000  0.5493030000000 1.0
C      1  0.5831250000000  0.4873580000000  0.4810990000000 1.0
C      1  0.4654610000000  0.4208020000000  0.5382790000000 1.0
C      1  0.5308520000000  0.5283480000000  0.5620100000000 1.0
C      1  0.4627090000000  0.4958430000000  0.5314860000000 1.0
C      1  0.4304980000000  0.5303910000000  0.4758890000000 1.0
C      1  0.4394460000000  0.5179700000000  0.4522240000000 1.0
C      1  0.5061330000000  0.5438970000000  0.5686780000000 1.0
C      1  0.4842830000000  0.4342070000000  0.5262500000000 1.0
C      1  0.4795590000000  0.5306570000000  0.4657140000000 1.0
C      1  0.5079920000000  0.4857620000000  0.5786370000000 1.0
C      1  0.4165480000000  0.5184580000000  0.5318050000000 1.0
C      1  0.5539700000000  0.4164620000000  0.5244190000000 1.0
C      1  0.4643150000000  0.4835520000000  0.5553630000000 1.0
C      1  0.5180060000000  0.5055290000000  0.4338220000000 1.0
C      1  0.5416760000000  0.5266150000000  0.4904240000000 1.0
C      1  0.5390070000000  0.4949990000000  0.4525420000000 1.0
C      1  0.4794950000000  0.4551960000000  0.4679270000000 1.0
C      1  0.5076200000000  0.4452810000000  0.5113900000000 1.0
C      1  0.5764050000000  0.5013740000000  0.5055420000000 1.0
C      1  0.5413580000000  0.4211440000000  0.4509600000000 1.0
END
