TITL C-599897-7526-283 0.575199056300236 125000 -1194.30064165522 0 0 194 (C1) n - 1
REM
REM in /home/nfs/bkarasulu/CARBON/AIRSS/Generating-Clusters/TERSOFF/Only-C1/FIRE-HFTN
REM
REM
REM
REM
REM
REM ./C.cell (11c1c37f851c82e70ff6c80c92926a4b)
REM AIRSS Version 0.9.1 bugfix July 2018 build 013d7b7c2542+ Fri, 06 Jul 2018 19:26:36 +0100
REM compiler GCC version 9.2.1 20190827 (Red Hat 9.2.1-1)
REM options -cpp -mtune=generic -march=x86-64 -g -O0 -fpre-include=/usr/include/finclude/math-vector-fortran.h
REM seed 2111838324 2093396178 -877062397 -1552826201 1805996785 1128908904 -585959860 -1039153523 -912416788 -612684816 -1124911045 1173071857 1012619702 -230095637 781525957 -484342403 -996958179 152413490 1771283301 2050369252 1920611088 -1279228512 1561174561 -179124947 1434938569 1476024739 -2137859039 1934414635 461982204 59579678 -76215663 1580225574 102709914
REM
CELL 1.54180   50.00000   50.00000   50.00000   90.00000   90.00000   90.00000
LATT -1
SFAC C  
C      1  0.4360060000000  0.5694440000000  0.5640250000000 1.0
C      1  0.5915850000000  0.4487000000000  0.5676660000000 1.0
C      1  0.4513050000000  0.4198990000000  0.4208540000000 1.0
C      1  0.4631310000000  0.4377680000000  0.4927940000000 1.0
C      1  0.5829880000000  0.3930290000000  0.4872540000000 1.0
C      1  0.4328980000000  0.5181480000000  0.4691550000000 1.0
C      1  0.4810020000000  0.5171170000000  0.5733350000000 1.0
C      1  0.4481530000000  0.4697680000000  0.5250360000000 1.0
C      1  0.6411610000000  0.4824900000000  0.4394410000000 1.0
C      1  0.5817140000000  0.4130620000000  0.3705040000000 1.0
C      1  0.6003530000000  0.5610030000000  0.4745980000000 1.0
C      1  0.4583090000000  0.5218150000000  0.6248650000000 1.0
C      1  0.4788030000000  0.5576070000000  0.6003060000000 1.0
C      1  0.5792010000000  0.4762690000000  0.4495340000000 1.0
C      1  0.4514610000000  0.5671670000000  0.4204220000000 1.0
C      1  0.4207910000000  0.3991730000000  0.4962210000000 1.0
C      1  0.5514470000000  0.4333250000000  0.5985210000000 1.0
C      1  0.5993370000000  0.5444990000000  0.5238760000000 1.0
C      1  0.4735350000000  0.4387000000000  0.5467140000000 1.0
C      1  0.4871640000000  0.3917040000000  0.4459160000000 1.0
C      1  0.5179240000000  0.5382280000000  0.3842310000000 1.0
C      1  0.5150740000000  0.3973190000000  0.5458620000000 1.0
C      1  0.4382100000000  0.4006080000000  0.4742420000000 1.0
C      1  0.5679260000000  0.5193880000000  0.4914640000000 1.0
C      1  0.4487740000000  0.4864460000000  0.4357810000000 1.0
C      1  0.4212220000000  0.4701460000000  0.5736480000000 1.0
C      1  0.4477970000000  0.4372420000000  0.3974800000000 1.0
C      1  0.4319550000000  0.5574820000000  0.5924760000000 1.0
C      1  0.5120190000000  0.4578460000000  0.5056690000000 1.0
C      1  0.4631580000000  0.4618750000000  0.4377150000000 1.0
C      1  0.4109000000000  0.5678490000000  0.4994430000000 1.0
C      1  0.4851470000000  0.3928880000000  0.5044780000000 1.0
C      1  0.5292940000000  0.5459440000000  0.4956380000000 1.0
C      1  0.4098560000000  0.5391090000000  0.5934840000000 1.0
C      1  0.4365840000000  0.5115230000000  0.4261410000000 1.0
C      1  0.4069560000000  0.5050650000000  0.4693030000000 1.0
C      1  0.5308000000000  0.5778500000000  0.4534060000000 1.0
C      1  0.5166660000000  0.5251950000000  0.4802920000000 1.0
C      1  0.5507670000000  0.5628630000000  0.4158270000000 1.0
C      1  0.4684030000000  0.5519790000000  0.5339880000000 1.0
C      1  0.4939070000000  0.4765450000000  0.6134980000000 1.0
C      1  0.5871480000000  0.4765460000000  0.5621400000000 1.0
C      1  0.4037820000000  0.4445240000000  0.5050600000000 1.0
C      1  0.4615550000000  0.3895300000000  0.5242610000000 1.0
C      1  0.4888710000000  0.5581060000000  0.5517100000000 1.0
C      1  0.5731520000000  0.5862590000000  0.5124680000000 1.0
C      1  0.5499600000000  0.4269010000000  0.4935530000000 1.0
C      1  0.5568610000000  0.4720150000000  0.4049270000000 1.0
C      1  0.5373360000000  0.4793080000000  0.5769860000000 1.0
C      1  0.3548770000000  0.5297210000000  0.5309030000000 1.0
C      1  0.6723140000000  0.4930680000000  0.3675560000000 1.0
C      1  0.4070520000000  0.4547940000000  0.5570390000000 1.0
C      1  0.3998830000000  0.4188730000000  0.4927720000000 1.0
C      1  0.6390110000000  0.4700090000000  0.4883590000000 1.0
C      1  0.4602720000000  0.6166130000000  0.5068020000000 1.0
C      1  0.5752930000000  0.4991420000000  0.5098060000000 1.0
C      1  0.5168170000000  0.4203560000000  0.4151640000000 1.0
C      1  0.5108920000000  0.4002110000000  0.4324410000000 1.0
C      1  0.5505910000000  0.5443650000000  0.5984570000000 1.0
C      1  0.5746570000000  0.5267190000000  0.5961400000000 1.0
C      1  0.5764930000000  0.4372390000000  0.5888340000000 1.0
C      1  0.4482210000000  0.5474450000000  0.3984410000000 1.0
C      1  0.5564550000000  0.5430120000000  0.5010780000000 1.0
C      1  0.5781800000000  0.4775130000000  0.4211270000000 1.0
C      1  0.4687440000000  0.5458030000000  0.5071000000000 1.0
C      1  0.5434420000000  0.6127070000000  0.4832760000000 1.0
C      1  0.3483600000000  0.5303040000000  0.5040510000000 1.0
C      1  0.3888080000000  0.4372300000000  0.4462300000000 1.0
C      1  0.4305590000000  0.4962260000000  0.5790890000000 1.0
C      1  0.5329070000000  0.4859960000000  0.4563940000000 1.0
C      1  0.5164530000000  0.5707900000000  0.4998660000000 1.0
C      1  0.3906820000000  0.5498450000000  0.5077450000000 1.0
C      1  0.5249830000000  0.4314970000000  0.5876270000000 1.0
C      1  0.3826510000000  0.5370000000000  0.5343330000000 1.0
C      1  0.5043580000000  0.6351540000000  0.4981390000000 1.0
C      1  0.4993410000000  0.4437060000000  0.5998960000000 1.0
C      1  0.4312610000000  0.5324570000000  0.4445280000000 1.0
C      1  0.4856020000000  0.5451030000000  0.5763980000000 1.0
C      1  0.4862470000000  0.3881850000000  0.4752240000000 1.0
C      1  0.4844430000000  0.6156820000000  0.5505880000000 1.0
C      1  0.5027720000000  0.5041810000000  0.5617020000000 1.0
C      1  0.5679070000000  0.4197540000000  0.4487050000000 1.0
C      1  0.5183370000000  0.5184520000000  0.6286280000000 1.0
C      1  0.5430560000000  0.4869710000000  0.6034900000000 1.0
C      1  0.4367080000000  0.5925810000000  0.5438620000000 1.0
C      1  0.4925330000000  0.5846820000000  0.4949740000000 1.0
C      1  0.5016950000000  0.5167690000000  0.3815520000000 1.0
C      1  0.6023560000000  0.5274200000000  0.5499530000000 1.0
C      1  0.5734980000000  0.5584410000000  0.5184330000000 1.0
C      1  0.5262870000000  0.4201320000000  0.5601350000000 1.0
C      1  0.5449010000000  0.4628180000000  0.5365790000000 1.0
C      1  0.4718100000000  0.5190850000000  0.4995930000000 1.0
C      1  0.3992440000000  0.4479200000000  0.5324990000000 1.0
C      1  0.3868340000000  0.4204080000000  0.4673970000000 1.0
C      1  0.5774830000000  0.5771130000000  0.4646960000000 1.0
C      1  0.5713930000000  0.4110880000000  0.5055970000000 1.0
C      1  0.4341970000000  0.5606500000000  0.4438330000000 1.0
C      1  0.5123340000000  0.5060540000000  0.5327690000000 1.0
C      1  0.5584150000000  0.4809400000000  0.5550270000000 1.0
C      1  0.5103250000000  0.5598330000000  0.4464400000000 1.0
C      1  0.5923730000000  0.5396620000000  0.5745970000000 1.0
C      1  0.4439260000000  0.5478110000000  0.5461090000000 1.0
C      1  0.5547780000000  0.4383340000000  0.4672340000000 1.0
C      1  0.4687190000000  0.4185630000000  0.5657490000000 1.0
C      1  0.4520830000000  0.4245000000000  0.4700080000000 1.0
C      1  0.5762700000000  0.4172410000000  0.3956520000000 1.0
C      1  0.4763170000000  0.4274870000000  0.5921280000000 1.0
C      1  0.6520280000000  0.4861430000000  0.4155640000000 1.0
C      1  0.3716950000000  0.5373390000000  0.4886150000000 1.0
C      1  0.5701850000000  0.4219160000000  0.4210440000000 1.0
C      1  0.4822540000000  0.5172800000000  0.4498410000000 1.0
C      1  0.4329680000000  0.3867730000000  0.5189820000000 1.0
C      1  0.5207740000000  0.4901440000000  0.4304960000000 1.0
C      1  0.5573400000000  0.5716400000000  0.4435130000000 1.0
C      1  0.5323000000000  0.6229860000000  0.5331050000000 1.0
C      1  0.4571640000000  0.4942320000000  0.3911090000000 1.0
C      1  0.5681350000000  0.5008920000000  0.6064160000000 1.0
C      1  0.5247450000000  0.4300120000000  0.5101620000000 1.0
C      1  0.4843830000000  0.5035430000000  0.5197850000000 1.0
C      1  0.5377260000000  0.4361440000000  0.5392470000000 1.0
C      1  0.4695360000000  0.3922630000000  0.5531110000000 1.0
C      1  0.5027110000000  0.4523570000000  0.4602700000000 1.0
C      1  0.5146260000000  0.5644950000000  0.5447870000000 1.0
C      1  0.4959360000000  0.6122400000000  0.4585430000000 1.0
C      1  0.5994080000000  0.4812800000000  0.4685170000000 1.0
C      1  0.6622750000000  0.4896360000000  0.3913700000000 1.0
C      1  0.5510990000000  0.5587760000000  0.5734270000000 1.0
C      1  0.4140370000000  0.4674810000000  0.4150190000000 1.0
C      1  0.6189580000000  0.4680570000000  0.5088050000000 1.0
C      1  0.4940020000000  0.5020980000000  0.4266500000000 1.0
C      1  0.5789640000000  0.5652020000000  0.5697960000000 1.0
C      1  0.4850950000000  0.5009470000000  0.3985080000000 1.0
C      1  0.5381630000000  0.5225620000000  0.5380060000000 1.0
C      1  0.4911080000000  0.4549250000000  0.4348090000000 1.0
C      1  0.5162600000000  0.4958880000000  0.4780090000000 1.0
C      1  0.4619960000000  0.5140040000000  0.4727980000000 1.0
C      1  0.4381860000000  0.4651260000000  0.3973560000000 1.0
C      1  0.5021190000000  0.5362830000000  0.4585640000000 1.0
C      1  0.5244790000000  0.4775090000000  0.5225850000000 1.0
C      1  0.4711790000000  0.5671840000000  0.4900500000000 1.0
C      1  0.4432330000000  0.5189620000000  0.3995810000000 1.0
C      1  0.5308510000000  0.6270540000000  0.5050490000000 1.0
C      1  0.4973210000000  0.4707970000000  0.4832580000000 1.0
C      1  0.6004490000000  0.4346240000000  0.5443830000000 1.0
C      1  0.5670840000000  0.5959040000000  0.4860650000000 1.0
C      1  0.5191000000000  0.4916260000000  0.6191510000000 1.0
C      1  0.4702220000000  0.6298570000000  0.4213730000000 1.0
C      1  0.4507050000000  0.4368080000000  0.4443760000000 1.0
C      1  0.5609820000000  0.5045770000000  0.5355560000000 1.0
C      1  0.5542420000000  0.4667410000000  0.4603550000000 1.0
C      1  0.5292820000000  0.4699840000000  0.4110550000000 1.0
C      1  0.4227080000000  0.5751250000000  0.4666990000000 1.0
C      1  0.5313330000000  0.5398220000000  0.6182700000000 1.0
C      1  0.4026930000000  0.5234060000000  0.5487450000000 1.0
C      1  0.4278930000000  0.5273250000000  0.5367010000000 1.0
C      1  0.6192180000000  0.4487420000000  0.5287820000000 1.0
C      1  0.4868490000000  0.4637080000000  0.5531770000000 1.0
C      1  0.5248310000000  0.6042260000000  0.4620190000000 1.0
C      1  0.5366420000000  0.5486160000000  0.5512170000000 1.0
C      1  0.4710510000000  0.4830120000000  0.5358850000000 1.0
C      1  0.4419660000000  0.4760280000000  0.4979060000000 1.0
C      1  0.6278550000000  0.4782290000000  0.4632200000000 1.0
C      1  0.4953220000000  0.3809000000000  0.5575080000000 1.0
C      1  0.6043130000000  0.4985590000000  0.5540680000000 1.0
C      1  0.4580110000000  0.4408820000000  0.5224780000000 1.0
C      1  0.6120550000000  0.5487600000000  0.4972220000000 1.0
C      1  0.5010320000000  0.5662170000000  0.4201690000000 1.0
C      1  0.5841290000000  0.4166340000000  0.5300540000000 1.0
C      1  0.4590260000000  0.5010180000000  0.5844100000000 1.0
C      1  0.4226000000000  0.5891790000000  0.5163600000000 1.0
C      1  0.4065780000000  0.4771340000000  0.4656920000000 1.0
C      1  0.4540120000000  0.5484540000000  0.6109550000000 1.0
C      1  0.4607250000000  0.6101030000000  0.5361820000000 1.0
C      1  0.4641780000000  0.3953200000000  0.4281910000000 1.0
C      1  0.4670010000000  0.4665360000000  0.4858340000000 1.0
C      1  0.4018200000000  0.4621220000000  0.4411180000000 1.0
C      1  0.4167600000000  0.4649920000000  0.4892690000000 1.0
C      1  0.4346570000000  0.6085300000000  0.4969690000000 1.0
C      1  0.5111280000000  0.6196810000000  0.5498460000000 1.0
C      1  0.4857150000000  0.6135980000000  0.4885080000000 1.0
C      1  0.5106730000000  0.4480160000000  0.4144970000000 1.0
C      1  0.4096300000000  0.5167560000000  0.5761230000000 1.0
C      1  0.5092680000000  0.4043490000000  0.5172890000000 1.0
C      1  0.4767310000000  0.5815760000000  0.4222780000000 1.0
C      1  0.4273340000000  0.6031770000000  0.4699900000000 1.0
C      1  0.5808330000000  0.3975270000000  0.4607630000000 1.0
C      1  0.5090180000000  0.4767860000000  0.5678020000000 1.0
C      1  0.5947900000000  0.4813340000000  0.4984890000000 1.0
C      1  0.5239570000000  0.5583710000000  0.4032220000000 1.0
C      1  0.4686340000000  0.4959670000000  0.6121370000000 1.0
C      1  0.4175500000000  0.3716540000000  0.5359250000000 1.0
C      1  0.4216580000000  0.6221980000000  0.4514540000000 1.0
C      1  0.4802710000000  0.6079060000000  0.4345560000000 1.0
C      1  0.3834990000000  0.5203170000000  0.4700060000000 1.0
END
