TITL C-599893-4344-89 -2.38746841641066e-06 125000 -251.826136073962 0 0 42 (C1) n - 1
REM
REM in /home/nfs/bkarasulu/CARBON/AIRSS/Generating-Clusters/TERSOFF/Only-C1/FIRE-HFTN
REM
REM
REM
REM
REM
REM ./C.cell (11c1c37f851c82e70ff6c80c92926a4b)
REM AIRSS Version 0.9.1 bugfix July 2018 build 013d7b7c2542+ Fri, 06 Jul 2018 19:26:36 +0100
REM compiler GCC version 9.2.1 20190827 (Red Hat 9.2.1-1)
REM options -cpp -mtune=generic -march=x86-64 -g -O0 -fpre-include=/usr/include/finclude/math-vector-fortran.h
REM seed -364143816 904605681 -554707274 1031415322 -384572801 -1006311112 -1265629446 2146906724 -450366198 2036093504 219420634 425734948 42983263 175108351 -1343282058 714342554 -71856704 402032306 -608701709 485198238 1573097779 1026044819 158014190 -1959045072 1411581732 784960236 -1999780802 -996481663 -945557423 -1762110494 1017526064 -1028264884 1999310206
REM
CELL 1.54180   50.00000   50.00000   50.00000   90.00000   90.00000   90.00000
LATT -1
SFAC C  
C      1  0.4073700000000  0.4810530000000  0.5306530000000 1.0
C      1  0.4552390000000  0.5008110000000  0.5694130000000 1.0
C      1  0.4729360000000  0.4626010000000  0.5459760000000 1.0
C      1  0.4425430000000  0.5016980000000  0.5040970000000 1.0
C      1  0.5560020000000  0.5318250000000  0.5088400000000 1.0
C      1  0.4984730000000  0.5372030000000  0.5363820000000 1.0
C      1  0.4869640000000  0.5376300000000  0.5604440000000 1.0
C      1  0.5191280000000  0.4485710000000  0.4898710000000 1.0
C      1  0.4856010000000  0.4824780000000  0.4886860000000 1.0
C      1  0.4692210000000  0.5231180000000  0.5742370000000 1.0
C      1  0.5132170000000  0.5345870000000  0.4883440000000 1.0
C      1  0.5548730000000  0.4812710000000  0.5023120000000 1.0
C      1  0.5226170000000  0.4782180000000  0.4530400000000 1.0
C      1  0.5358820000000  0.4596800000000  0.5104390000000 1.0
C      1  0.4527060000000  0.4822210000000  0.5483790000000 1.0
C      1  0.4577180000000  0.4855970000000  0.4859900000000 1.0
C      1  0.4786250000000  0.4431690000000  0.4408960000000 1.0
C      1  0.5406090000000  0.4776650000000  0.5549750000000 1.0
C      1  0.5008790000000  0.5240120000000  0.5117720000000 1.0
C      1  0.5066560000000  0.4699950000000  0.4747280000000 1.0
C      1  0.4914470000000  0.4254010000000  0.4568860000000 1.0
C      1  0.5580240000000  0.5050740000000  0.5189570000000 1.0
C      1  0.5089250000000  0.4248030000000  0.4779480000000 1.0
C      1  0.4444660000000  0.5300430000000  0.5022900000000 1.0
C      1  0.5501430000000  0.5150170000000  0.4403880000000 1.0
C      1  0.4560910000000  0.5543630000000  0.5013710000000 1.0
C      1  0.5080950000000  0.5313070000000  0.4603080000000 1.0
C      1  0.4861800000000  0.5176730000000  0.4482090000000 1.0
C      1  0.4751500000000  0.5734890000000  0.5019780000000 1.0
C      1  0.4336320000000  0.4882190000000  0.5277990000000 1.0
C      1  0.5548790000000  0.4991660000000  0.5465380000000 1.0
C      1  0.4948740000000  0.4972290000000  0.5105700000000 1.0
C      1  0.4986200000000  0.4551640000000  0.5435960000000 1.0
C      1  0.5256670000000  0.4607680000000  0.5376510000000 1.0
C      1  0.5311180000000  0.5340110000000  0.4436500000000 1.0
C      1  0.5269080000000  0.5757550000000  0.5028610000000 1.0
C      1  0.5365670000000  0.5493750000000  0.4976320000000 1.0
C      1  0.4733140000000  0.4687170000000  0.4337260000000 1.0
C      1  0.5005200000000  0.5828530000000  0.5033620000000 1.0
C      1  0.4758400000000  0.4955130000000  0.4365890000000 1.0
C      1  0.5637800000000  0.4829140000000  0.4754560000000 1.0
C      1  0.5484950000000  0.4897460000000  0.4527600000000 1.0
END
