TITL C-599896-8500-1216 3.66649710034208 125000 -532.661109891044 0 0 87 (C1) n - 1
REM
REM in /home/nfs/bkarasulu/CARBON/AIRSS/Generating-Clusters/TERSOFF/Only-C1/FIRE-HFTN
REM
REM
REM
REM
REM
REM ./C.cell (11c1c37f851c82e70ff6c80c92926a4b)
REM AIRSS Version 0.9.1 bugfix July 2018 build 013d7b7c2542+ Fri, 06 Jul 2018 19:26:36 +0100
REM compiler GCC version 9.2.1 20190827 (Red Hat 9.2.1-1)
REM options -cpp -mtune=generic -march=x86-64 -g -O0 -fpre-include=/usr/include/finclude/math-vector-fortran.h
REM seed -170202747 539231545 -639792821 -1295257396 1062956890 -2037475109 -1112061096 -413232438 2091305283 -700950876 -1649290156 550164857 1254277056 -1728058509 1214632145 -882282865 2106129239 1201503377 -437091524 488852367 -614664120 1753933185 654781759 318646494 -1743228089 -141943886 -421551466 -946009645 -1334341078 509540688 -708756191 -1455834017 -1440591266
REM
CELL 1.54180   50.00000   50.00000   50.00000   90.00000   90.00000   90.00000
LATT -1
SFAC C  
C      1  0.6266000000000  0.5001050000000  0.5110780000000 1.0
C      1  0.4112800000000  0.3962610000000  0.5151780000000 1.0
C      1  0.4757470000000  0.4974170000000  0.4287300000000 1.0
C      1  0.5591290000000  0.5225030000000  0.5022770000000 1.0
C      1  0.5271000000000  0.6047950000000  0.5365900000000 1.0
C      1  0.5935050000000  0.4384520000000  0.5117260000000 1.0
C      1  0.5683620000000  0.4263110000000  0.5137730000000 1.0
C      1  0.4057110000000  0.6039890000000  0.4932640000000 1.0
C      1  0.5349970000000  0.5282490000000  0.4611100000000 1.0
C      1  0.4871000000000  0.4293540000000  0.5404890000000 1.0
C      1  0.3811850000000  0.6037170000000  0.5046710000000 1.0
C      1  0.6154290000000  0.5765600000000  0.5241250000000 1.0
C      1  0.4447630000000  0.5748400000000  0.4803550000000 1.0
C      1  0.5401830000000  0.5622980000000  0.5614950000000 1.0
C      1  0.5407360000000  0.5371350000000  0.5487580000000 1.0
C      1  0.5306120000000  0.5143470000000  0.5616070000000 1.0
C      1  0.6177070000000  0.4520840000000  0.5149000000000 1.0
C      1  0.4531560000000  0.5133440000000  0.4352840000000 1.0
C      1  0.5001530000000  0.6058290000000  0.5262170000000 1.0
C      1  0.4466500000000  0.5464200000000  0.4774630000000 1.0
C      1  0.4946150000000  0.5084250000000  0.4852420000000 1.0
C      1  0.4655890000000  0.4372680000000  0.4846770000000 1.0
C      1  0.4241150000000  0.4811260000000  0.5347450000000 1.0
C      1  0.4316380000000  0.4669070000000  0.4679770000000 1.0
C      1  0.5261790000000  0.4671090000000  0.4402230000000 1.0
C      1  0.5450820000000  0.4704790000000  0.4589980000000 1.0
C      1  0.5561810000000  0.4766460000000  0.4825900000000 1.0
C      1  0.4605740000000  0.4269780000000  0.5323200000000 1.0
C      1  0.3599330000000  0.5614230000000  0.4910410000000 1.0
C      1  0.5421470000000  0.5366280000000  0.5202880000000 1.0
C      1  0.4731970000000  0.5391030000000  0.5168790000000 1.0
C      1  0.5640430000000  0.4103000000000  0.5590920000000 1.0
C      1  0.6258220000000  0.4724180000000  0.4713780000000 1.0
C      1  0.4924770000000  0.5893230000000  0.5039170000000 1.0
C      1  0.5475380000000  0.6046580000000  0.5159640000000 1.0
C      1  0.4420410000000  0.4666990000000  0.5511590000000 1.0
C      1  0.4308790000000  0.4579820000000  0.4412430000000 1.0
C      1  0.4674600000000  0.5881500000000  0.4909280000000 1.0
C      1  0.5237090000000  0.4137630000000  0.4511010000000 1.0
C      1  0.4248840000000  0.4902580000000  0.5082810000000 1.0
C      1  0.5101910000000  0.5147490000000  0.4612870000000 1.0
C      1  0.6234470000000  0.4750230000000  0.4991000000000 1.0
C      1  0.5571670000000  0.5327390000000  0.4757250000000 1.0
C      1  0.6276420000000  0.5256740000000  0.5180780000000 1.0
C      1  0.4518680000000  0.4561500000000  0.4241940000000 1.0
C      1  0.6246210000000  0.5517210000000  0.5222080000000 1.0
C      1  0.5746810000000  0.6084590000000  0.5208700000000 1.0
C      1  0.5328420000000  0.5879910000000  0.5585790000000 1.0
C      1  0.4971840000000  0.5294090000000  0.5056560000000 1.0
C      1  0.4506060000000  0.5322560000000  0.5018600000000 1.0
C      1  0.5429620000000  0.4093850000000  0.4690950000000 1.0
C      1  0.4704600000000  0.4903160000000  0.4885820000000 1.0
C      1  0.4585530000000  0.4645990000000  0.4802120000000 1.0
C      1  0.5188620000000  0.5471020000000  0.5070590000000 1.0
C      1  0.5985710000000  0.5970980000000  0.5237270000000 1.0
C      1  0.5329310000000  0.4432620000000  0.5434370000000 1.0
C      1  0.4044210000000  0.4047870000000  0.5398810000000 1.0
C      1  0.5567440000000  0.4139900000000  0.4914110000000 1.0
C      1  0.4538560000000  0.4216940000000  0.5052210000000 1.0
C      1  0.3788270000000  0.5484090000000  0.4743980000000 1.0
C      1  0.5131620000000  0.4944410000000  0.5642960000000 1.0
C      1  0.4458370000000  0.5324980000000  0.4528110000000 1.0
C      1  0.5622240000000  0.4943970000000  0.5020020000000 1.0
C      1  0.4996140000000  0.5097160000000  0.4360090000000 1.0
C      1  0.5013840000000  0.4545330000000  0.4344380000000 1.0
C      1  0.4174250000000  0.4230230000000  0.5549640000000 1.0
C      1  0.6259010000000  0.4698710000000  0.4454430000000 1.0
C      1  0.4402600000000  0.4383430000000  0.5490910000000 1.0
C      1  0.4124700000000  0.4809120000000  0.4841450000000 1.0
C      1  0.5058890000000  0.4488970000000  0.5477170000000 1.0
C      1  0.6538790000000  0.4348640000000  0.5511040000000 1.0
C      1  0.3998730000000  0.5653760000000  0.4656980000000 1.0
C      1  0.4481340000000  0.5045550000000  0.5013590000000 1.0
C      1  0.5156790000000  0.5733610000000  0.4962890000000 1.0
C      1  0.3910740000000  0.4962510000000  0.4743870000000 1.0
C      1  0.4772220000000  0.4687610000000  0.4259650000000 1.0
C      1  0.3802680000000  0.5205560000000  0.4714100000000 1.0
C      1  0.4673120000000  0.4768960000000  0.5591000000000 1.0
C      1  0.4180750000000  0.5841020000000  0.4774850000000 1.0
C      1  0.3615040000000  0.5852210000000  0.5037830000000 1.0
C      1  0.4792550000000  0.4240600000000  0.4643060000000 1.0
C      1  0.5001080000000  0.4283990000000  0.4463900000000 1.0
C      1  0.4955310000000  0.4737290000000  0.5577160000000 1.0
C      1  0.5550820000000  0.4266340000000  0.5389900000000 1.0
C      1  0.5391140000000  0.5893680000000  0.4934130000000 1.0
C      1  0.4326120000000  0.4037100000000  0.5004430000000 1.0
C      1  0.6364690000000  0.4430580000000  0.5335290000000 1.0
END
