TITL C-599893-4344-808 -4.16888159110174 125000 -987.671416105593 0 0 164 (C1) n - 1
REM
REM in /home/nfs/bkarasulu/CARBON/AIRSS/Generating-Clusters/TERSOFF/Only-C1/FIRE-HFTN
REM
REM
REM
REM
REM
REM ./C.cell (11c1c37f851c82e70ff6c80c92926a4b)
REM AIRSS Version 0.9.1 bugfix July 2018 build 013d7b7c2542+ Fri, 06 Jul 2018 19:26:36 +0100
REM compiler GCC version 9.2.1 20190827 (Red Hat 9.2.1-1)
REM options -cpp -mtune=generic -march=x86-64 -g -O0 -fpre-include=/usr/include/finclude/math-vector-fortran.h
REM seed -180749985 744778195 1650996555 -1619179689 -953366763 -2049334648 -384005660 -1612528471 -1456016021 -1251620197 1306179947 366399643 -1893994947 -1670558632 -1872169942 -1599839933 -841666073 -1379120321 -745039715 1825278293 410641453 -1462443385 -711767606 -1091212694 -2014835565 677120010 -1702550789 1773795765 -253848132 1056541040 630369492 1618008700 100589427
REM
CELL 1.54180   50.00000   50.00000   50.00000   90.00000   90.00000   90.00000
LATT -1
SFAC C  
C      1  0.3925050000000  0.5383730000000  0.5005380000000 1.0
C      1  0.4441130000000  0.5362320000000  0.4812060000000 1.0
C      1  0.5221370000000  0.5157180000000  0.5768250000000 1.0
C      1  0.5041510000000  0.5352180000000  0.4739920000000 1.0
C      1  0.5189340000000  0.4204200000000  0.5048550000000 1.0
C      1  0.5293050000000  0.4002950000000  0.4474620000000 1.0
C      1  0.4684830000000  0.5830870000000  0.4501410000000 1.0
C      1  0.4935610000000  0.5578790000000  0.4128180000000 1.0
C      1  0.4257220000000  0.4600980000000  0.5963250000000 1.0
C      1  0.4897860000000  0.4995400000000  0.4355380000000 1.0
C      1  0.5060320000000  0.5204280000000  0.6242600000000 1.0
C      1  0.4994510000000  0.4434350000000  0.4607980000000 1.0
C      1  0.5201410000000  0.4877350000000  0.5703690000000 1.0
C      1  0.4565390000000  0.4942960000000  0.4012740000000 1.0
C      1  0.4370140000000  0.5026810000000  0.5208450000000 1.0
C      1  0.3675860000000  0.4382870000000  0.4424490000000 1.0
C      1  0.4905470000000  0.5192580000000  0.4931640000000 1.0
C      1  0.5190400000000  0.4723720000000  0.3852630000000 1.0
C      1  0.5802200000000  0.4245460000000  0.5020410000000 1.0
C      1  0.4815340000000  0.5423820000000  0.5586110000000 1.0
C      1  0.4335040000000  0.6095910000000  0.4717240000000 1.0
C      1  0.4780220000000  0.4564300000000  0.4512620000000 1.0
C      1  0.5939430000000  0.5218910000000  0.4652400000000 1.0
C      1  0.5189990000000  0.5696810000000  0.4209520000000 1.0
C      1  0.3941220000000  0.5044610000000  0.4666870000000 1.0
C      1  0.3798620000000  0.4783080000000  0.4125900000000 1.0
C      1  0.4649600000000  0.5053590000000  0.5957240000000 1.0
C      1  0.5450750000000  0.5195170000000  0.5937450000000 1.0
C      1  0.4361320000000  0.5331410000000  0.5299780000000 1.0
C      1  0.3643670000000  0.4603170000000  0.4263750000000 1.0
C      1  0.5981590000000  0.5088010000000  0.4907750000000 1.0
C      1  0.5683650000000  0.5268380000000  0.5780390000000 1.0
C      1  0.5463430000000  0.4626850000000  0.4999820000000 1.0
C      1  0.5152310000000  0.6136250000000  0.5154010000000 1.0
C      1  0.4829640000000  0.4845160000000  0.5245670000000 1.0
C      1  0.5212680000000  0.4141180000000  0.5738770000000 1.0
C      1  0.5750430000000  0.4201090000000  0.4552270000000 1.0
C      1  0.5699110000000  0.6386050000000  0.5162200000000 1.0
C      1  0.5647340000000  0.5757220000000  0.5524930000000 1.0
C      1  0.5117370000000  0.4009270000000  0.5244020000000 1.0
C      1  0.5165480000000  0.6435660000000  0.4567300000000 1.0
C      1  0.4968820000000  0.4439130000000  0.5438090000000 1.0
C      1  0.5932710000000  0.4764400000000  0.6420070000000 1.0
C      1  0.4669400000000  0.4665070000000  0.3951000000000 1.0
C      1  0.4329820000000  0.5022640000000  0.4929690000000 1.0
C      1  0.4419320000000  0.4874800000000  0.5457400000000 1.0
C      1  0.5485990000000  0.4234040000000  0.5682590000000 1.0
C      1  0.4852080000000  0.5256330000000  0.6042740000000 1.0
C      1  0.4463280000000  0.5438180000000  0.4307570000000 1.0
C      1  0.5883910000000  0.4359990000000  0.4757060000000 1.0
C      1  0.5168250000000  0.5270890000000  0.5291850000000 1.0
C      1  0.5928340000000  0.4685290000000  0.5250910000000 1.0
C      1  0.4585060000000  0.5297070000000  0.4558230000000 1.0
C      1  0.5217950000000  0.4536790000000  0.5368810000000 1.0
C      1  0.5335870000000  0.5105330000000  0.6197550000000 1.0
C      1  0.5924500000000  0.4832850000000  0.5520720000000 1.0
C      1  0.4019900000000  0.5503320000000  0.4730590000000 1.0
C      1  0.4979650000000  0.5312000000000  0.4013570000000 1.0
C      1  0.4277120000000  0.5026520000000  0.4101680000000 1.0
C      1  0.5213560000000  0.5528670000000  0.4863960000000 1.0
C      1  0.4183690000000  0.4612260000000  0.4319010000000 1.0
C      1  0.4525340000000  0.5447690000000  0.5079480000000 1.0
C      1  0.5685280000000  0.4305330000000  0.5507570000000 1.0
C      1  0.5226820000000  0.4627860000000  0.6335490000000 1.0
C      1  0.5479890000000  0.5093490000000  0.4729770000000 1.0
C      1  0.5908080000000  0.4762820000000  0.4460990000000 1.0
C      1  0.4640080000000  0.5013190000000  0.4497220000000 1.0
C      1  0.4795500000000  0.5405400000000  0.5111740000000 1.0
C      1  0.4854040000000  0.4552680000000  0.5644390000000 1.0
C      1  0.5338050000000  0.5355470000000  0.5079070000000 1.0
C      1  0.5177330000000  0.4413360000000  0.6155150000000 1.0
C      1  0.3942720000000  0.5225680000000  0.5530100000000 1.0
C      1  0.4863100000000  0.5409050000000  0.4547430000000 1.0
C      1  0.4609840000000  0.4413060000000  0.4078510000000 1.0
C      1  0.3813430000000  0.4511110000000  0.5420600000000 1.0
C      1  0.5255630000000  0.5240330000000  0.3972420000000 1.0
C      1  0.3920920000000  0.4243210000000  0.4474270000000 1.0
C      1  0.5353780000000  0.4107080000000  0.4214480000000 1.0
C      1  0.4220770000000  0.5274590000000  0.4266490000000 1.0
C      1  0.5782180000000  0.5474430000000  0.4635550000000 1.0
C      1  0.4294310000000  0.4708890000000  0.4558700000000 1.0
C      1  0.4735190000000  0.4276280000000  0.5968910000000 1.0
C      1  0.5816120000000  0.4612990000000  0.4240510000000 1.0
C      1  0.5293370000000  0.5984130000000  0.4959690000000 1.0
C      1  0.4082700000000  0.4811890000000  0.4142600000000 1.0
C      1  0.5467760000000  0.4312590000000  0.4086880000000 1.0
C      1  0.4443690000000  0.4392580000000  0.5588300000000 1.0
C      1  0.4938500000000  0.4637910000000  0.6793340000000 1.0
C      1  0.4307650000000  0.4608500000000  0.5465840000000 1.0
C      1  0.4983300000000  0.5324250000000  0.5795080000000 1.0
C      1  0.5472500000000  0.4870860000000  0.5166890000000 1.0
C      1  0.4816470000000  0.5092680000000  0.4095050000000 1.0
C      1  0.4937470000000  0.5930440000000  0.4620730000000 1.0
C      1  0.5611020000000  0.4025980000000  0.4940680000000 1.0
C      1  0.4918890000000  0.4918410000000  0.4824970000000 1.0
C      1  0.5548090000000  0.5859760000000  0.4535560000000 1.0
C      1  0.4432900000000  0.5847670000000  0.4651670000000 1.0
C      1  0.5275340000000  0.4827400000000  0.5410770000000 1.0
C      1  0.4974410000000  0.4734320000000  0.5815840000000 1.0
C      1  0.5958020000000  0.4634290000000  0.4722280000000 1.0
C      1  0.5159780000000  0.5726000000000  0.5376320000000 1.0
C      1  0.6039490000000  0.4698800000000  0.5733970000000 1.0
C      1  0.4304910000000  0.4129700000000  0.4789090000000 1.0
C      1  0.4669490000000  0.5656550000000  0.4253800000000 1.0
C      1  0.5822820000000  0.4399990000000  0.5266890000000 1.0
C      1  0.5038200000000  0.4251640000000  0.5959610000000 1.0
C      1  0.5532060000000  0.5141050000000  0.5023480000000 1.0
C      1  0.5435720000000  0.4640730000000  0.4721070000000 1.0
C      1  0.5467250000000  0.5069320000000  0.4066490000000 1.0
C      1  0.4792290000000  0.4814370000000  0.6013800000000 1.0
C      1  0.5867490000000  0.5045090000000  0.4429110000000 1.0
C      1  0.3797620000000  0.5137080000000  0.4902890000000 1.0
C      1  0.3971000000000  0.5037780000000  0.5733180000000 1.0
C      1  0.5106090000000  0.6639960000000  0.4394520000000 1.0
C      1  0.5336850000000  0.4422660000000  0.5146340000000 1.0
C      1  0.5810030000000  0.5214130000000  0.5092490000000 1.0
C      1  0.5660470000000  0.5175960000000  0.4255760000000 1.0
C      1  0.4513710000000  0.5058600000000  0.5689480000000 1.0
C      1  0.5412860000000  0.4845280000000  0.6295740000000 1.0
C      1  0.5109030000000  0.3989690000000  0.5516240000000 1.0
C      1  0.5831900000000  0.5107530000000  0.5576420000000 1.0
C      1  0.4665500000000  0.4454570000000  0.4929410000000 1.0
C      1  0.5888240000000  0.5271070000000  0.5350310000000 1.0
C      1  0.5621010000000  0.5443780000000  0.4370290000000 1.0
C      1  0.4731020000000  0.4097840000000  0.4515780000000 1.0
C      1  0.4580350000000  0.4212810000000  0.4761670000000 1.0
C      1  0.5774480000000  0.6009630000000  0.5516570000000 1.0
C      1  0.4049340000000  0.4761450000000  0.5799240000000 1.0
C      1  0.5068610000000  0.4912060000000  0.4569300000000 1.0
C      1  0.4031410000000  0.4612820000000  0.5543780000000 1.0
C      1  0.5427850000000  0.4790720000000  0.3995070000000 1.0
C      1  0.5447340000000  0.5677460000000  0.4330880000000 1.0
C      1  0.5081330000000  0.4272330000000  0.4803020000000 1.0
C      1  0.4114940000000  0.4343360000000  0.4291820000000 1.0
C      1  0.5581660000000  0.4570410000000  0.4091930000000 1.0
C      1  0.5082610000000  0.4627600000000  0.6576460000000 1.0
C      1  0.5669540000000  0.5723790000000  0.4774700000000 1.0
C      1  0.4050830000000  0.5363770000000  0.5288920000000 1.0
C      1  0.4542470000000  0.5320850000000  0.5555090000000 1.0
C      1  0.5529310000000  0.4031850000000  0.4655350000000 1.0
C      1  0.5456440000000  0.5723660000000  0.5312030000000 1.0
C      1  0.5132030000000  0.5803460000000  0.4803560000000 1.0
C      1  0.5692250000000  0.5551540000000  0.5714810000000 1.0
C      1  0.5380170000000  0.6467190000000  0.4748730000000 1.0
C      1  0.5994760000000  0.4798480000000  0.4964460000000 1.0
C      1  0.4170930000000  0.4889300000000  0.4739180000000 1.0
C      1  0.5532280000000  0.5815980000000  0.5029980000000 1.0
C      1  0.4567670000000  0.4746060000000  0.4539290000000 1.0
C      1  0.4999890000000  0.3962090000000  0.4514510000000 1.0
C      1  0.5055580000000  0.5992170000000  0.5364310000000 1.0
C      1  0.5682300000000  0.4801420000000  0.6358180000000 1.0
C      1  0.5059300000000  0.5003600000000  0.5304430000000 1.0
C      1  0.5561610000000  0.6462680000000  0.4945520000000 1.0
C      1  0.4645900000000  0.4208690000000  0.4256570000000 1.0
C      1  0.5344160000000  0.4879920000000  0.4607800000000 1.0
C      1  0.4928810000000  0.4670590000000  0.3827830000000 1.0
C      1  0.4285600000000  0.5613430000000  0.4731010000000 1.0
C      1  0.4048040000000  0.4131030000000  0.4701120000000 1.0
C      1  0.4791420000000  0.4717470000000  0.4992820000000 1.0
C      1  0.4016850000000  0.5285480000000  0.4503060000000 1.0
C      1  0.4970300000000  0.5484270000000  0.5342320000000 1.0
C      1  0.5010640000000  0.6199480000000  0.4558910000000 1.0
C      1  0.5777830000000  0.6233660000000  0.5368010000000 1.0
C      1  0.4477720000000  0.4400120000000  0.5879510000000 1.0
END
