TITL C-599896-8500-462 279.382828130091 125000 -741.835992254864 0 0 121 (C1) n - 1
REM
REM in /home/nfs/bkarasulu/CARBON/AIRSS/Generating-Clusters/TERSOFF/Only-C1/FIRE-HFTN
REM
REM
REM
REM
REM
REM ./C.cell (11c1c37f851c82e70ff6c80c92926a4b)
REM AIRSS Version 0.9.1 bugfix July 2018 build 013d7b7c2542+ Fri, 06 Jul 2018 19:26:36 +0100
REM compiler GCC version 9.2.1 20190827 (Red Hat 9.2.1-1)
REM options -cpp -mtune=generic -march=x86-64 -g -O0 -fpre-include=/usr/include/finclude/math-vector-fortran.h
REM seed 625385622 -663672709 707515525 1185023356 -1659038385 -629829679 926463775 993183013 -1829073171 663720474 1420889133 -1141485266 -350568896 204902295 -1608070301 -347353941 -434287891 -1279102572 1191750011 1134513084 1038448608 360201802 1504608113 -1500575814 215588518 1501766622 1483623926 -144430001 -1160182530 -137688045 239073338 861456671 2142696660
REM
CELL 1.54180   50.00000   50.00000   50.00000   90.00000   90.00000   90.00000
LATT -1
SFAC C  
C      1  0.4599730000000  0.5326990000000  0.4629760000000 1.0
C      1  0.4436090000000  0.3756070000000  0.4496050000000 1.0
C      1  0.4443270000000  0.5134900000000  0.5402290000000 1.0
C      1  0.5553200000000  0.5075790000000  0.4251770000000 1.0
C      1  0.5648830000000  0.5444040000000  0.5262210000000 1.0
C      1  0.4111090000000  0.4675580000000  0.5128550000000 1.0
C      1  0.4242390000000  0.3820830000000  0.4665460000000 1.0
C      1  0.5048840000000  0.5068170000000  0.5069900000000 1.0
C      1  0.5413100000000  0.5185530000000  0.5860830000000 1.0
C      1  0.6070770000000  0.4823300000000  0.5154650000000 1.0
C      1  0.5055350000000  0.6095230000000  0.4993750000000 1.0
C      1  0.4395000000000  0.5082460000000  0.3982350000000 1.0
C      1  0.5519870000000  0.4627230000000  0.5692210000000 1.0
C      1  0.5702980000000  0.4334640000000  0.4874920000000 1.0
C      1  0.6140360000000  0.4553730000000  0.5211830000000 1.0
C      1  0.5279680000000  0.4936560000000  0.5986480000000 1.0
C      1  0.4095600000000  0.5145760000000  0.4942800000000 1.0
C      1  0.5459440000000  0.4648910000000  0.5418630000000 1.0
C      1  0.5129530000000  0.5549410000000  0.4770460000000 1.0
C      1  0.4994710000000  0.4730330000000  0.5419990000000 1.0
C      1  0.4832670000000  0.5633560000000  0.5191770000000 1.0
C      1  0.5258300000000  0.4459510000000  0.3641430000000 1.0
C      1  0.5542310000000  0.5761310000000  0.5622850000000 1.0
C      1  0.5672580000000  0.5251810000000  0.5711890000000 1.0
C      1  0.5759460000000  0.4937560000000  0.4417390000000 1.0
C      1  0.4242240000000  0.4781070000000  0.4645050000000 1.0
C      1  0.5354710000000  0.4132400000000  0.5519110000000 1.0
C      1  0.4351420000000  0.4873460000000  0.4165960000000 1.0
C      1  0.4268270000000  0.4427790000000  0.4300500000000 1.0
C      1  0.5355780000000  0.5462170000000  0.5232070000000 1.0
C      1  0.5668660000000  0.5503730000000  0.5551520000000 1.0
C      1  0.5298490000000  0.5924420000000  0.5562510000000 1.0
C      1  0.5389280000000  0.5622830000000  0.4221760000000 1.0
C      1  0.4268330000000  0.5328800000000  0.5340390000000 1.0
C      1  0.6024290000000  0.4987230000000  0.5392600000000 1.0
C      1  0.4190660000000  0.4517590000000  0.4546080000000 1.0
C      1  0.4986140000000  0.5608190000000  0.6118250000000 1.0
C      1  0.5175830000000  0.4235840000000  0.5698500000000 1.0
C      1  0.5319820000000  0.4914500000000  0.4192930000000 1.0
C      1  0.4811390000000  0.4584850000000  0.5842160000000 1.0
C      1  0.5425010000000  0.4907830000000  0.4834000000000 1.0
C      1  0.4178110000000  0.4695300000000  0.5408840000000 1.0
C      1  0.4609550000000  0.4600080000000  0.5618150000000 1.0
C      1  0.5088400000000  0.4475230000000  0.5836640000000 1.0
C      1  0.5721240000000  0.5373860000000  0.4771350000000 1.0
C      1  0.5357770000000  0.4038940000000  0.4165610000000 1.0
C      1  0.5141430000000  0.6006410000000  0.4720720000000 1.0
C      1  0.4774400000000  0.4801290000000  0.6036560000000 1.0
C      1  0.5767120000000  0.4479840000000  0.4635460000000 1.0
C      1  0.5722740000000  0.5553050000000  0.4991370000000 1.0
C      1  0.5202350000000  0.4572270000000  0.5320280000000 1.0
C      1  0.4035600000000  0.4873140000000  0.6035910000000 1.0
C      1  0.5706010000000  0.4353470000000  0.4392870000000 1.0
C      1  0.4552610000000  0.5295880000000  0.3939870000000 1.0
C      1  0.5144460000000  0.4447780000000  0.5074510000000 1.0
C      1  0.5317940000000  0.5779970000000  0.4740020000000 1.0
C      1  0.5639220000000  0.4911250000000  0.5008570000000 1.0
C      1  0.4331960000000  0.4667130000000  0.5651630000000 1.0
C      1  0.4191910000000  0.5643730000000  0.4980510000000 1.0
C      1  0.4158990000000  0.5383310000000  0.5085220000000 1.0
C      1  0.4970350000000  0.5916540000000  0.4490960000000 1.0
C      1  0.5056560000000  0.4610730000000  0.4860960000000 1.0
C      1  0.4277730000000  0.4785330000000  0.5902430000000 1.0
C      1  0.5855920000000  0.4759590000000  0.4637250000000 1.0
C      1  0.5495990000000  0.5294030000000  0.4642100000000 1.0
C      1  0.4713450000000  0.5309700000000  0.4884570000000 1.0
C      1  0.5216870000000  0.5336260000000  0.4604870000000 1.0
C      1  0.5126030000000  0.3909750000000  0.4166290000000 1.0
C      1  0.5343000000000  0.5739320000000  0.5170520000000 1.0
C      1  0.4098000000000  0.4997850000000  0.6275840000000 1.0
C      1  0.5036410000000  0.5278230000000  0.4391530000000 1.0
C      1  0.4653960000000  0.3759500000000  0.4344730000000 1.0
C      1  0.4004360000000  0.4174200000000  0.4966070000000 1.0
C      1  0.5156780000000  0.4876550000000  0.4889940000000 1.0
C      1  0.4593300000000  0.5966420000000  0.4836960000000 1.0
C      1  0.5879180000000  0.5076100000000  0.5608030000000 1.0
C      1  0.5994460000000  0.4329320000000  0.5245830000000 1.0
C      1  0.5058740000000  0.5837720000000  0.5697550000000 1.0
C      1  0.4338800000000  0.5860270000000  0.4915760000000 1.0
C      1  0.4891460000000  0.4519540000000  0.4665830000000 1.0
C      1  0.4674560000000  0.4547340000000  0.4043180000000 1.0
C      1  0.4696710000000  0.5851110000000  0.4585280000000 1.0
C      1  0.5543960000000  0.4140730000000  0.5322820000000 1.0
C      1  0.5194300000000  0.5361010000000  0.5757480000000 1.0
C      1  0.4775540000000  0.6052760000000  0.5052060000000 1.0
C      1  0.4386760000000  0.4937350000000  0.4445860000000 1.0
C      1  0.5519170000000  0.5766090000000  0.4939070000000 1.0
C      1  0.4818530000000  0.5922290000000  0.5566720000000 1.0
C      1  0.5558960000000  0.4196520000000  0.4237250000000 1.0
C      1  0.5011380000000  0.4951860000000  0.6101830000000 1.0
C      1  0.5037960000000  0.4848120000000  0.4209460000000 1.0
C      1  0.4897730000000  0.5519900000000  0.4944180000000 1.0
C      1  0.5741860000000  0.4248150000000  0.5144590000000 1.0
C      1  0.5248490000000  0.5977480000000  0.5275840000000 1.0
C      1  0.4004470000000  0.4424560000000  0.5054500000000 1.0
C      1  0.5587560000000  0.4841160000000  0.5269710000000 1.0
C      1  0.4623050000000  0.5083190000000  0.4484390000000 1.0
C      1  0.4761900000000  0.5086940000000  0.5051860000000 1.0
C      1  0.4373250000000  0.4997300000000  0.6311890000000 1.0
C      1  0.4409990000000  0.4596370000000  0.4120510000000 1.0
C      1  0.4952550000000  0.5493800000000  0.4218520000000 1.0
C      1  0.4090590000000  0.3962720000000  0.4830630000000 1.0
C      1  0.5109600000000  0.4539030000000  0.3840170000000 1.0
C      1  0.5079010000000  0.5601240000000  0.5860400000000 1.0
C      1  0.5172190000000  0.5256310000000  0.5260310000000 1.0
C      1  0.5097930000000  0.5216510000000  0.5530600000000 1.0
C      1  0.5315640000000  0.4665100000000  0.5883690000000 1.0
C      1  0.4717850000000  0.4717700000000  0.5379000000000 1.0
C      1  0.4151330000000  0.4867950000000  0.4907930000000 1.0
C      1  0.4886560000000  0.3815000000000  0.4229900000000 1.0
C      1  0.5049750000000  0.4950150000000  0.5578910000000 1.0
C      1  0.4938910000000  0.4642530000000  0.4037080000000 1.0
C      1  0.5904260000000  0.4861540000000  0.4912900000000 1.0
C      1  0.4756500000000  0.5886990000000  0.5293280000000 1.0
C      1  0.4504310000000  0.4865910000000  0.6088260000000 1.0
C      1  0.5521320000000  0.5372610000000  0.4197260000000 1.0
C      1  0.4580900000000  0.5592990000000  0.4525200000000 1.0
C      1  0.4755020000000  0.5450620000000  0.4024190000000 1.0
C      1  0.4614870000000  0.4961280000000  0.5260310000000 1.0
C      1  0.5110150000000  0.5731580000000  0.4280810000000 1.0
C      1  0.4885980000000  0.5037390000000  0.4366440000000 1.0
END
