TITL C-599892-9790-1409 2.11517712655909 125000 -1149.97199144815 0 0 186 (C1) n - 1
REM
REM in /home/nfs/bkarasulu/CARBON/AIRSS/Generating-Clusters/TERSOFF/Only-C1/FIRE-HFTN
REM
REM
REM
REM
REM
REM ./C.cell (11c1c37f851c82e70ff6c80c92926a4b)
REM AIRSS Version 0.9.1 bugfix July 2018 build 013d7b7c2542+ Fri, 06 Jul 2018 19:26:36 +0100
REM compiler GCC version 9.2.1 20190827 (Red Hat 9.2.1-1)
REM options -cpp -mtune=generic -march=x86-64 -g -O0 -fpre-include=/usr/include/finclude/math-vector-fortran.h
REM seed -76962409 -1091209971 627298036 574864769 -625776916 -1048143507 -296829775 1092622835 1945953988 -171436656 1406333093 1703046678 -1564609943 -1854675628 1078822416 1295598829 -754581125 2118298459 -2037895010 -1717462260 -2065685495 1054227372 -1638074898 1612309705 -491206746 1898640735 1794042552 1267809597 1330827186 -171104140 68699300 230550410 2146512999
REM
CELL 1.54180   50.00000   50.00000   50.00000   90.00000   90.00000   90.00000
LATT -1
SFAC C  
C      1  0.6228370000000  0.5157540000000  0.5192820000000 1.0
C      1  0.3732530000000  0.4533450000000  0.5542610000000 1.0
C      1  0.4838710000000  0.4324260000000  0.3972490000000 1.0
C      1  0.5378250000000  0.5349480000000  0.5014560000000 1.0
C      1  0.5690350000000  0.3896490000000  0.5314780000000 1.0
C      1  0.5948540000000  0.4735600000000  0.5273390000000 1.0
C      1  0.5454700000000  0.5850510000000  0.5634430000000 1.0
C      1  0.5245680000000  0.4097620000000  0.5038670000000 1.0
C      1  0.4712270000000  0.4617590000000  0.5147860000000 1.0
C      1  0.4788380000000  0.5015160000000  0.4528790000000 1.0
C      1  0.5905050000000  0.4665360000000  0.4679710000000 1.0
C      1  0.4329190000000  0.4919580000000  0.4638070000000 1.0
C      1  0.5120780000000  0.6044350000000  0.4380620000000 1.0
C      1  0.5251680000000  0.6263560000000  0.4836470000000 1.0
C      1  0.5382490000000  0.5549150000000  0.4817940000000 1.0
C      1  0.5791320000000  0.5106190000000  0.4019710000000 1.0
C      1  0.5076000000000  0.4294010000000  0.5166080000000 1.0
C      1  0.4072730000000  0.4768100000000  0.3744030000000 1.0
C      1  0.5483720000000  0.4317590000000  0.5768010000000 1.0
C      1  0.5831120000000  0.5182340000000  0.6040540000000 1.0
C      1  0.4261530000000  0.4334420000000  0.4687570000000 1.0
C      1  0.4541120000000  0.5174950000000  0.4128180000000 1.0
C      1  0.5820480000000  0.4108300000000  0.4858430000000 1.0
C      1  0.4674610000000  0.5365640000000  0.6026690000000 1.0
C      1  0.3873680000000  0.4626200000000  0.3653740000000 1.0
C      1  0.4723600000000  0.4552210000000  0.4107800000000 1.0
C      1  0.4688840000000  0.5173080000000  0.3877590000000 1.0
C      1  0.5137060000000  0.5418400000000  0.3904970000000 1.0
C      1  0.5970840000000  0.5556530000000  0.4839360000000 1.0
C      1  0.5271210000000  0.3921110000000  0.5923560000000 1.0
C      1  0.4535230000000  0.4085080000000  0.5419120000000 1.0
C      1  0.5815620000000  0.5785470000000  0.5282010000000 1.0
C      1  0.4978500000000  0.6055680000000  0.5196220000000 1.0
C      1  0.5106980000000  0.4277720000000  0.3943570000000 1.0
C      1  0.3953320000000  0.5207050000000  0.5025570000000 1.0
C      1  0.4914200000000  0.4556010000000  0.4587620000000 1.0
C      1  0.6067830000000  0.4929940000000  0.5073880000000 1.0
C      1  0.5713750000000  0.4608920000000  0.5168620000000 1.0
C      1  0.4700330000000  0.6105380000000  0.5270300000000 1.0
C      1  0.5061360000000  0.5675700000000  0.4041180000000 1.0
C      1  0.4914220000000  0.3810800000000  0.5289560000000 1.0
C      1  0.4282040000000  0.5799610000000  0.5220940000000 1.0
C      1  0.4972030000000  0.5173190000000  0.3895370000000 1.0
C      1  0.5342400000000  0.5016820000000  0.6100780000000 1.0
C      1  0.5978020000000  0.5273210000000  0.4731700000000 1.0
C      1  0.6136950000000  0.4736460000000  0.4840090000000 1.0
C      1  0.5714240000000  0.4695010000000  0.5994860000000 1.0
C      1  0.5587940000000  0.5132960000000  0.5372410000000 1.0
C      1  0.5359760000000  0.4137080000000  0.4766700000000 1.0
C      1  0.6127470000000  0.5395700000000  0.5325230000000 1.0
C      1  0.4283480000000  0.4912500000000  0.3848660000000 1.0
C      1  0.6015200000000  0.5088840000000  0.4471460000000 1.0
C      1  0.5121720000000  0.5575940000000  0.5314250000000 1.0
C      1  0.4388230000000  0.5751040000000  0.5741000000000 1.0
C      1  0.5084510000000  0.4313400000000  0.6201990000000 1.0
C      1  0.5823490000000  0.3976410000000  0.5094150000000 1.0
C      1  0.5211250000000  0.3869450000000  0.5236020000000 1.0
C      1  0.4654180000000  0.3732090000000  0.5153930000000 1.0
C      1  0.5631340000000  0.4244410000000  0.4683050000000 1.0
C      1  0.3774460000000  0.4337010000000  0.5364940000000 1.0
C      1  0.5689420000000  0.4871160000000  0.4761530000000 1.0
C      1  0.4486750000000  0.5396040000000  0.5431760000000 1.0
C      1  0.5373710000000  0.4867730000000  0.3943290000000 1.0
C      1  0.5066130000000  0.5085380000000  0.4517380000000 1.0
C      1  0.5004800000000  0.5776530000000  0.5157700000000 1.0
C      1  0.5156300000000  0.4048060000000  0.6132310000000 1.0
C      1  0.5924840000000  0.4674640000000  0.5801720000000 1.0
C      1  0.4175600000000  0.4031620000000  0.5081940000000 1.0
C      1  0.5750340000000  0.4476940000000  0.4511060000000 1.0
C      1  0.4430450000000  0.5389010000000  0.4559340000000 1.0
C      1  0.5875230000000  0.4924540000000  0.4240660000000 1.0
C      1  0.4616630000000  0.6163320000000  0.5533270000000 1.0
C      1  0.4330630000000  0.4977900000000  0.4128870000000 1.0
C      1  0.5094840000000  0.5068270000000  0.5320560000000 1.0
C      1  0.5536470000000  0.5780080000000  0.4176640000000 1.0
C      1  0.4752740000000  0.5445860000000  0.5556620000000 1.0
C      1  0.4865120000000  0.5441480000000  0.4361220000000 1.0
C      1  0.5102230000000  0.5356910000000  0.4474490000000 1.0
C      1  0.4278040000000  0.4441330000000  0.5189990000000 1.0
C      1  0.4484820000000  0.4361570000000  0.4508320000000 1.0
C      1  0.5525250000000  0.4465060000000  0.6016300000000 1.0
C      1  0.4629560000000  0.5835350000000  0.4852190000000 1.0
C      1  0.5263130000000  0.4885800000000  0.4489290000000 1.0
C      1  0.6011010000000  0.4697470000000  0.5547110000000 1.0
C      1  0.4811540000000  0.4369400000000  0.6239190000000 1.0
C      1  0.5547590000000  0.4717300000000  0.4969270000000 1.0
C      1  0.5606790000000  0.5565250000000  0.3969000000000 1.0
C      1  0.5431840000000  0.3903930000000  0.5440170000000 1.0
C      1  0.5792150000000  0.5749800000000  0.4693310000000 1.0
C      1  0.5252400000000  0.5859100000000  0.4184100000000 1.0
C      1  0.4423900000000  0.4359350000000  0.5442080000000 1.0
C      1  0.5345930000000  0.5440880000000  0.4562900000000 1.0
C      1  0.4347470000000  0.4810720000000  0.4358910000000 1.0
C      1  0.4657720000000  0.4959550000000  0.5707230000000 1.0
C      1  0.5181650000000  0.4043980000000  0.4566160000000 1.0
C      1  0.4625050000000  0.4582240000000  0.5423420000000 1.0
C      1  0.3990070000000  0.5485420000000  0.5442010000000 1.0
C      1  0.4783170000000  0.4781300000000  0.4701090000000 1.0
C      1  0.4690540000000  0.5152670000000  0.4944900000000 1.0
C      1  0.4083240000000  0.5700830000000  0.5023670000000 1.0
C      1  0.5271070000000  0.4523630000000  0.6144470000000 1.0
C      1  0.5213590000000  0.5758020000000  0.5723690000000 1.0
C      1  0.3746200000000  0.4782620000000  0.5638520000000 1.0
C      1  0.4488980000000  0.4562540000000  0.4296570000000 1.0
C      1  0.5275810000000  0.4739860000000  0.4998130000000 1.0
C      1  0.4362910000000  0.5183160000000  0.5274550000000 1.0
C      1  0.5530800000000  0.5096010000000  0.3890030000000 1.0
C      1  0.5605190000000  0.5205720000000  0.5101880000000 1.0
C      1  0.4763800000000  0.4311400000000  0.4564520000000 1.0
C      1  0.5457320000000  0.6131800000000  0.5252310000000 1.0
C      1  0.5233280000000  0.5285910000000  0.5713070000000 1.0
C      1  0.5202810000000  0.5249360000000  0.6000320000000 1.0
C      1  0.5545920000000  0.5776330000000  0.4834130000000 1.0
C      1  0.4642780000000  0.5253360000000  0.4390740000000 1.0
C      1  0.4957920000000  0.4726950000000  0.4145580000000 1.0
C      1  0.5099560000000  0.4779140000000  0.5775820000000 1.0
C      1  0.4279070000000  0.5623760000000  0.5481450000000 1.0
C      1  0.3996100000000  0.4455900000000  0.4664320000000 1.0
C      1  0.4582710000000  0.5115620000000  0.5926530000000 1.0
C      1  0.4505970000000  0.5031020000000  0.3702600000000 1.0
C      1  0.4954170000000  0.5358780000000  0.6102890000000 1.0
C      1  0.3878540000000  0.5292800000000  0.5613740000000 1.0
C      1  0.5563680000000  0.5273510000000  0.4480370000000 1.0
C      1  0.3922310000000  0.5398100000000  0.4312000000000 1.0
C      1  0.4814470000000  0.5656870000000  0.4192540000000 1.0
C      1  0.5448670000000  0.4506980000000  0.5559510000000 1.0
C      1  0.5583240000000  0.4433590000000  0.5331750000000 1.0
C      1  0.4424170000000  0.5189030000000  0.4786030000000 1.0
C      1  0.3914750000000  0.5478410000000  0.5147800000000 1.0
C      1  0.5521020000000  0.4991510000000  0.4548230000000 1.0
C      1  0.5060810000000  0.5523090000000  0.5599480000000 1.0
C      1  0.4284840000000  0.4259910000000  0.4963860000000 1.0
C      1  0.4292910000000  0.4375690000000  0.5709220000000 1.0
C      1  0.5734180000000  0.5719300000000  0.4408060000000 1.0
C      1  0.5991450000000  0.5594850000000  0.5146980000000 1.0
C      1  0.4238050000000  0.5212440000000  0.5015830000000 1.0
C      1  0.4919590000000  0.4937890000000  0.5630050000000 1.0
C      1  0.4367930000000  0.4384550000000  0.5966340000000 1.0
C      1  0.5593630000000  0.5928200000000  0.5397270000000 1.0
C      1  0.4854890000000  0.4400480000000  0.5037980000000 1.0
C      1  0.4475990000000  0.6020400000000  0.5713420000000 1.0
C      1  0.5416400000000  0.5369550000000  0.3866020000000 1.0
C      1  0.4410740000000  0.3902370000000  0.5219980000000 1.0
C      1  0.4461090000000  0.5701280000000  0.4624790000000 1.0
C      1  0.4662370000000  0.5837520000000  0.4339850000000 1.0
C      1  0.5772400000000  0.5431820000000  0.4359330000000 1.0
C      1  0.4323570000000  0.4912890000000  0.5347470000000 1.0
C      1  0.5353050000000  0.4382930000000  0.3989770000000 1.0
C      1  0.5264380000000  0.6193090000000  0.4576480000000 1.0
C      1  0.5718460000000  0.4647480000000  0.4251600000000 1.0
C      1  0.4161910000000  0.5387890000000  0.4413940000000 1.0
C      1  0.4789080000000  0.4862280000000  0.4990950000000 1.0
C      1  0.5411470000000  0.4038020000000  0.5706180000000 1.0
C      1  0.5218300000000  0.6192920000000  0.5109470000000 1.0
C      1  0.6005210000000  0.5330470000000  0.5884010000000 1.0
C      1  0.4507830000000  0.5944210000000  0.5115440000000 1.0
C      1  0.5102900000000  0.4661870000000  0.4394630000000 1.0
C      1  0.6018000000000  0.5334730000000  0.5594870000000 1.0
C      1  0.4832580000000  0.6038300000000  0.4443790000000 1.0
C      1  0.5496790000000  0.4622410000000  0.4052080000000 1.0
C      1  0.5089910000000  0.4914510000000  0.3971880000000 1.0
C      1  0.5827070000000  0.5089700000000  0.4930120000000 1.0
C      1  0.4251480000000  0.4772470000000  0.4864220000000 1.0
C      1  0.5181150000000  0.4778290000000  0.6050750000000 1.0
C      1  0.3872020000000  0.4290980000000  0.5110310000000 1.0
C      1  0.4814370000000  0.4031880000000  0.5466590000000 1.0
C      1  0.3797120000000  0.5043480000000  0.5666030000000 1.0
C      1  0.3826380000000  0.4880250000000  0.4977180000000 1.0
C      1  0.5005760000000  0.4241930000000  0.5441140000000 1.0
C      1  0.5804670000000  0.5159370000000  0.5532040000000 1.0
C      1  0.4750430000000  0.6077480000000  0.4712970000000 1.0
C      1  0.4836640000000  0.5650400000000  0.4959190000000 1.0
C      1  0.5119150000000  0.5321440000000  0.5161220000000 1.0
C      1  0.5064760000000  0.4881790000000  0.5102350000000 1.0
C      1  0.5818670000000  0.5386310000000  0.4082990000000 1.0
C      1  0.4169570000000  0.5749650000000  0.4751100000000 1.0
C      1  0.3856320000000  0.4530360000000  0.4911800000000 1.0
C      1  0.4500070000000  0.4812330000000  0.5537870000000 1.0
C      1  0.4917860000000  0.4080990000000  0.4528150000000 1.0
C      1  0.4870500000000  0.5367070000000  0.4985900000000 1.0
C      1  0.5633920000000  0.4971500000000  0.6073300000000 1.0
C      1  0.5339560000000  0.5063320000000  0.5502680000000 1.0
C      1  0.4250430000000  0.4719700000000  0.5140800000000 1.0
C      1  0.4560410000000  0.4387150000000  0.6151130000000 1.0
C      1  0.4510820000000  0.5589850000000  0.5949040000000 1.0
C      1  0.5333350000000  0.4765860000000  0.5600430000000 1.0
END
