TITL C-599897-7526-228 467.437220696299 125000 -417.921486671809 0 0 69 (C1) n - 1
REM
REM in /home/nfs/bkarasulu/CARBON/AIRSS/Generating-Clusters/TERSOFF/Only-C1/FIRE-HFTN
REM
REM
REM
REM
REM
REM ./C.cell (11c1c37f851c82e70ff6c80c92926a4b)
REM AIRSS Version 0.9.1 bugfix July 2018 build 013d7b7c2542+ Fri, 06 Jul 2018 19:26:36 +0100
REM compiler GCC version 9.2.1 20190827 (Red Hat 9.2.1-1)
REM options -cpp -mtune=generic -march=x86-64 -g -O0 -fpre-include=/usr/include/finclude/math-vector-fortran.h
REM seed 1198272658 -1049408941 241475298 -1695625977 -1701247166 577373123 763809681 58154079 -790125892 351329316 1320920978 668768493 1619710466 -1824692046 -817256344 1987775111 70317841 -1062425280 -1880828327 -2097965193 1511834999 -915966345 -1814149991 -1489438969 -596270992 32560846 -543339585 -1303653335 569927766 1703111934 103767684 266209360 1241866137
REM
CELL 1.54180   50.00000   50.00000   50.00000   90.00000   90.00000   90.00000
LATT -1
SFAC C  
C      1  0.5081080000000  0.5667720000000  0.5511020000000 1.0
C      1  0.4983450000000  0.4863550000000  0.4349480000000 1.0
C      1  0.5429110000000  0.5569460000000  0.5166030000000 1.0
C      1  0.5145140000000  0.4992170000000  0.5913190000000 1.0
C      1  0.4078720000000  0.4733070000000  0.4391500000000 1.0
C      1  0.4846090000000  0.5544120000000  0.5564670000000 1.0
C      1  0.4293000000000  0.4560550000000  0.4360860000000 1.0
C      1  0.5768050000000  0.5262540000000  0.4425220000000 1.0
C      1  0.4455830000000  0.4970060000000  0.4502510000000 1.0
C      1  0.5598410000000  0.4814430000000  0.5236030000000 1.0
C      1  0.5371970000000  0.4277090000000  0.4731550000000 1.0
C      1  0.4919540000000  0.5047950000000  0.6048900000000 1.0
C      1  0.4462760000000  0.4924960000000  0.5261590000000 1.0
C      1  0.4528400000000  0.4959920000000  0.5749410000000 1.0
C      1  0.4886360000000  0.5137700000000  0.4388720000000 1.0
C      1  0.4937120000000  0.5263990000000  0.5045320000000 1.0
C      1  0.3877850000000  0.5435910000000  0.4593820000000 1.0
C      1  0.4808260000000  0.5738660000000  0.4834990000000 1.0
C      1  0.4919960000000  0.5148670000000  0.5327750000000 1.0
C      1  0.4922400000000  0.4433160000000  0.4612700000000 1.0
C      1  0.5222510000000  0.5208750000000  0.4984140000000 1.0
C      1  0.5576770000000  0.5290010000000  0.4234380000000 1.0
C      1  0.5498110000000  0.5909010000000  0.5502350000000 1.0
C      1  0.4641600000000  0.4899920000000  0.5026450000000 1.0
C      1  0.5889860000000  0.4743200000000  0.5619920000000 1.0
C      1  0.4903730000000  0.5748570000000  0.4582680000000 1.0
C      1  0.5655750000000  0.5091270000000  0.5155430000000 1.0
C      1  0.5382740000000  0.4968480000000  0.4601340000000 1.0
C      1  0.5526670000000  0.4433150000000  0.5534720000000 1.0
C      1  0.5101600000000  0.5575860000000  0.4484560000000 1.0
C      1  0.5396310000000  0.4678290000000  0.5048970000000 1.0
C      1  0.4817760000000  0.4639970000000  0.4436920000000 1.0
C      1  0.4167690000000  0.4994130000000  0.4480180000000 1.0
C      1  0.5064590000000  0.5355930000000  0.4301510000000 1.0
C      1  0.4396500000000  0.4666190000000  0.5395060000000 1.0
C      1  0.5479170000000  0.4782250000000  0.4782730000000 1.0
C      1  0.4013020000000  0.5216090000000  0.4533840000000 1.0
C      1  0.5111330000000  0.4761060000000  0.5148750000000 1.0
C      1  0.4539670000000  0.4692610000000  0.4426100000000 1.0
C      1  0.4568840000000  0.4697630000000  0.5643090000000 1.0
C      1  0.5378590000000  0.4376950000000  0.4997100000000 1.0
C      1  0.5676560000000  0.4665330000000  0.5467780000000 1.0
C      1  0.3747050000000  0.5653250000000  0.4653990000000 1.0
C      1  0.4509850000000  0.5120480000000  0.5501620000000 1.0
C      1  0.4863150000000  0.4710080000000  0.5001320000000 1.0
C      1  0.5413210000000  0.5663670000000  0.4890700000000 1.0
C      1  0.4725850000000  0.5129120000000  0.4868120000000 1.0
C      1  0.5314550000000  0.5221080000000  0.4715350000000 1.0
C      1  0.4733750000000  0.5299290000000  0.5483830000000 1.0
C      1  0.4658150000000  0.5040900000000  0.5983760000000 1.0
C      1  0.5315540000000  0.5510940000000  0.4665280000000 1.0
C      1  0.5164630000000  0.4296230000000  0.4557310000000 1.0
C      1  0.4481650000000  0.4407870000000  0.5301440000000 1.0
C      1  0.5037650000000  0.4873000000000  0.5419450000000 1.0
C      1  0.5313500000000  0.5304350000000  0.4162730000000 1.0
C      1  0.4825900000000  0.4607400000000  0.5533990000000 1.0
C      1  0.5201210000000  0.4916380000000  0.5660810000000 1.0
C      1  0.4862890000000  0.4443910000000  0.4894780000000 1.0
C      1  0.5262120000000  0.4853860000000  0.4374760000000 1.0
C      1  0.4855000000000  0.5553340000000  0.5024090000000 1.0
C      1  0.5836700000000  0.5145210000000  0.4937780000000 1.0
C      1  0.5338070000000  0.4258720000000  0.5449470000000 1.0
C      1  0.4767260000000  0.4371300000000  0.5357050000000 1.0
C      1  0.5859650000000  0.5212020000000  0.4675520000000 1.0
C      1  0.5213550000000  0.4250100000000  0.5195250000000 1.0
C      1  0.5435610000000  0.5278300000000  0.5169350000000 1.0
C      1  0.5336120000000  0.5716350000000  0.5393470000000 1.0
C      1  0.4932020000000  0.4286190000000  0.5139660000000 1.0
C      1  0.4672470000000  0.5136340000000  0.4585810000000 1.0
END
