TITL C-599890-3321-484 18.7401029853834 125000 -243.92657306726 0 0 42 (C1) n - 1
REM
REM in /home/nfs/bkarasulu/CARBON/AIRSS/Generating-Clusters/TERSOFF/Only-C1/FIRE-HFTN
REM
REM
REM
REM
REM
REM ./C.cell (11c1c37f851c82e70ff6c80c92926a4b)
REM AIRSS Version 0.9.1 bugfix July 2018 build 013d7b7c2542+ Fri, 06 Jul 2018 19:26:36 +0100
REM compiler GCC version 9.2.1 20190827 (Red Hat 9.2.1-1)
REM options -cpp -mtune=generic -march=x86-64 -g -O0 -fpre-include=/usr/include/finclude/math-vector-fortran.h
REM seed -215420122 -1742956319 1872041576 -944107040 -1723363411 293969279 -1703024124 -1532632866 -1055266207 1824958912 -1740149509 -179312890 33910483 16768426 178527986 1241475136 1911039316 886522330 2085258899 774907694 1776769614 -1845742060 182341316 516687545 497529198 470086664 2036878252 -1901471229 -209489075 -1373270873 1992965315 -286915726 944782844
REM
CELL 1.54180   50.00000   50.00000   50.00000   90.00000   90.00000   90.00000
LATT -1
SFAC C  
C      1  0.5401450000000  0.5481210000000  0.4750410000000 1.0
C      1  0.4996640000000  0.5777840000000  0.4599080000000 1.0
C      1  0.3794240000000  0.5224710000000  0.5849690000000 1.0
C      1  0.4603250000000  0.4814440000000  0.4443810000000 1.0
C      1  0.4741700000000  0.4690550000000  0.4870000000000 1.0
C      1  0.3980270000000  0.5306590000000  0.5686440000000 1.0
C      1  0.5526240000000  0.5076390000000  0.5482630000000 1.0
C      1  0.5600850000000  0.4985030000000  0.4820310000000 1.0
C      1  0.5665900000000  0.4914520000000  0.5302740000000 1.0
C      1  0.4733110000000  0.5802200000000  0.4507440000000 1.0
C      1  0.5649930000000  0.4373060000000  0.4433680000000 1.0
C      1  0.4611810000000  0.5123680000000  0.5103530000000 1.0
C      1  0.5734920000000  0.4623930000000  0.4461510000000 1.0
C      1  0.5135090000000  0.4456960000000  0.5036020000000 1.0
C      1  0.5068780000000  0.5304210000000  0.5572100000000 1.0
C      1  0.5716210000000  0.4846240000000  0.4606430000000 1.0
C      1  0.4630630000000  0.6044450000000  0.4434060000000 1.0
C      1  0.4822130000000  0.5338120000000  0.5481050000000 1.0
C      1  0.5317450000000  0.5211970000000  0.5574000000000 1.0
C      1  0.5005730000000  0.3793320000000  0.5296740000000 1.0
C      1  0.4169540000000  0.5389400000000  0.5520590000000 1.0
C      1  0.4602210000000  0.5310190000000  0.5311200000000 1.0
C      1  0.4739830000000  0.4499920000000  0.5312310000000 1.0
C      1  0.5923620000000  0.4824570000000  0.5359680000000 1.0
C      1  0.5538620000000  0.4842410000000  0.5058900000000 1.0
C      1  0.5181800000000  0.4183960000000  0.4968750000000 1.0
C      1  0.4643200000000  0.4966930000000  0.4877300000000 1.0
C      1  0.4371890000000  0.5472030000000  0.5346850000000 1.0
C      1  0.6165300000000  0.4738290000000  0.5405090000000 1.0
C      1  0.5220560000000  0.5663070000000  0.4682910000000 1.0
C      1  0.5348330000000  0.4637160000000  0.5056200000000 1.0
C      1  0.4348690000000  0.5712900000000  0.5207410000000 1.0
C      1  0.5491710000000  0.4186810000000  0.4539360000000 1.0
C      1  0.4570140000000  0.5051070000000  0.4605800000000 1.0
C      1  0.4327720000000  0.5939170000000  0.5079840000000 1.0
C      1  0.5530440000000  0.5253940000000  0.4794930000000 1.0
C      1  0.4578620000000  0.5569070000000  0.4493690000000 1.0
C      1  0.4703020000000  0.4606290000000  0.4595950000000 1.0
C      1  0.5093310000000  0.3979630000000  0.5136940000000 1.0
C      1  0.5321940000000  0.4123920000000  0.4734040000000 1.0
C      1  0.4524750000000  0.5311280000000  0.4524880000000 1.0
C      1  0.4868440000000  0.4548580000000  0.5075680000000 1.0
END
