TITL C-599890-3321-595 97.5959684032579 125000 -952.595959681042 0 0 157 (C1) n - 1
REM
REM in /home/nfs/bkarasulu/CARBON/AIRSS/Generating-Clusters/TERSOFF/Only-C1/FIRE-HFTN
REM
REM
REM
REM
REM
REM ./C.cell (11c1c37f851c82e70ff6c80c92926a4b)
REM AIRSS Version 0.9.1 bugfix July 2018 build 013d7b7c2542+ Fri, 06 Jul 2018 19:26:36 +0100
REM compiler GCC version 9.2.1 20190827 (Red Hat 9.2.1-1)
REM options -cpp -mtune=generic -march=x86-64 -g -O0 -fpre-include=/usr/include/finclude/math-vector-fortran.h
REM seed -1388023577 249363831 1435342249 -755026717 -59296256 753994758 1887523447 1439640370 249930558 261040450 87401364 272872521 -654566309 -1952986604 -545838174 1083477746 187235218 596938902 -786242046 1930491008 1606305749 59015997 248975915 -1761764740 -448060814 -613718707 89120312 537453516 -1274670403 1747197491 1693486167 471473878 2088619441
REM
CELL 1.54180   50.00000   50.00000   50.00000   90.00000   90.00000   90.00000
LATT -1
SFAC C  
C      1  0.5392680000000  0.3948900000000  0.5062530000000 1.0
C      1  0.5972060000000  0.5054560000000  0.5116350000000 1.0
C      1  0.5615410000000  0.4149870000000  0.5111220000000 1.0
C      1  0.5653930000000  0.4411430000000  0.4213710000000 1.0
C      1  0.5499580000000  0.4338140000000  0.5312760000000 1.0
C      1  0.5988770000000  0.4831970000000  0.5553300000000 1.0
C      1  0.5453670000000  0.4427540000000  0.6061190000000 1.0
C      1  0.4678520000000  0.3957400000000  0.4409050000000 1.0
C      1  0.5581920000000  0.4662280000000  0.4908470000000 1.0
C      1  0.5539070000000  0.6240020000000  0.5060020000000 1.0
C      1  0.4106020000000  0.4911250000000  0.5682790000000 1.0
C      1  0.5338760000000  0.5090050000000  0.4508720000000 1.0
C      1  0.5486940000000  0.4776720000000  0.5147520000000 1.0
C      1  0.5294270000000  0.6205430000000  0.5652450000000 1.0
C      1  0.4072630000000  0.5055740000000  0.4410620000000 1.0
C      1  0.5800740000000  0.4946660000000  0.4470620000000 1.0
C      1  0.4736330000000  0.4240100000000  0.5935240000000 1.0
C      1  0.4335340000000  0.5003420000000  0.4332690000000 1.0
C      1  0.4936850000000  0.5014570000000  0.4145440000000 1.0
C      1  0.4554480000000  0.4979360000000  0.4531980000000 1.0
C      1  0.4511180000000  0.5720390000000  0.5465760000000 1.0
C      1  0.5072260000000  0.4659030000000  0.5814110000000 1.0
C      1  0.4793200000000  0.5510040000000  0.5891260000000 1.0
C      1  0.5206840000000  0.4080710000000  0.4874980000000 1.0
C      1  0.4780490000000  0.4787000000000  0.5201190000000 1.0
C      1  0.4031060000000  0.4895510000000  0.4969850000000 1.0
C      1  0.5834440000000  0.5229460000000  0.4422860000000 1.0
C      1  0.5817050000000  0.4275630000000  0.4915060000000 1.0
C      1  0.4813210000000  0.6171630000000  0.4685190000000 1.0
C      1  0.4650010000000  0.5270590000000  0.6034430000000 1.0
C      1  0.5365420000000  0.5805190000000  0.4271400000000 1.0
C      1  0.4481570000000  0.5649880000000  0.4842590000000 1.0
C      1  0.5094440000000  0.5461430000000  0.5991060000000 1.0
C      1  0.4637650000000  0.4531300000000  0.5162200000000 1.0
C      1  0.5073280000000  0.6023960000000  0.4672000000000 1.0
C      1  0.4012920000000  0.5413220000000  0.5069610000000 1.0
C      1  0.4252590000000  0.5676370000000  0.5035160000000 1.0
C      1  0.4744970000000  0.5323840000000  0.5502140000000 1.0
C      1  0.5341300000000  0.5363380000000  0.5873990000000 1.0
C      1  0.5095650000000  0.5066310000000  0.5521090000000 1.0
C      1  0.5625320000000  0.6475880000000  0.5129570000000 1.0
C      1  0.3974680000000  0.4662160000000  0.5142640000000 1.0
C      1  0.5357530000000  0.4032980000000  0.4410290000000 1.0
C      1  0.5546840000000  0.5679840000000  0.5472740000000 1.0
C      1  0.5816180000000  0.4627150000000  0.5532090000000 1.0
C      1  0.4927430000000  0.3768220000000  0.5337120000000 1.0
C      1  0.4954380000000  0.4408500000000  0.3888350000000 1.0
C      1  0.4863030000000  0.4823950000000  0.4923840000000 1.0
C      1  0.4187730000000  0.4185120000000  0.5148920000000 1.0
C      1  0.4158080000000  0.5496910000000  0.4532870000000 1.0
C      1  0.5059110000000  0.5031340000000  0.4907260000000 1.0
C      1  0.4481960000000  0.4170000000000  0.4417700000000 1.0
C      1  0.4562930000000  0.4453580000000  0.5415900000000 1.0
C      1  0.4696330000000  0.5737330000000  0.5708490000000 1.0
C      1  0.4903570000000  0.5410790000000  0.4543420000000 1.0
C      1  0.5218890000000  0.5040110000000  0.4051510000000 1.0
C      1  0.5362730000000  0.5535770000000  0.4645280000000 1.0
C      1  0.4639990000000  0.5086980000000  0.5604470000000 1.0
C      1  0.4373340000000  0.5864820000000  0.5245730000000 1.0
C      1  0.5613850000000  0.5369960000000  0.5085630000000 1.0
C      1  0.4790320000000  0.5257560000000  0.6289030000000 1.0
C      1  0.5668540000000  0.5294990000000  0.4185080000000 1.0
C      1  0.5922950000000  0.5068300000000  0.5413080000000 1.0
C      1  0.5179070000000  0.5921790000000  0.4918030000000 1.0
C      1  0.4914710000000  0.3900860000000  0.4520550000000 1.0
C      1  0.4576310000000  0.4139490000000  0.4907050000000 1.0
C      1  0.5016750000000  0.5330960000000  0.5428930000000 1.0
C      1  0.4896510000000  0.5237130000000  0.4769220000000 1.0
C      1  0.5525830000000  0.4897520000000  0.4525500000000 1.0
C      1  0.5049330000000  0.4959390000000  0.5780650000000 1.0
C      1  0.4457160000000  0.4912190000000  0.4088090000000 1.0
C      1  0.5597720000000  0.4601150000000  0.5359290000000 1.0
C      1  0.4550190000000  0.5573860000000  0.3934120000000 1.0
C      1  0.4395530000000  0.5273600000000  0.5221360000000 1.0
C      1  0.4119480000000  0.5279220000000  0.5301800000000 1.0
C      1  0.5272680000000  0.5751360000000  0.5469110000000 1.0
C      1  0.4654880000000  0.5477020000000  0.4404290000000 1.0
C      1  0.6022840000000  0.4786900000000  0.5013370000000 1.0
C      1  0.4601990000000  0.4908050000000  0.5399500000000 1.0
C      1  0.5506160000000  0.4895030000000  0.5882210000000 1.0
C      1  0.4368020000000  0.4148970000000  0.4693430000000 1.0
C      1  0.4551980000000  0.5455500000000  0.5364170000000 1.0
C      1  0.5882330000000  0.5398170000000  0.4670030000000 1.0
C      1  0.4430680000000  0.5569310000000  0.4572110000000 1.0
C      1  0.4752960000000  0.4297460000000  0.4025140000000 1.0
C      1  0.5540660000000  0.4206560000000  0.6168440000000 1.0
C      1  0.5201930000000  0.4561510000000  0.4574060000000 1.0
C      1  0.4044340000000  0.5119780000000  0.5521090000000 1.0
C      1  0.5163040000000  0.3996250000000  0.4609400000000 1.0
C      1  0.5556200000000  0.5709840000000  0.4474610000000 1.0
C      1  0.4299990000000  0.4506150000000  0.5502050000000 1.0
C      1  0.4710660000000  0.3953720000000  0.5416940000000 1.0
C      1  0.4434010000000  0.4622390000000  0.4095050000000 1.0
C      1  0.4285490000000  0.4689240000000  0.5726990000000 1.0
C      1  0.5042810000000  0.5368440000000  0.6266950000000 1.0
C      1  0.5614640000000  0.5425900000000  0.5364640000000 1.0
C      1  0.4889870000000  0.5946790000000  0.5690960000000 1.0
C      1  0.4594630000000  0.5033820000000  0.5879080000000 1.0
C      1  0.4468010000000  0.4736480000000  0.4700000000000 1.0
C      1  0.5945100000000  0.5992080000000  0.5657540000000 1.0
C      1  0.4679710000000  0.5113710000000  0.4048430000000 1.0
C      1  0.5534850000000  0.5162880000000  0.5774140000000 1.0
C      1  0.4455840000000  0.5119300000000  0.4990610000000 1.0
C      1  0.5385820000000  0.5297290000000  0.4092430000000 1.0
C      1  0.5849730000000  0.4568940000000  0.4948370000000 1.0
C      1  0.5703510000000  0.5218540000000  0.5535610000000 1.0
C      1  0.4766630000000  0.4546270000000  0.5941910000000 1.0
C      1  0.5874730000000  0.4246950000000  0.4630450000000 1.0
C      1  0.5553070000000  0.4635800000000  0.4067600000000 1.0
C      1  0.5101370000000  0.5585180000000  0.5306520000000 1.0
C      1  0.4774620000000  0.6252530000000  0.4409660000000 1.0
C      1  0.5861850000000  0.4441450000000  0.4412420000000 1.0
C      1  0.5213430000000  0.4363840000000  0.5303100000000 1.0
C      1  0.4764940000000  0.4128880000000  0.5661710000000 1.0
C      1  0.5105600000000  0.4289390000000  0.5045390000000 1.0
C      1  0.4643590000000  0.6186810000000  0.4912030000000 1.0
C      1  0.5155340000000  0.5467530000000  0.4461940000000 1.0
C      1  0.4532240000000  0.4742950000000  0.5899140000000 1.0
C      1  0.5500340000000  0.4177550000000  0.4238190000000 1.0
C      1  0.4744760000000  0.4609500000000  0.4738700000000 1.0
C      1  0.3958090000000  0.5188780000000  0.4875630000000 1.0
C      1  0.4620760000000  0.5163100000000  0.4764060000000 1.0
C      1  0.5745490000000  0.5845970000000  0.5575560000000 1.0
C      1  0.5246180000000  0.4921330000000  0.5114350000000 1.0
C      1  0.5354710000000  0.4650870000000  0.5928320000000 1.0
C      1  0.4806760000000  0.4378760000000  0.5529710000000 1.0
C      1  0.5056300000000  0.4826150000000  0.5340310000000 1.0
C      1  0.4123210000000  0.4161010000000  0.4853480000000 1.0
C      1  0.5134340000000  0.4602290000000  0.3849740000000 1.0
C      1  0.5173430000000  0.5999560000000  0.4381840000000 1.0
C      1  0.5458500000000  0.5990120000000  0.4969700000000 1.0
C      1  0.3870490000000  0.4147680000000  0.4753210000000 1.0
C      1  0.5246690000000  0.5537810000000  0.4196250000000 1.0
C      1  0.4315420000000  0.4873140000000  0.4911860000000 1.0
C      1  0.5787290000000  0.5695910000000  0.4654850000000 1.0
C      1  0.4013170000000  0.5258770000000  0.4596880000000 1.0
C      1  0.5642710000000  0.5779820000000  0.4902060000000 1.0
C      1  0.4524870000000  0.4362520000000  0.4190220000000 1.0
C      1  0.5157420000000  0.5973660000000  0.5606490000000 1.0
C      1  0.4625070000000  0.5391810000000  0.4125510000000 1.0
C      1  0.4936200000000  0.4636390000000  0.4514950000000 1.0
C      1  0.4695170000000  0.4391610000000  0.4926280000000 1.0
C      1  0.4857450000000  0.3499920000000  0.5337700000000 1.0
C      1  0.5062370000000  0.4544410000000  0.5506180000000 1.0
C      1  0.4495150000000  0.6096850000000  0.5121840000000 1.0
C      1  0.5956060000000  0.4711620000000  0.4438290000000 1.0
C      1  0.4860760000000  0.4864670000000  0.4375180000000 1.0
C      1  0.5204380000000  0.3824330000000  0.5256730000000 1.0
C      1  0.5325030000000  0.4776420000000  0.3970000000000 1.0
C      1  0.5010070000000  0.5721900000000  0.5060750000000 1.0
C      1  0.4748990000000  0.5676740000000  0.4949070000000 1.0
C      1  0.5463120000000  0.5536120000000  0.4916660000000 1.0
C      1  0.4974550000000  0.6159430000000  0.4241280000000 1.0
C      1  0.4112820000000  0.4441000000000  0.5285690000000 1.0
C      1  0.4472330000000  0.4052650000000  0.5174730000000 1.0
C      1  0.5850640000000  0.5263700000000  0.4949830000000 1.0
C      1  0.5444330000000  0.4671610000000  0.4667020000000 1.0
END
