TITL C-599891-72-1277 41.6548169329136 125000 -1008.87401900471 0 0 164 (C1) n - 1
REM
REM in /home/nfs/bkarasulu/CARBON/AIRSS/Generating-Clusters/TERSOFF/Only-C1/FIRE-HFTN
REM
REM
REM
REM
REM
REM ./C.cell (11c1c37f851c82e70ff6c80c92926a4b)
REM AIRSS Version 0.9.1 bugfix July 2018 build 013d7b7c2542+ Fri, 06 Jul 2018 19:26:36 +0100
REM compiler GCC version 9.2.1 20190827 (Red Hat 9.2.1-1)
REM options -cpp -mtune=generic -march=x86-64 -g -O0 -fpre-include=/usr/include/finclude/math-vector-fortran.h
REM seed -705975330 952937727 984797945 -7884722 798401555 -431856867 1799245523 999825452 96506182 -44490913 -2071777345 -1776003352 757139505 -513371909 -1640241833 -1516587690 -183211296 -1299442927 1083144812 388075707 -1542807503 22303878 936231502 -171994934 -2085407168 -1983167550 -153496604 172418129 -1740962468 511086079 1741841979 -1420318919 -2098603840
REM
CELL 1.54180   50.00000   50.00000   50.00000   90.00000   90.00000   90.00000
LATT -1
SFAC C  
C      1  0.4976850000000  0.4606380000000  0.5905820000000 1.0
C      1  0.4608780000000  0.5632450000000  0.5325110000000 1.0
C      1  0.6183060000000  0.4800290000000  0.4935280000000 1.0
C      1  0.3794580000000  0.5892100000000  0.4556030000000 1.0
C      1  0.6081360000000  0.4321800000000  0.4799120000000 1.0
C      1  0.4774630000000  0.5317950000000  0.4425170000000 1.0
C      1  0.3820490000000  0.5253820000000  0.5363370000000 1.0
C      1  0.4800890000000  0.4918770000000  0.5488230000000 1.0
C      1  0.5038360000000  0.5149450000000  0.3834380000000 1.0
C      1  0.4343070000000  0.5300260000000  0.5173930000000 1.0
C      1  0.4191800000000  0.5100340000000  0.5682280000000 1.0
C      1  0.3879650000000  0.5422270000000  0.4436350000000 1.0
C      1  0.4761880000000  0.4240980000000  0.4749970000000 1.0
C      1  0.5569350000000  0.4949810000000  0.5408550000000 1.0
C      1  0.5203230000000  0.4214190000000  0.4937160000000 1.0
C      1  0.5496540000000  0.5352520000000  0.6173380000000 1.0
C      1  0.5358280000000  0.5352050000000  0.4754310000000 1.0
C      1  0.4762000000000  0.4968340000000  0.4755820000000 1.0
C      1  0.5010070000000  0.4612040000000  0.4524240000000 1.0
C      1  0.4076900000000  0.6452680000000  0.4954400000000 1.0
C      1  0.4725530000000  0.6156340000000  0.4942850000000 1.0
C      1  0.5020930000000  0.4363770000000  0.5758160000000 1.0
C      1  0.5065130000000  0.4095490000000  0.5830860000000 1.0
C      1  0.4910660000000  0.5598590000000  0.6095320000000 1.0
C      1  0.5580140000000  0.4941150000000  0.4801530000000 1.0
C      1  0.4170860000000  0.4633710000000  0.3970730000000 1.0
C      1  0.3880340000000  0.5001650000000  0.4163640000000 1.0
C      1  0.5182090000000  0.4227390000000  0.4212060000000 1.0
C      1  0.4641990000000  0.4621390000000  0.3841080000000 1.0
C      1  0.4935350000000  0.5750780000000  0.4580120000000 1.0
C      1  0.4191150000000  0.4848370000000  0.5830400000000 1.0
C      1  0.6032150000000  0.4746690000000  0.5682560000000 1.0
C      1  0.5191040000000  0.4419790000000  0.4005760000000 1.0
C      1  0.5390450000000  0.5101760000000  0.6099110000000 1.0
C      1  0.4954500000000  0.4909820000000  0.4957210000000 1.0
C      1  0.5086640000000  0.4868360000000  0.3859690000000 1.0
C      1  0.6081940000000  0.4535510000000  0.4984990000000 1.0
C      1  0.5464310000000  0.4693410000000  0.4464940000000 1.0
C      1  0.4614560000000  0.5061570000000  0.3585590000000 1.0
C      1  0.5751570000000  0.4953730000000  0.4998820000000 1.0
C      1  0.5309700000000  0.4769160000000  0.4009820000000 1.0
C      1  0.5073030000000  0.4417090000000  0.5483070000000 1.0
C      1  0.5060250000000  0.5630230000000  0.5860670000000 1.0
C      1  0.6076420000000  0.4909240000000  0.4678930000000 1.0
C      1  0.4017550000000  0.4750960000000  0.4171140000000 1.0
C      1  0.5568940000000  0.5586970000000  0.6057220000000 1.0
C      1  0.3674780000000  0.5436220000000  0.5247520000000 1.0
C      1  0.4422870000000  0.5427530000000  0.5416730000000 1.0
C      1  0.4247000000000  0.4548660000000  0.5047440000000 1.0
C      1  0.4460400000000  0.4608240000000  0.5239050000000 1.0
C      1  0.4550320000000  0.3942460000000  0.5031670000000 1.0
C      1  0.4978260000000  0.5521680000000  0.4408190000000 1.0
C      1  0.4503360000000  0.4173850000000  0.5438560000000 1.0
C      1  0.5300640000000  0.4562100000000  0.5429830000000 1.0
C      1  0.5731900000000  0.4292520000000  0.5184770000000 1.0
C      1  0.5003240000000  0.4631290000000  0.5052840000000 1.0
C      1  0.5583100000000  0.4151580000000  0.5605780000000 1.0
C      1  0.4512140000000  0.5421700000000  0.4465840000000 1.0
C      1  0.5216690000000  0.5240150000000  0.5583380000000 1.0
C      1  0.5372270000000  0.6160590000000  0.5448170000000 1.0
C      1  0.4865560000000  0.4376840000000  0.4532340000000 1.0
C      1  0.5943610000000  0.5301080000000  0.5609620000000 1.0
C      1  0.5299970000000  0.4831140000000  0.5359290000000 1.0
C      1  0.4016080000000  0.4938500000000  0.4590230000000 1.0
C      1  0.5865530000000  0.4538550000000  0.5182100000000 1.0
C      1  0.5082940000000  0.5851310000000  0.4813060000000 1.0
C      1  0.5576570000000  0.4903780000000  0.5703320000000 1.0
C      1  0.5440320000000  0.4133210000000  0.4421900000000 1.0
C      1  0.5828910000000  0.5389620000000  0.4622650000000 1.0
C      1  0.5327800000000  0.3862480000000  0.5204450000000 1.0
C      1  0.5305130000000  0.4844110000000  0.4276810000000 1.0
C      1  0.5754960000000  0.4801100000000  0.5232140000000 1.0
C      1  0.4404240000000  0.5291920000000  0.5661790000000 1.0
C      1  0.3776390000000  0.6114310000000  0.4701440000000 1.0
C      1  0.5269980000000  0.4589470000000  0.4655690000000 1.0
C      1  0.5217090000000  0.5925520000000  0.5495890000000 1.0
C      1  0.4952340000000  0.4099910000000  0.4896740000000 1.0
C      1  0.4925950000000  0.4617040000000  0.3867460000000 1.0
C      1  0.4583220000000  0.5919500000000  0.4863540000000 1.0
C      1  0.5275850000000  0.6384160000000  0.5326210000000 1.0
C      1  0.5873520000000  0.5787610000000  0.5193070000000 1.0
C      1  0.4443980000000  0.4370030000000  0.4260380000000 1.0
C      1  0.5058770000000  0.5148210000000  0.5097960000000 1.0
C      1  0.6008420000000  0.5187300000000  0.4645300000000 1.0
C      1  0.5200250000000  0.5345420000000  0.3963660000000 1.0
C      1  0.5748690000000  0.4672630000000  0.5813290000000 1.0
C      1  0.5002870000000  0.6117890000000  0.4891330000000 1.0
C      1  0.5557820000000  0.5480190000000  0.4585430000000 1.0
C      1  0.5677690000000  0.4382160000000  0.5716880000000 1.0
C      1  0.4909910000000  0.4202080000000  0.4309580000000 1.0
C      1  0.5470020000000  0.5409450000000  0.3872800000000 1.0
C      1  0.4843110000000  0.3880540000000  0.5043350000000 1.0
C      1  0.5138920000000  0.5674800000000  0.5034720000000 1.0
C      1  0.4515380000000  0.5715530000000  0.5050420000000 1.0
C      1  0.4638870000000  0.4156760000000  0.4227940000000 1.0
C      1  0.4990410000000  0.3730070000000  0.5500270000000 1.0
C      1  0.6140070000000  0.4689640000000  0.4249240000000 1.0
C      1  0.5698910000000  0.5874970000000  0.5641710000000 1.0
C      1  0.5038100000000  0.3762730000000  0.5216850000000 1.0
C      1  0.5808520000000  0.6352500000000  0.5584320000000 1.0
C      1  0.5972940000000  0.4723160000000  0.4468360000000 1.0
C      1  0.4000430000000  0.4641230000000  0.5160020000000 1.0
C      1  0.4358940000000  0.5376900000000  0.4699230000000 1.0
C      1  0.5718890000000  0.4573820000000  0.4457380000000 1.0
C      1  0.5471040000000  0.5539590000000  0.4321250000000 1.0
C      1  0.4890880000000  0.4462430000000  0.5273710000000 1.0
C      1  0.4359130000000  0.5484590000000  0.4957150000000 1.0
C      1  0.5251570000000  0.5812020000000  0.5766240000000 1.0
C      1  0.4285930000000  0.4475480000000  0.4508020000000 1.0
C      1  0.5636810000000  0.6142920000000  0.5557910000000 1.0
C      1  0.5380160000000  0.5079670000000  0.4702580000000 1.0
C      1  0.5180580000000  0.5396580000000  0.4976070000000 1.0
C      1  0.4288910000000  0.4805070000000  0.6079690000000 1.0
C      1  0.3963910000000  0.4770880000000  0.5410670000000 1.0
C      1  0.4848200000000  0.5053720000000  0.4496790000000 1.0
C      1  0.4210620000000  0.5773510000000  0.4346920000000 1.0
C      1  0.6185830000000  0.4836420000000  0.5471140000000 1.0
C      1  0.5504300000000  0.5263680000000  0.5413980000000 1.0
C      1  0.4874030000000  0.5601560000000  0.5422680000000 1.0
C      1  0.5397740000000  0.3931850000000  0.4631770000000 1.0
C      1  0.4430260000000  0.4530260000000  0.4016110000000 1.0
C      1  0.5683770000000  0.4124640000000  0.4962230000000 1.0
C      1  0.5413970000000  0.4003640000000  0.4938510000000 1.0
C      1  0.4654650000000  0.5838300000000  0.4593190000000 1.0
C      1  0.4502790000000  0.4978610000000  0.4854660000000 1.0
C      1  0.4580150000000  0.6380560000000  0.5018550000000 1.0
C      1  0.5027630000000  0.4866190000000  0.4384670000000 1.0
C      1  0.5400850000000  0.3961770000000  0.5488990000000 1.0
C      1  0.4624560000000  0.5330930000000  0.5834290000000 1.0
C      1  0.6249630000000  0.4897610000000  0.5207250000000 1.0
C      1  0.4054460000000  0.4655980000000  0.5663260000000 1.0
C      1  0.4623230000000  0.4403540000000  0.5329190000000 1.0
C      1  0.5621970000000  0.5521230000000  0.4075330000000 1.0
C      1  0.3878020000000  0.6316470000000  0.4841490000000 1.0
C      1  0.4498150000000  0.4172840000000  0.4841600000000 1.0
C      1  0.4826200000000  0.4800360000000  0.5753730000000 1.0
C      1  0.5072390000000  0.5040920000000  0.5386170000000 1.0
C      1  0.5399440000000  0.4819000000000  0.6179210000000 1.0
C      1  0.5692810000000  0.4285750000000  0.4492930000000 1.0
C      1  0.4333500000000  0.6482210000000  0.5019580000000 1.0
C      1  0.4311960000000  0.4391540000000  0.4798920000000 1.0
C      1  0.4814910000000  0.5217040000000  0.3676150000000 1.0
C      1  0.3989380000000  0.5059050000000  0.5466760000000 1.0
C      1  0.5838000000000  0.4191470000000  0.4727820000000 1.0
C      1  0.4553140000000  0.4805410000000  0.3640900000000 1.0
C      1  0.3951160000000  0.5695630000000  0.4432040000000 1.0
C      1  0.4103670000000  0.4696090000000  0.4449820000000 1.0
C      1  0.4560610000000  0.4870920000000  0.5312730000000 1.0
C      1  0.3900660000000  0.5144950000000  0.4415100000000 1.0
C      1  0.5524680000000  0.5772240000000  0.5847010000000 1.0
C      1  0.4447450000000  0.5048820000000  0.5122330000000 1.0
C      1  0.5652490000000  0.4687660000000  0.6108410000000 1.0
C      1  0.5194180000000  0.5474420000000  0.4234470000000 1.0
C      1  0.5734900000000  0.5420980000000  0.5475290000000 1.0
C      1  0.5356990000000  0.5077270000000  0.5816510000000 1.0
C      1  0.5771020000000  0.5697110000000  0.5429850000000 1.0
C      1  0.4982860000000  0.5445010000000  0.5649060000000 1.0
C      1  0.5154950000000  0.4677980000000  0.6118040000000 1.0
C      1  0.4429720000000  0.3961670000000  0.5287270000000 1.0
C      1  0.5081870000000  0.5758680000000  0.5302710000000 1.0
C      1  0.5218200000000  0.4492720000000  0.4913230000000 1.0
C      1  0.4697670000000  0.5432680000000  0.6074170000000 1.0
C      1  0.5164360000000  0.3894400000000  0.5657990000000 1.0
C      1  0.4473330000000  0.5706300000000  0.4416790000000 1.0
END
