TITL C-599897-7526-114 0.915766559174955 125000 -730.626528627431 0 0 118 (C1) n - 1
REM
REM in /home/nfs/bkarasulu/CARBON/AIRSS/Generating-Clusters/TERSOFF/Only-C1/FIRE-HFTN
REM
REM
REM
REM
REM
REM ./C.cell (11c1c37f851c82e70ff6c80c92926a4b)
REM AIRSS Version 0.9.1 bugfix July 2018 build 013d7b7c2542+ Fri, 06 Jul 2018 19:26:36 +0100
REM compiler GCC version 9.2.1 20190827 (Red Hat 9.2.1-1)
REM options -cpp -mtune=generic -march=x86-64 -g -O0 -fpre-include=/usr/include/finclude/math-vector-fortran.h
REM seed 338943024 263106590 -1928505599 -440869724 1345249246 -714339005 -1416438144 -1538530152 1028489805 311779326 -1807569418 -1410300472 1930934832 1396942992 -2066513734 1034480900 335933222 142144516 -301801844 -1207990866 -1290989524 1251277438 -1835884469 527355370 1504991041 1897960166 753592171 -210458651 1891272795 1548258249 -1977732604 -690445611 -1745667498
REM
CELL 1.54180   50.00000   50.00000   50.00000   90.00000   90.00000   90.00000
LATT -1
SFAC C  
C      1  0.4340120000000  0.5870060000000  0.4709360000000 1.0
C      1  0.6278440000000  0.5042790000000  0.5352610000000 1.0
C      1  0.5241110000000  0.5888260000000  0.4491390000000 1.0
C      1  0.4511510000000  0.4132650000000  0.5183130000000 1.0
C      1  0.3913670000000  0.4742690000000  0.5210990000000 1.0
C      1  0.5889760000000  0.4810820000000  0.4360610000000 1.0
C      1  0.4468600000000  0.3960750000000  0.4347110000000 1.0
C      1  0.6247200000000  0.4428900000000  0.5693910000000 1.0
C      1  0.4683930000000  0.4972590000000  0.4586280000000 1.0
C      1  0.4614460000000  0.3919280000000  0.5336530000000 1.0
C      1  0.5044860000000  0.4895770000000  0.5863420000000 1.0
C      1  0.5518940000000  0.5852570000000  0.4403750000000 1.0
C      1  0.4725740000000  0.4873380000000  0.6213250000000 1.0
C      1  0.5056500000000  0.5095630000000  0.4877490000000 1.0
C      1  0.4513150000000  0.5138760000000  0.5622310000000 1.0
C      1  0.5281450000000  0.4900190000000  0.5462140000000 1.0
C      1  0.6118020000000  0.4663230000000  0.5634770000000 1.0
C      1  0.4561610000000  0.4638450000000  0.5527260000000 1.0
C      1  0.3903410000000  0.5385050000000  0.5207900000000 1.0
C      1  0.5631410000000  0.5814470000000  0.4146010000000 1.0
C      1  0.6238670000000  0.5203380000000  0.5125740000000 1.0
C      1  0.4635250000000  0.5594670000000  0.5500800000000 1.0
C      1  0.4249260000000  0.5205480000000  0.5558270000000 1.0
C      1  0.4954070000000  0.5608610000000  0.5153250000000 1.0
C      1  0.4386160000000  0.5787250000000  0.4460860000000 1.0
C      1  0.6063540000000  0.4686700000000  0.5135150000000 1.0
C      1  0.5668560000000  0.5702200000000  0.4594380000000 1.0
C      1  0.4670830000000  0.3939470000000  0.5600180000000 1.0
C      1  0.5189880000000  0.4593650000000  0.4471880000000 1.0
C      1  0.4680850000000  0.4173120000000  0.5759460000000 1.0
C      1  0.3663560000000  0.5077970000000  0.4270840000000 1.0
C      1  0.5674290000000  0.4798360000000  0.4561430000000 1.0
C      1  0.5122970000000  0.5049960000000  0.5638850000000 1.0
C      1  0.4716630000000  0.5334930000000  0.5578130000000 1.0
C      1  0.6160860000000  0.4786230000000  0.5383590000000 1.0
C      1  0.4303530000000  0.4276900000000  0.5311640000000 1.0
C      1  0.4833310000000  0.5626830000000  0.4255980000000 1.0
C      1  0.5832350000000  0.5454770000000  0.5239850000000 1.0
C      1  0.3917550000000  0.4751400000000  0.4944380000000 1.0
C      1  0.5382270000000  0.5392260000000  0.5206980000000 1.0
C      1  0.4913550000000  0.5350890000000  0.4265760000000 1.0
C      1  0.5302360000000  0.5359710000000  0.4555790000000 1.0
C      1  0.4676940000000  0.4283020000000  0.5003190000000 1.0
C      1  0.5122310000000  0.5430970000000  0.5316780000000 1.0
C      1  0.4585380000000  0.4878190000000  0.5714760000000 1.0
C      1  0.4786750000000  0.5010530000000  0.4851140000000 1.0
C      1  0.4645090000000  0.4267340000000  0.4723140000000 1.0
C      1  0.6081130000000  0.5443140000000  0.5102000000000 1.0
C      1  0.4570730000000  0.4186080000000  0.6286150000000 1.0
C      1  0.4532240000000  0.4045570000000  0.4592910000000 1.0
C      1  0.4054990000000  0.4670070000000  0.5426680000000 1.0
C      1  0.5799520000000  0.4733320000000  0.4110900000000 1.0
C      1  0.5627890000000  0.5229420000000  0.5218810000000 1.0
C      1  0.4651830000000  0.4710660000000  0.5236640000000 1.0
C      1  0.4620850000000  0.4172760000000  0.6030770000000 1.0
C      1  0.4061760000000  0.4246860000000  0.3857440000000 1.0
C      1  0.5561450000000  0.5014200000000  0.5009430000000 1.0
C      1  0.4900350000000  0.4881940000000  0.6417950000000 1.0
C      1  0.5419110000000  0.4891740000000  0.6402950000000 1.0
C      1  0.4768940000000  0.4877380000000  0.5935900000000 1.0
C      1  0.5222580000000  0.4457360000000  0.5740770000000 1.0
C      1  0.5992810000000  0.5446960000000  0.4182750000000 1.0
C      1  0.4817770000000  0.4499820000000  0.5122160000000 1.0
C      1  0.4287670000000  0.4517720000000  0.5464770000000 1.0
C      1  0.4920330000000  0.4334740000000  0.4152840000000 1.0
C      1  0.4715690000000  0.4490420000000  0.4558610000000 1.0
C      1  0.5030450000000  0.5823730000000  0.4312790000000 1.0
C      1  0.3691400000000  0.4881320000000  0.4094870000000 1.0
C      1  0.5800540000000  0.4840990000000  0.6039920000000 1.0
C      1  0.4757950000000  0.4411500000000  0.5621530000000 1.0
C      1  0.4728050000000  0.5731030000000  0.5272630000000 1.0
C      1  0.5194920000000  0.5310920000000  0.4301930000000 1.0
C      1  0.4995560000000  0.5279160000000  0.5529470000000 1.0
C      1  0.4273380000000  0.4710980000000  0.4570170000000 1.0
C      1  0.4419500000000  0.5929180000000  0.4955750000000 1.0
C      1  0.5512290000000  0.5491620000000  0.4693960000000 1.0
C      1  0.4050610000000  0.4729210000000  0.4714740000000 1.0
C      1  0.3763500000000  0.4665100000000  0.3958980000000 1.0
C      1  0.5440730000000  0.5525980000000  0.4962730000000 1.0
C      1  0.5533480000000  0.4662300000000  0.4131770000000 1.0
C      1  0.5067570000000  0.4520520000000  0.5259960000000 1.0
C      1  0.4637430000000  0.4940430000000  0.5078960000000 1.0
C      1  0.5360210000000  0.5974300000000  0.4980810000000 1.0
C      1  0.5633580000000  0.4876080000000  0.6244910000000 1.0
C      1  0.5825490000000  0.5634110000000  0.4083870000000 1.0
C      1  0.5207050000000  0.4666600000000  0.5912390000000 1.0
C      1  0.4552020000000  0.4723310000000  0.4548420000000 1.0
C      1  0.4051110000000  0.5308490000000  0.5414710000000 1.0
C      1  0.3886640000000  0.4445760000000  0.3874240000000 1.0
C      1  0.6081500000000  0.5523900000000  0.4822350000000 1.0
C      1  0.4746700000000  0.4175300000000  0.4025690000000 1.0
C      1  0.5736000000000  0.4880200000000  0.4825000000000 1.0
C      1  0.6182720000000  0.5072310000000  0.4863340000000 1.0
C      1  0.4948540000000  0.4474850000000  0.4395220000000 1.0
C      1  0.4644000000000  0.6206170000000  0.5278440000000 1.0
C      1  0.4564230000000  0.5698360000000  0.4283800000000 1.0
C      1  0.4498540000000  0.4054810000000  0.4083110000000 1.0
C      1  0.5161830000000  0.4891290000000  0.6474860000000 1.0
C      1  0.6109120000000  0.5310940000000  0.4384430000000 1.0
C      1  0.4744370000000  0.5150670000000  0.4375170000000 1.0
C      1  0.4274780000000  0.4102510000000  0.3923580000000 1.0
C      1  0.3718280000000  0.5351820000000  0.4717290000000 1.0
C      1  0.5217160000000  0.4763720000000  0.5223150000000 1.0
C      1  0.5273630000000  0.4936720000000  0.5000410000000 1.0
C      1  0.5095330000000  0.5354500000000  0.4761790000000 1.0
C      1  0.5035850000000  0.4425540000000  0.5531790000000 1.0
C      1  0.5182230000000  0.5859220000000  0.4781000000000 1.0
C      1  0.5027310000000  0.5619320000000  0.4875180000000 1.0
C      1  0.5927120000000  0.5724030000000  0.4700150000000 1.0
C      1  0.6147040000000  0.5284230000000  0.4662040000000 1.0
C      1  0.3794350000000  0.5401880000000  0.4966550000000 1.0
C      1  0.6007880000000  0.4847270000000  0.4906020000000 1.0
C      1  0.3673910000000  0.5239820000000  0.4480860000000 1.0
C      1  0.4596610000000  0.5959360000000  0.5170580000000 1.0
C      1  0.5946040000000  0.4778450000000  0.5825570000000 1.0
C      1  0.5723080000000  0.5725570000000  0.5270230000000 1.0
C      1  0.5557300000000  0.5914810000000  0.5161600000000 1.0
C      1  0.5442790000000  0.4688560000000  0.4408420000000 1.0
END
