TITL C-599890-3321-713 5349.24511441418 125000 -790.184889309612 0 0 131 (C1) n - 1
REM
REM in /home/nfs/bkarasulu/CARBON/AIRSS/Generating-Clusters/TERSOFF/Only-C1/FIRE-HFTN
REM
REM
REM
REM
REM
REM ./C.cell (11c1c37f851c82e70ff6c80c92926a4b)
REM AIRSS Version 0.9.1 bugfix July 2018 build 013d7b7c2542+ Fri, 06 Jul 2018 19:26:36 +0100
REM compiler GCC version 9.2.1 20190827 (Red Hat 9.2.1-1)
REM options -cpp -mtune=generic -march=x86-64 -g -O0 -fpre-include=/usr/include/finclude/math-vector-fortran.h
REM seed -854994261 1210232767 2033115112 -5191725 -1085746626 1242795145 -1028756099 594654348 -331518492 -406770635 -798977877 -1525942704 1778917747 1364604409 -1204321370 676531181 -1549827321 -1672760941 -329162971 418658752 -1863571741 -2141387112 623213088 1113383335 -1216166997 463680778 -1943445054 2045865945 463870502 -588364320 -692055076 743341522 -225014279
REM
CELL 1.54180   50.00000   50.00000   50.00000   90.00000   90.00000   90.00000
LATT -1
SFAC C  
C      1  0.6085270000000  0.4601760000000  0.6217800000000 1.0
C      1  0.5517630000000  0.5167050000000  0.4403250000000 1.0
C      1  0.4109200000000  0.5188910000000  0.4281650000000 1.0
C      1  0.6034440000000  0.5218240000000  0.4444460000000 1.0
C      1  0.4984360000000  0.5165760000000  0.5956420000000 1.0
C      1  0.5901850000000  0.4615690000000  0.6015480000000 1.0
C      1  0.5294880000000  0.5522740000000  0.4852210000000 1.0
C      1  0.5807060000000  0.4183790000000  0.5698050000000 1.0
C      1  0.5102630000000  0.4285750000000  0.4311390000000 1.0
C      1  0.4264580000000  0.4428720000000  0.4835410000000 1.0
C      1  0.6163540000000  0.5035050000000  0.4899590000000 1.0
C      1  0.5269310000000  0.4691710000000  0.5318800000000 1.0
C      1  0.5143730000000  0.5285270000000  0.4779100000000 1.0
C      1  0.4018700000000  0.5130060000000  0.4766370000000 1.0
C      1  0.5873900000000  0.5475240000000  0.4451060000000 1.0
C      1  0.4642000000000  0.5182660000000  0.4930170000000 1.0
C      1  0.5096020000000  0.4282670000000  0.5628100000000 1.0
C      1  0.4240310000000  0.5011620000000  0.5198940000000 1.0
C      1  0.5191240000000  0.5573470000000  0.5648080000000 1.0
C      1  0.5407760000000  0.5184570000000  0.5740790000000 1.0
C      1  0.6054260000000  0.5029900000000  0.4233220000000 1.0
C      1  0.4105300000000  0.5525610000000  0.5210230000000 1.0
C      1  0.3130880000000  0.6770780000000  0.6202140000000 1.0
C      1  0.5775770000000  0.4550430000000  0.4211830000000 1.0
C      1  0.5081020000000  0.5117630000000  0.5383160000000 1.0
C      1  0.4350150000000  0.4315770000000  0.5076920000000 1.0
C      1  0.5040440000000  0.4012670000000  0.5547380000000 1.0
C      1  0.5133280000000  0.5117300000000  0.4084860000000 1.0
C      1  0.5304780000000  0.4750560000000  0.4321970000000 1.0
C      1  0.5069830000000  0.4885460000000  0.5206210000000 1.0
C      1  0.4790960000000  0.5110750000000  0.4484900000000 1.0
C      1  0.5590310000000  0.5447080000000  0.4452260000000 1.0
C      1  0.5098470000000  0.5355880000000  0.4235730000000 1.0
C      1  0.4383410000000  0.5318410000000  0.5550740000000 1.0
C      1  0.4849070000000  0.4864000000000  0.4615180000000 1.0
C      1  0.4113110000000  0.4751800000000  0.4520130000000 1.0
C      1  0.5178980000000  0.5339370000000  0.5837430000000 1.0
C      1  0.5071810000000  0.4735720000000  0.4494660000000 1.0
C      1  0.5905580000000  0.4596250000000  0.4954110000000 1.0
C      1  0.4318390000000  0.4599250000000  0.4380540000000 1.0
C      1  0.5429780000000  0.5901520000000  0.5122510000000 1.0
C      1  0.4539230000000  0.4411810000000  0.5264480000000 1.0
C      1  0.4790250000000  0.4490760000000  0.5144340000000 1.0
C      1  0.6202980000000  0.5218140000000  0.4688280000000 1.0
C      1  0.5756540000000  0.4850440000000  0.5971580000000 1.0
C      1  0.5765230000000  0.3476070000000  0.5831840000000 1.0
C      1  0.6102480000000  0.4760620000000  0.4872240000000 1.0
C      1  0.5595680000000  0.5040840000000  0.5882330000000 1.0
C      1  0.5710360000000  0.3945630000000  0.5287840000000 1.0
C      1  0.5593650000000  0.4126160000000  0.4130110000000 1.0
C      1  0.5098060000000  0.4221470000000  0.4595130000000 1.0
C      1  0.4429240000000  0.5776170000000  0.4553930000000 1.0
C      1  0.5198870000000  0.5608840000000  0.4176620000000 1.0
C      1  0.6237050000000  0.5503330000000  0.4740450000000 1.0
C      1  0.3797880000000  0.5863810000000  0.5503850000000 1.0
C      1  0.4226970000000  0.6067560000000  0.4887320000000 1.0
C      1  0.4561060000000  0.5453080000000  0.4129190000000 1.0
C      1  0.4475320000000  0.4672420000000  0.5720070000000 1.0
C      1  0.6042600000000  0.5650190000000  0.4608320000000 1.0
C      1  0.5369030000000  0.4285790000000  0.4210700000000 1.0
C      1  0.5189810000000  0.4412200000000  0.4816620000000 1.0
C      1  0.3941940000000  0.5692210000000  0.5362630000000 1.0
C      1  0.4701700000000  0.5248580000000  0.3966910000000 1.0
C      1  0.6321090000000  0.5181250000000  0.3788010000000 1.0
C      1  0.4530410000000  0.5205320000000  0.4490430000000 1.0
C      1  0.6079510000000  0.5145410000000  0.5145650000000 1.0
C      1  0.3002020000000  0.6955690000000  0.6341640000000 1.0
C      1  0.5539640000000  0.4762360000000  0.5259820000000 1.0
C      1  0.4497370000000  0.4691170000000  0.4182810000000 1.0
C      1  0.5000220000000  0.4340380000000  0.5033950000000 1.0
C      1  0.3391060000000  0.6402990000000  0.5922990000000 1.0
C      1  0.4924450000000  0.4470410000000  0.4160700000000 1.0
C      1  0.5347140000000  0.5631380000000  0.5120790000000 1.0
C      1  0.2875600000000  0.7137780000000  0.6478850000000 1.0
C      1  0.3523770000000  0.6221000000000  0.5783380000000 1.0
C      1  0.4450530000000  0.4622800000000  0.5446110000000 1.0
C      1  0.4369840000000  0.5294920000000  0.4275580000000 1.0
C      1  0.4742090000000  0.4913650000000  0.4878410000000 1.0
C      1  0.4848830000000  0.5283590000000  0.5383690000000 1.0
C      1  0.4118020000000  0.4677820000000  0.4812840000000 1.0
C      1  0.5010940000000  0.5290160000000  0.4507810000000 1.0
C      1  0.4610560000000  0.4836610000000  0.5885590000000 1.0
C      1  0.5199290000000  0.5034150000000  0.4912390000000 1.0
C      1  0.5577830000000  0.5004720000000  0.4629990000000 1.0
C      1  0.4976090000000  0.4051560000000  0.5040040000000 1.0
C      1  0.4462530000000  0.4852550000000  0.5284310000000 1.0
C      1  0.5852970000000  0.5146370000000  0.5285970000000 1.0
C      1  0.5393340000000  0.5631160000000  0.4593300000000 1.0
C      1  0.4933640000000  0.3924950000000  0.5290730000000 1.0
C      1  0.3659090000000  0.6040990000000  0.5643710000000 1.0
C      1  0.5007550000000  0.3989300000000  0.4754560000000 1.0
C      1  0.5487370000000  0.4550990000000  0.4254320000000 1.0
C      1  0.4166290000000  0.5585810000000  0.4936480000000 1.0
C      1  0.5359580000000  0.5007060000000  0.4215930000000 1.0
C      1  0.5688580000000  0.3924780000000  0.5024640000000 1.0
C      1  0.4084880000000  0.4921930000000  0.4967950000000 1.0
C      1  0.4802960000000  0.4782490000000  0.5124630000000 1.0
C      1  0.5827730000000  0.4275930000000  0.4132320000000 1.0
C      1  0.5509120000000  0.6149660000000  0.5116320000000 1.0
C      1  0.5856720000000  0.4395310000000  0.5849340000000 1.0
C      1  0.4375110000000  0.4382980000000  0.4569980000000 1.0
C      1  0.4651500000000  0.5321360000000  0.5580740000000 1.0
C      1  0.5690610000000  0.3901900000000  0.4765000000000 1.0
C      1  0.5766480000000  0.3701880000000  0.5701730000000 1.0
C      1  0.5374230000000  0.5204620000000  0.5433260000000 1.0
C      1  0.5639320000000  0.4596970000000  0.5041800000000 1.0
C      1  0.6193080000000  0.5105310000000  0.4001920000000 1.0
C      1  0.5033950000000  0.4661010000000  0.5981240000000 1.0
C      1  0.4770000000000  0.3702950000000  0.5292360000000 1.0
C      1  0.4901920000000  0.5814230000000  0.4440010000000 1.0
C      1  0.4215010000000  0.5279080000000  0.5323930000000 1.0
C      1  0.5596730000000  0.5039190000000  0.5315760000000 1.0
C      1  0.5941590000000  0.4771560000000  0.4243000000000 1.0
C      1  0.4771980000000  0.4719030000000  0.4093950000000 1.0
C      1  0.4192960000000  0.5349110000000  0.4792950000000 1.0
C      1  0.4877170000000  0.4898160000000  0.5960470000000 1.0
C      1  0.5414220000000  0.4590400000000  0.4850830000000 1.0
C      1  0.5052120000000  0.4411730000000  0.5876940000000 1.0
C      1  0.4872140000000  0.5000710000000  0.4009190000000 1.0
C      1  0.5390760000000  0.4872230000000  0.4789590000000 1.0
C      1  0.4456120000000  0.5273710000000  0.4746410000000 1.0
C      1  0.5099620000000  0.3815010000000  0.5730910000000 1.0
C      1  0.5761050000000  0.3944030000000  0.5562460000000 1.0
C      1  0.5329520000000  0.5510280000000  0.5386890000000 1.0
C      1  0.5218880000000  0.4451530000000  0.5444560000000 1.0
C      1  0.5189610000000  0.5766150000000  0.4418380000000 1.0
C      1  0.4273170000000  0.5813730000000  0.4794750000000 1.0
C      1  0.4755690000000  0.5345390000000  0.5125100000000 1.0
C      1  0.3260370000000  0.6586420000000  0.6062610000000 1.0
C      1  0.4017110000000  0.5020600000000  0.4492410000000 1.0
C      1  0.4639410000000  0.5711370000000  0.4366870000000 1.0
END
