TITL C-599896-8500-420 0.207307039089166 125000 -1204.2758834473 0 0 196 (C1) n - 1
REM
REM in /home/nfs/bkarasulu/CARBON/AIRSS/Generating-Clusters/TERSOFF/Only-C1/FIRE-HFTN
REM
REM
REM
REM
REM
REM ./C.cell (11c1c37f851c82e70ff6c80c92926a4b)
REM AIRSS Version 0.9.1 bugfix July 2018 build 013d7b7c2542+ Fri, 06 Jul 2018 19:26:36 +0100
REM compiler GCC version 9.2.1 20190827 (Red Hat 9.2.1-1)
REM options -cpp -mtune=generic -march=x86-64 -g -O0 -fpre-include=/usr/include/finclude/math-vector-fortran.h
REM seed -870592159 1671892499 -204761514 438877897 425886174 -850425243 -1182412671 -1633914366 2085292228 -1929665578 -1190125651 -1654354195 -725562097 2121487550 -1669639906 229046417 -1512052200 -1371780668 -1662209399 -579047402 -1587816406 648090647 -264409387 1491289293 464637124 -1447359134 431074801 -900890212 498844895 536965895 171698933 201145372 -2049470901
REM
CELL 1.54180   50.00000   50.00000   50.00000   90.00000   90.00000   90.00000
LATT -1
SFAC C  
C      1  0.4014740000000  0.5309250000000  0.5229160000000 1.0
C      1  0.4126990000000  0.5347870000000  0.5737980000000 1.0
C      1  0.4650390000000  0.3604580000000  0.4759990000000 1.0
C      1  0.5295870000000  0.4556650000000  0.4229830000000 1.0
C      1  0.4932550000000  0.3682720000000  0.4715760000000 1.0
C      1  0.4109060000000  0.4351930000000  0.4752380000000 1.0
C      1  0.5060440000000  0.5777850000000  0.5245820000000 1.0
C      1  0.5049210000000  0.4699360000000  0.6423180000000 1.0
C      1  0.4355730000000  0.6743550000000  0.4375300000000 1.0
C      1  0.5610810000000  0.4202550000000  0.4164190000000 1.0
C      1  0.4914960000000  0.3995980000000  0.6122050000000 1.0
C      1  0.5486260000000  0.5697190000000  0.5030650000000 1.0
C      1  0.5476870000000  0.4379590000000  0.5914850000000 1.0
C      1  0.5383900000000  0.4095060000000  0.5463830000000 1.0
C      1  0.5487990000000  0.5822250000000  0.4442250000000 1.0
C      1  0.4836140000000  0.4166100000000  0.5924150000000 1.0
C      1  0.5110890000000  0.4969590000000  0.4094540000000 1.0
C      1  0.5043770000000  0.3774420000000  0.4973040000000 1.0
C      1  0.5225920000000  0.3997300000000  0.4989860000000 1.0
C      1  0.3888810000000  0.5689750000000  0.5491780000000 1.0
C      1  0.4851440000000  0.6241690000000  0.5164510000000 1.0
C      1  0.4508970000000  0.5367400000000  0.6075760000000 1.0
C      1  0.5422210000000  0.4852290000000  0.5785370000000 1.0
C      1  0.6232570000000  0.5298320000000  0.5206350000000 1.0
C      1  0.5864330000000  0.4632980000000  0.4175060000000 1.0
C      1  0.5988490000000  0.4726710000000  0.6129980000000 1.0
C      1  0.6066490000000  0.5474290000000  0.4500350000000 1.0
C      1  0.4015550000000  0.5436280000000  0.5489390000000 1.0
C      1  0.4034120000000  0.5104370000000  0.5840780000000 1.0
C      1  0.5026270000000  0.5086280000000  0.5104360000000 1.0
C      1  0.3197990000000  0.3582250000000  0.4813740000000 1.0
C      1  0.3965470000000  0.3767970000000  0.4772410000000 1.0
C      1  0.5262200000000  0.5983080000000  0.4515790000000 1.0
C      1  0.4353650000000  0.6559690000000  0.4559970000000 1.0
C      1  0.4776380000000  0.5121290000000  0.4427990000000 1.0
C      1  0.5330970000000  0.5042630000000  0.6240160000000 1.0
C      1  0.4132840000000  0.5090210000000  0.2970700000000 1.0
C      1  0.4652710000000  0.5586510000000  0.4965630000000 1.0
C      1  0.6505300000000  0.4743620000000  0.5643370000000 1.0
C      1  0.5384260000000  0.4336880000000  0.4071890000000 1.0
C      1  0.5611580000000  0.5121590000000  0.4056750000000 1.0
C      1  0.4592330000000  0.4589370000000  0.5816940000000 1.0
C      1  0.4668660000000  0.4546680000000  0.4397570000000 1.0
C      1  0.4110730000000  0.5167970000000  0.3957440000000 1.0
C      1  0.4279050000000  0.5259510000000  0.3746470000000 1.0
C      1  0.6165490000000  0.5335620000000  0.5848390000000 1.0
C      1  0.5656970000000  0.5382990000000  0.4199750000000 1.0
C      1  0.4495410000000  0.3855830000000  0.4755380000000 1.0
C      1  0.4790350000000  0.5038730000000  0.4698090000000 1.0
C      1  0.5570800000000  0.5193490000000  0.6245090000000 1.0
C      1  0.4281040000000  0.6091860000000  0.4693660000000 1.0
C      1  0.5040300000000  0.5422430000000  0.6034300000000 1.0
C      1  0.4546950000000  0.5890570000000  0.4305270000000 1.0
C      1  0.5769790000000  0.3968560000000  0.4548840000000 1.0
C      1  0.4857620000000  0.3758440000000  0.5189560000000 1.0
C      1  0.4170310000000  0.4924540000000  0.4084880000000 1.0
C      1  0.5735790000000  0.5760660000000  0.4906970000000 1.0
C      1  0.3927540000000  0.5909900000000  0.5343590000000 1.0
C      1  0.5261980000000  0.5670350000000  0.4034040000000 1.0
C      1  0.5398020000000  0.4813240000000  0.4640130000000 1.0
C      1  0.4440180000000  0.5758940000000  0.5799350000000 1.0
C      1  0.5997450000000  0.5655690000000  0.4966360000000 1.0
C      1  0.6714240000000  0.4283440000000  0.4506410000000 1.0
C      1  0.4941030000000  0.5223400000000  0.4867500000000 1.0
C      1  0.5712090000000  0.5164930000000  0.4614050000000 1.0
C      1  0.5134590000000  0.6445750000000  0.5576600000000 1.0
C      1  0.4592590000000  0.4936260000000  0.6368390000000 1.0
C      1  0.5289350000000  0.4755010000000  0.6283580000000 1.0
C      1  0.6092370000000  0.5665470000000  0.5467020000000 1.0
C      1  0.5142450000000  0.5156600000000  0.6043860000000 1.0
C      1  0.6136990000000  0.3915030000000  0.4806570000000 1.0
C      1  0.4921230000000  0.5753210000000  0.5488970000000 1.0
C      1  0.4630350000000  0.3866200000000  0.5321430000000 1.0
C      1  0.5949090000000  0.4887000000000  0.5912520000000 1.0
C      1  0.6101780000000  0.5550760000000  0.5209270000000 1.0
C      1  0.4998860000000  0.5739060000000  0.4119230000000 1.0
C      1  0.5913510000000  0.4645520000000  0.5361410000000 1.0
C      1  0.4888920000000  0.3990580000000  0.4253310000000 1.0
C      1  0.4121140000000  0.5949080000000  0.4893440000000 1.0
C      1  0.4251960000000  0.4827620000000  0.4334600000000 1.0
C      1  0.4219210000000  0.3844400000000  0.4765800000000 1.0
C      1  0.4181970000000  0.5147040000000  0.3224890000000 1.0
C      1  0.4516420000000  0.4865080000000  0.5425330000000 1.0
C      1  0.4841540000000  0.4496970000000  0.4172190000000 1.0
C      1  0.5841790000000  0.3887240000000  0.4824700000000 1.0
C      1  0.5233790000000  0.5230870000000  0.4493020000000 1.0
C      1  0.5580880000000  0.3970260000000  0.4333330000000 1.0
C      1  0.5324200000000  0.5530550000000  0.4867730000000 1.0
C      1  0.4142930000000  0.5975270000000  0.5175040000000 1.0
C      1  0.4670010000000  0.5624840000000  0.5447660000000 1.0
C      1  0.4172380000000  0.4974190000000  0.4561620000000 1.0
C      1  0.4695440000000  0.4062930000000  0.4683630000000 1.0
C      1  0.3451240000000  0.3642520000000  0.4799800000000 1.0
C      1  0.4708230000000  0.4409850000000  0.5977400000000 1.0
C      1  0.4976140000000  0.6202120000000  0.4910330000000 1.0
C      1  0.5354920000000  0.4357450000000  0.4680830000000 1.0
C      1  0.5147470000000  0.5210550000000  0.5314940000000 1.0
C      1  0.5186760000000  0.4985420000000  0.5818050000000 1.0
C      1  0.5347810000000  0.5799420000000  0.5258250000000 1.0
C      1  0.5407990000000  0.4540940000000  0.6125760000000 1.0
C      1  0.6333780000000  0.4958920000000  0.5601790000000 1.0
C      1  0.4793910000000  0.4540080000000  0.4662560000000 1.0
C      1  0.4874060000000  0.4107920000000  0.5648670000000 1.0
C      1  0.4500100000000  0.4351560000000  0.5408400000000 1.0
C      1  0.5373110000000  0.5316820000000  0.5398260000000 1.0
C      1  0.4459730000000  0.5810860000000  0.5512790000000 1.0
C      1  0.5621020000000  0.4365530000000  0.4765420000000 1.0
C      1  0.5879960000000  0.4232080000000  0.5138170000000 1.0
C      1  0.5001060000000  0.6342640000000  0.5377960000000 1.0
C      1  0.4762060000000  0.5506430000000  0.6072340000000 1.0
C      1  0.6217950000000  0.4098900000000  0.4596170000000 1.0
C      1  0.4885870000000  0.5712530000000  0.5025990000000 1.0
C      1  0.6138640000000  0.5567020000000  0.5713770000000 1.0
C      1  0.3898590000000  0.4610310000000  0.5956710000000 1.0
C      1  0.3782180000000  0.5359030000000  0.5065610000000 1.0
C      1  0.5830590000000  0.5342200000000  0.4428300000000 1.0
C      1  0.4354740000000  0.6357200000000  0.4749890000000 1.0
C      1  0.5478730000000  0.5626280000000  0.4221020000000 1.0
C      1  0.4279370000000  0.4329570000000  0.5237320000000 1.0
C      1  0.4133340000000  0.4341900000000  0.5016600000000 1.0
C      1  0.5429820000000  0.5674530000000  0.5764770000000 1.0
C      1  0.5148210000000  0.4223030000000  0.4822320000000 1.0
C      1  0.5122050000000  0.4028230000000  0.5547900000000 1.0
C      1  0.5347970000000  0.5058930000000  0.3963140000000 1.0
C      1  0.5164680000000  0.4215410000000  0.3940940000000 1.0
C      1  0.4455820000000  0.5406720000000  0.5009050000000 1.0
C      1  0.5606150000000  0.5451850000000  0.5789890000000 1.0
C      1  0.4398320000000  0.6009670000000  0.5309630000000 1.0
C      1  0.4919290000000  0.4221190000000  0.4090740000000 1.0
C      1  0.5035430000000  0.5133240000000  0.4312460000000 1.0
C      1  0.5782190000000  0.5078450000000  0.4871190000000 1.0
C      1  0.5980650000000  0.4170470000000  0.4443260000000 1.0
C      1  0.4222420000000  0.4392250000000  0.4514780000000 1.0
C      1  0.3991450000000  0.5568460000000  0.4275190000000 1.0
C      1  0.4093350000000  0.5729600000000  0.4477410000000 1.0
C      1  0.5606300000000  0.5294380000000  0.5548320000000 1.0
C      1  0.4587650000000  0.5272630000000  0.4292190000000 1.0
C      1  0.5379550000000  0.4811820000000  0.4930320000000 1.0
C      1  0.4886440000000  0.3898140000000  0.4517670000000 1.0
C      1  0.4247330000000  0.5189430000000  0.5071590000000 1.0
C      1  0.5843420000000  0.4393950000000  0.4907720000000 1.0
C      1  0.5314010000000  0.5656040000000  0.3764830000000 1.0
C      1  0.4314120000000  0.5923320000000  0.4459400000000 1.0
C      1  0.4720200000000  0.5716820000000  0.4163680000000 1.0
C      1  0.5782820000000  0.4885500000000  0.4102580000000 1.0
C      1  0.3548190000000  0.5223900000000  0.5103190000000 1.0
C      1  0.5757060000000  0.4871440000000  0.5301380000000 1.0
C      1  0.3986650000000  0.5737280000000  0.4746960000000 1.0
C      1  0.6144270000000  0.5592730000000  0.4729600000000 1.0
C      1  0.4431140000000  0.6398560000000  0.5017630000000 1.0
C      1  0.4084520000000  0.5034300000000  0.2720690000000 1.0
C      1  0.5727940000000  0.5044170000000  0.5522050000000 1.0
C      1  0.6323470000000  0.5095050000000  0.5354720000000 1.0
C      1  0.5332990000000  0.4578070000000  0.4505420000000 1.0
C      1  0.4660150000000  0.4116260000000  0.5460150000000 1.0
C      1  0.5105660000000  0.6114130000000  0.4691480000000 1.0
C      1  0.4230770000000  0.5203460000000  0.3479040000000 1.0
C      1  0.5957520000000  0.4381480000000  0.5357810000000 1.0
C      1  0.4353170000000  0.4944900000000  0.5211530000000 1.0
C      1  0.4536110000000  0.4605570000000  0.5541400000000 1.0
C      1  0.5454450000000  0.5824440000000  0.5521330000000 1.0
C      1  0.5449490000000  0.4011260000000  0.5183820000000 1.0
C      1  0.4601440000000  0.5468490000000  0.4090310000000 1.0
C      1  0.4794870000000  0.4779630000000  0.6444470000000 1.0
C      1  0.4661840000000  0.5348620000000  0.5490390000000 1.0
C      1  0.5723240000000  0.3992640000000  0.5079330000000 1.0
C      1  0.5697760000000  0.5839630000000  0.4632640000000 1.0
C      1  0.4712770000000  0.5764110000000  0.5925030000000 1.0
C      1  0.4158550000000  0.5088180000000  0.4800170000000 1.0
C      1  0.5704380000000  0.4896000000000  0.5766830000000 1.0
C      1  0.4566620000000  0.6218280000000  0.5191820000000 1.0
C      1  0.4497570000000  0.5411970000000  0.3836590000000 1.0
C      1  0.6474480000000  0.4191370000000  0.4550560000000 1.0
C      1  0.5665950000000  0.5356430000000  0.6050100000000 1.0
C      1  0.5097840000000  0.4822450000000  0.5002830000000 1.0
C      1  0.4650370000000  0.5086070000000  0.5537080000000 1.0
C      1  0.4959030000000  0.5799010000000  0.5766860000000 1.0
C      1  0.3708720000000  0.3703870000000  0.4785640000000 1.0
C      1  0.5855140000000  0.4352000000000  0.4242580000000 1.0
C      1  0.3973450000000  0.5366370000000  0.4102610000000 1.0
C      1  0.4385020000000  0.4581020000000  0.4384290000000 1.0
C      1  0.5060940000000  0.4690550000000  0.4130240000000 1.0
C      1  0.5173950000000  0.5644330000000  0.5885200000000 1.0
C      1  0.5457850000000  0.5065050000000  0.4536490000000 1.0
C      1  0.6651730000000  0.4531800000000  0.5683370000000 1.0
C      1  0.5147140000000  0.5366530000000  0.4729350000000 1.0
C      1  0.4322790000000  0.5497100000000  0.5887360000000 1.0
C      1  0.6161700000000  0.5054900000000  0.5810760000000 1.0
C      1  0.4398580000000  0.3722470000000  0.5343480000000 1.0
C      1  0.3958060000000  0.4858530000000  0.5903760000000 1.0
C      1  0.5630000000000  0.4913580000000  0.5051450000000 1.0
C      1  0.4483520000000  0.5137680000000  0.6231580000000 1.0
C      1  0.3815590000000  0.5553270000000  0.4865370000000 1.0
C      1  0.4864210000000  0.4283660000000  0.4764520000000 1.0
C      1  0.4879670000000  0.4774190000000  0.4795440000000 1.0
C      1  0.5507760000000  0.4253300000000  0.5673090000000 1.0
END
