TITL C-599897-7526-1177 0.237184240136355 125000 -542.276722048926 0 0 90 (C1) n - 1
REM
REM in /home/nfs/bkarasulu/CARBON/AIRSS/Generating-Clusters/TERSOFF/Only-C1/FIRE-HFTN
REM
REM
REM
REM
REM
REM ./C.cell (11c1c37f851c82e70ff6c80c92926a4b)
REM AIRSS Version 0.9.1 bugfix July 2018 build 013d7b7c2542+ Fri, 06 Jul 2018 19:26:36 +0100
REM compiler GCC version 9.2.1 20190827 (Red Hat 9.2.1-1)
REM options -cpp -mtune=generic -march=x86-64 -g -O0 -fpre-include=/usr/include/finclude/math-vector-fortran.h
REM seed -330853008 -557567978 -1017256119 -1953063453 -1959022772 2080777799 997180215 1952602504 1179177532 1237952106 -1290251197 569922437 1829614132 1133668830 -562778941 -1227485507 -1007587993 -1707976941 983351245 -1994287896 -2124590910 -438709305 314858252 1823715644 1566320218 -748740717 1673718943 -696732090 -1851438604 319883016 -132880780 1194558325 -426569268
REM
CELL 1.54180   50.00000   50.00000   50.00000   90.00000   90.00000   90.00000
LATT -1
SFAC C  
C      1  0.5194620000000  0.5915030000000  0.5140550000000 1.0
C      1  0.5395170000000  0.4687040000000  0.6017600000000 1.0
C      1  0.5116870000000  0.5456940000000  0.5286600000000 1.0
C      1  0.3883390000000  0.4748550000000  0.4980360000000 1.0
C      1  0.5806140000000  0.5026820000000  0.4213840000000 1.0
C      1  0.4700250000000  0.4758230000000  0.4843240000000 1.0
C      1  0.4099920000000  0.5498430000000  0.4198730000000 1.0
C      1  0.5291240000000  0.5505170000000  0.4546250000000 1.0
C      1  0.5611690000000  0.4836080000000  0.6073820000000 1.0
C      1  0.5731200000000  0.5119970000000  0.4450250000000 1.0
C      1  0.5870880000000  0.4933110000000  0.3979360000000 1.0
C      1  0.4722850000000  0.4218850000000  0.4276590000000 1.0
C      1  0.5124110000000  0.6165870000000  0.5144080000000 1.0
C      1  0.4263800000000  0.5315080000000  0.4683520000000 1.0
C      1  0.4854830000000  0.5101610000000  0.6255190000000 1.0
C      1  0.5602190000000  0.4581370000000  0.4971190000000 1.0
C      1  0.4433290000000  0.4283120000000  0.4902640000000 1.0
C      1  0.6015990000000  0.5172340000000  0.5017530000000 1.0
C      1  0.5262050000000  0.4563340000000  0.5801800000000 1.0
C      1  0.4804230000000  0.4682000000000  0.5531020000000 1.0
C      1  0.4626880000000  0.4865030000000  0.4367830000000 1.0
C      1  0.5098300000000  0.5132310000000  0.6150680000000 1.0
C      1  0.4171160000000  0.4676840000000  0.4388650000000 1.0
C      1  0.5826790000000  0.5267110000000  0.5877460000000 1.0
C      1  0.5257460000000  0.5154260000000  0.5937400000000 1.0
C      1  0.3961210000000  0.4832100000000  0.4293170000000 1.0
C      1  0.5288680000000  0.5198150000000  0.5661800000000 1.0
C      1  0.4972860000000  0.5213210000000  0.5175180000000 1.0
C      1  0.4603440000000  0.4944260000000  0.4644910000000 1.0
C      1  0.3683210000000  0.4889640000000  0.4871360000000 1.0
C      1  0.4452470000000  0.4647840000000  0.4304920000000 1.0
C      1  0.4952530000000  0.5236590000000  0.4886190000000 1.0
C      1  0.5770530000000  0.5054940000000  0.4930760000000 1.0
C      1  0.4560690000000  0.4713250000000  0.5091670000000 1.0
C      1  0.5167500000000  0.4996770000000  0.5250290000000 1.0
C      1  0.4627540000000  0.5850260000000  0.4676130000000 1.0
C      1  0.5737370000000  0.5573280000000  0.5459550000000 1.0
C      1  0.5161010000000  0.3967760000000  0.4131950000000 1.0
C      1  0.4144700000000  0.4514030000000  0.4627870000000 1.0
C      1  0.3618840000000  0.4972670000000  0.4624160000000 1.0
C      1  0.4422990000000  0.5132060000000  0.5999060000000 1.0
C      1  0.4165750000000  0.5407750000000  0.4438710000000 1.0
C      1  0.5541120000000  0.4133650000000  0.5091540000000 1.0
C      1  0.6254610000000  0.5033050000000  0.5039430000000 1.0
C      1  0.4109460000000  0.4605920000000  0.4902770000000 1.0
C      1  0.4592810000000  0.5095260000000  0.6202840000000 1.0
C      1  0.5653960000000  0.5196490000000  0.4708270000000 1.0
C      1  0.4809370000000  0.5647460000000  0.4683260000000 1.0
C      1  0.4030650000000  0.5575660000000  0.3954850000000 1.0
C      1  0.6473300000000  0.4893110000000  0.5061880000000 1.0
C      1  0.4439310000000  0.5202630000000  0.5740830000000 1.0
C      1  0.4113510000000  0.5335390000000  0.4911040000000 1.0
C      1  0.4365520000000  0.4307160000000  0.4622710000000 1.0
C      1  0.4744680000000  0.5382940000000  0.4765530000000 1.0
C      1  0.3736750000000  0.4947160000000  0.4384180000000 1.0
C      1  0.4526390000000  0.4375960000000  0.4391920000000 1.0
C      1  0.5132690000000  0.5091080000000  0.4732110000000 1.0
C      1  0.5000890000000  0.4614600000000  0.5702870000000 1.0
C      1  0.5493610000000  0.5434610000000  0.4748130000000 1.0
C      1  0.4349800000000  0.4523960000000  0.5053030000000 1.0
C      1  0.5366700000000  0.5005160000000  0.5454010000000 1.0
C      1  0.5652740000000  0.4844810000000  0.5078400000000 1.0
C      1  0.5241010000000  0.4872620000000  0.4625230000000 1.0
C      1  0.4672060000000  0.4832760000000  0.5327020000000 1.0
C      1  0.5221470000000  0.5338840000000  0.4321880000000 1.0
C      1  0.5508510000000  0.5560860000000  0.5011820000000 1.0
C      1  0.5404990000000  0.4457530000000  0.4789670000000 1.0
C      1  0.4858150000000  0.5434970000000  0.5674040000000 1.0
C      1  0.5634820000000  0.4383490000000  0.5197960000000 1.0
C      1  0.5770120000000  0.5043130000000  0.6012270000000 1.0
C      1  0.5579150000000  0.4538050000000  0.5434940000000 1.0
C      1  0.5186540000000  0.4610260000000  0.4704300000000 1.0
C      1  0.4826700000000  0.5002010000000  0.4220390000000 1.0
C      1  0.5036100000000  0.5173120000000  0.4213890000000 1.0
C      1  0.4648820000000  0.5272000000000  0.5568140000000 1.0
C      1  0.5267360000000  0.5645580000000  0.5141120000000 1.0
C      1  0.4918030000000  0.4583560000000  0.4785360000000 1.0
C      1  0.5439080000000  0.4407350000000  0.5642660000000 1.0
C      1  0.3961530000000  0.5649850000000  0.3714670000000 1.0
C      1  0.5746230000000  0.5558620000000  0.5177630000000 1.0
C      1  0.4722430000000  0.5120830000000  0.5333310000000 1.0
C      1  0.5795760000000  0.5459540000000  0.5694580000000 1.0
C      1  0.5407000000000  0.4176030000000  0.4853470000000 1.0
C      1  0.5121510000000  0.5418620000000  0.5568970000000 1.0
C      1  0.5476690000000  0.4142320000000  0.5698870000000 1.0
C      1  0.5985130000000  0.5445630000000  0.5076910000000 1.0
C      1  0.4527360000000  0.5215810000000  0.4696330000000 1.0
C      1  0.4939150000000  0.4088250000000  0.4196950000000 1.0
C      1  0.5082060000000  0.5685660000000  0.4613890000000 1.0
C      1  0.5577760000000  0.4827580000000  0.5370300000000 1.0
END
