TITL C-599897-7526-303 674480.081895029 125000 -883.348693422826 0 0 145 (C1) n - 1
REM
REM in /home/nfs/bkarasulu/CARBON/AIRSS/Generating-Clusters/TERSOFF/Only-C1/FIRE-HFTN
REM
REM
REM
REM
REM
REM ./C.cell (11c1c37f851c82e70ff6c80c92926a4b)
REM AIRSS Version 0.9.1 bugfix July 2018 build 013d7b7c2542+ Fri, 06 Jul 2018 19:26:36 +0100
REM compiler GCC version 9.2.1 20190827 (Red Hat 9.2.1-1)
REM options -cpp -mtune=generic -march=x86-64 -g -O0 -fpre-include=/usr/include/finclude/math-vector-fortran.h
REM seed 2020010941 -573335914 2028303634 1414170603 -833073616 -1500518004 -528276247 1405216385 -985000285 1824570930 1086693316 878885179 1975702085 -1652477209 1498381487 1679970153 -199026477 824065270 -892099372 -800561886 2108397311 -1518800955 1506554428 -917788031 66135923 1836080190 -953161618 309651744 -575677175 -2018577608 -1126924951 1745872463 -2064124710
REM
CELL 1.54180   50.00000   50.00000   50.00000   90.00000   90.00000   90.00000
LATT -1
SFAC C  
C      1  0.4314660000000  0.4186860000000  0.5341690000000 1.0
C      1  0.5264830000000  0.4848560000000  0.6082660000000 1.0
C      1  0.4667040000000  0.5402930000000  0.4369720000000 1.0
C      1  0.4450400000000  0.4823750000000  0.4635690000000 1.0
C      1  0.4945840000000  0.5997810000000  0.4666050000000 1.0
C      1  0.4442430000000  0.6044160000000  0.5034700000000 1.0
C      1  0.4826850000000  0.4784240000000  0.3952170000000 1.0
C      1  0.5390250000000  0.4664730000000  0.5913550000000 1.0
C      1  0.4462740000000  0.4942040000000  0.5921370000000 1.0
C      1  0.5558250000000  0.4791020000000  0.5680530000000 1.0
C      1  0.5411810000000  0.5038770000000  0.4087520000000 1.0
C      1  0.3531920000000  0.4877060000000  0.5534490000000 1.0
C      1  0.4503110000000  0.4035700000000  0.5458940000000 1.0
C      1  0.4912970000000  0.6086080000000  0.4937360000000 1.0
C      1  0.5778980000000  0.4996050000000  0.5618720000000 1.0
C      1  0.5080360000000  0.5223890000000  0.5553830000000 1.0
C      1  0.5070010000000  0.4927120000000  0.5513690000000 1.0
C      1  0.3769500000000  0.4822480000000  0.5626470000000 1.0
C      1  0.5816570000000  0.5325910000000  0.4619170000000 1.0
C      1  0.5172450000000  0.5293040000000  0.5844660000000 1.0
C      1  0.3851780000000  0.5274330000000  0.4495520000000 1.0
C      1  0.5695170000000  0.4180490000000  0.5210530000000 1.0
C      1  0.5624740000000  0.5399600000000  0.5862330000000 1.0
C      1  0.4164100000000  0.5258870000000  0.5334670000000 1.0
C      1  0.5556920000000  0.4306810000000  0.5658070000000 1.0
C      1  0.4038270000000  0.4702670000000  0.4846020000000 1.0
C      1  0.3872520000000  0.4815600000000  0.4664830000000 1.0
C      1  0.4030930000000  0.4773420000000  0.5703430000000 1.0
C      1  0.5066180000000  0.4606200000000  0.3831420000000 1.0
C      1  0.4583100000000  0.5161810000000  0.4221570000000 1.0
C      1  0.5320070000000  0.4395130000000  0.5806520000000 1.0
C      1  0.5907670000000  0.4483260000000  0.4852990000000 1.0
C      1  0.5549390000000  0.4696210000000  0.4385050000000 1.0
C      1  0.5556840000000  0.5235550000000  0.6091160000000 1.0
C      1  0.4700230000000  0.6052940000000  0.5145510000000 1.0
C      1  0.4827490000000  0.5989530000000  0.5431320000000 1.0
C      1  0.5220010000000  0.4438240000000  0.4051630000000 1.0
C      1  0.4884400000000  0.4471260000000  0.5117830000000 1.0
C      1  0.4896080000000  0.4548710000000  0.4847680000000 1.0
C      1  0.5753540000000  0.5162650000000  0.4840140000000 1.0
C      1  0.5412000000000  0.4557890000000  0.5034630000000 1.0
C      1  0.5514530000000  0.5201730000000  0.4971410000000 1.0
C      1  0.4756970000000  0.5681880000000  0.4342090000000 1.0
C      1  0.5260750000000  0.5174150000000  0.4827340000000 1.0
C      1  0.5071900000000  0.3897210000000  0.4918390000000 1.0
C      1  0.5646520000000  0.6027500000000  0.5330480000000 1.0
C      1  0.5952400000000  0.4892810000000  0.5395340000000 1.0
C      1  0.4812550000000  0.5317260000000  0.5450710000000 1.0
C      1  0.5946280000000  0.4970930000000  0.4916140000000 1.0
C      1  0.4996690000000  0.5236010000000  0.4012220000000 1.0
C      1  0.5137210000000  0.5028820000000  0.4171530000000 1.0
C      1  0.5066670000000  0.5181810000000  0.5061500000000 1.0
C      1  0.4531820000000  0.5862330000000  0.4361730000000 1.0
C      1  0.5374370000000  0.5494070000000  0.4204140000000 1.0
C      1  0.5308970000000  0.5611750000000  0.5542360000000 1.0
C      1  0.4429480000000  0.5302030000000  0.4842160000000 1.0
C      1  0.4859370000000  0.3741890000000  0.5340650000000 1.0
C      1  0.5471020000000  0.4595250000000  0.4125150000000 1.0
C      1  0.5906430000000  0.5649490000000  0.4985150000000 1.0
C      1  0.4310210000000  0.5889660000000  0.4538830000000 1.0
C      1  0.5409520000000  0.6104880000000  0.5457710000000 1.0
C      1  0.5805050000000  0.5601660000000  0.4699160000000 1.0
C      1  0.5554360000000  0.5252280000000  0.4210050000000 1.0
C      1  0.4848270000000  0.4538820000000  0.5860120000000 1.0
C      1  0.4616900000000  0.5100280000000  0.5507210000000 1.0
C      1  0.5148730000000  0.6038050000000  0.5089180000000 1.0
C      1  0.4256820000000  0.4465100000000  0.5338900000000 1.0
C      1  0.5474760000000  0.5671160000000  0.5092380000000 1.0
C      1  0.4613150000000  0.5533100000000  0.5772280000000 1.0
C      1  0.5480120000000  0.4815050000000  0.3924460000000 1.0
C      1  0.4581210000000  0.4626570000000  0.3903230000000 1.0
C      1  0.4413020000000  0.4966170000000  0.4374990000000 1.0
C      1  0.4826460000000  0.5046170000000  0.4993450000000 1.0
C      1  0.5497800000000  0.5386250000000  0.5200940000000 1.0
C      1  0.5054620000000  0.4269700000000  0.5234960000000 1.0
C      1  0.4323490000000  0.4708520000000  0.4882120000000 1.0
C      1  0.5714320000000  0.4540110000000  0.5594580000000 1.0
C      1  0.5040350000000  0.4356080000000  0.5735330000000 1.0
C      1  0.4776870000000  0.3973110000000  0.5484540000000 1.0
C      1  0.5246200000000  0.5370190000000  0.5350350000000 1.0
C      1  0.5787100000000  0.4851430000000  0.4464170000000 1.0
C      1  0.4554050000000  0.5183600000000  0.5790720000000 1.0
C      1  0.5126640000000  0.6084410000000  0.5383030000000 1.0
C      1  0.5025920000000  0.3959200000000  0.4647840000000 1.0
C      1  0.4552540000000  0.5139680000000  0.5038020000000 1.0
C      1  0.5292500000000  0.5634460000000  0.4470040000000 1.0
C      1  0.4013500000000  0.5466950000000  0.4622040000000 1.0
C      1  0.5920130000000  0.4751910000000  0.4729520000000 1.0
C      1  0.5636980000000  0.4080810000000  0.4754030000000 1.0
C      1  0.4889480000000  0.4423500000000  0.4594340000000 1.0
C      1  0.4384710000000  0.4486810000000  0.5797080000000 1.0
C      1  0.5714480000000  0.5825210000000  0.5133000000000 1.0
C      1  0.5224940000000  0.4093140000000  0.5065360000000 1.0
C      1  0.5219100000000  0.5396980000000  0.4645640000000 1.0
C      1  0.4091990000000  0.5712460000000  0.4511810000000 1.0
C      1  0.4064220000000  0.5351850000000  0.5577430000000 1.0
C      1  0.4698960000000  0.4642490000000  0.5261130000000 1.0
C      1  0.4944360000000  0.3709940000000  0.5085730000000 1.0
C      1  0.4032110000000  0.5338310000000  0.5099410000000 1.0
C      1  0.5125970000000  0.4231790000000  0.4225950000000 1.0
C      1  0.4852020000000  0.4620110000000  0.4399140000000 1.0
C      1  0.3947470000000  0.5481300000000  0.5771400000000 1.0
C      1  0.5154280000000  0.5471810000000  0.4012910000000 1.0
C      1  0.5625210000000  0.4105680000000  0.5476640000000 1.0
C      1  0.4418450000000  0.5136460000000  0.5293960000000 1.0
C      1  0.6030220000000  0.5070290000000  0.5174640000000 1.0
C      1  0.4735600000000  0.5096930000000  0.3967480000000 1.0
C      1  0.3912730000000  0.5001640000000  0.4454850000000 1.0
C      1  0.4171620000000  0.4919840000000  0.5907330000000 1.0
C      1  0.5976250000000  0.5371770000000  0.5194490000000 1.0
C      1  0.5292040000000  0.4755390000000  0.3714770000000 1.0
C      1  0.5329640000000  0.4822240000000  0.5477770000000 1.0
C      1  0.4212650000000  0.4253010000000  0.3894570000000 1.0
C      1  0.5008510000000  0.4187330000000  0.4484560000000 1.0
C      1  0.5834500000000  0.4258610000000  0.4688540000000 1.0
C      1  0.4155250000000  0.5376580000000  0.4851550000000 1.0
C      1  0.4192320000000  0.4563330000000  0.5600150000000 1.0
C      1  0.5747590000000  0.5387310000000  0.5372640000000 1.0
C      1  0.5287260000000  0.5126210000000  0.6058240000000 1.0
C      1  0.4591200000000  0.4666500000000  0.5890450000000 1.0
C      1  0.5866840000000  0.4421990000000  0.5145530000000 1.0
C      1  0.4960130000000  0.4804500000000  0.4227870000000 1.0
C      1  0.5893830000000  0.4603580000000  0.5370110000000 1.0
C      1  0.4421460000000  0.4622390000000  0.5155230000000 1.0
C      1  0.5218430000000  0.5767870000000  0.5054400000000 1.0
C      1  0.4970110000000  0.4189810000000  0.5503440000000 1.0
C      1  0.5391530000000  0.4731790000000  0.5226970000000 1.0
C      1  0.5510890000000  0.4089860000000  0.5010080000000 1.0
C      1  0.5018140000000  0.5602710000000  0.5135410000000 1.0
C      1  0.5184770000000  0.4913270000000  0.4695030000000 1.0
C      1  0.4792380000000  0.5518590000000  0.5254200000000 1.0
C      1  0.5568370000000  0.5737130000000  0.4584730000000 1.0
C      1  0.5761990000000  0.5155020000000  0.4392800000000 1.0
C      1  0.5386030000000  0.4506130000000  0.4777390000000 1.0
C      1  0.5747830000000  0.5277740000000  0.5634610000000 1.0
C      1  0.5364400000000  0.5522650000000  0.5802560000000 1.0
C      1  0.4792360000000  0.4847090000000  0.5449220000000 1.0
C      1  0.4595560000000  0.5382490000000  0.4640600000000 1.0
C      1  0.4930500000000  0.4833600000000  0.4820640000000 1.0
C      1  0.4335790000000  0.6017390000000  0.4789600000000 1.0
C      1  0.4706540000000  0.5775980000000  0.5638270000000 1.0
C      1  0.5353480000000  0.4708000000000  0.4590300000000 1.0
C      1  0.4139550000000  0.4954010000000  0.4290930000000 1.0
C      1  0.5007690000000  0.5790400000000  0.4468780000000 1.0
C      1  0.4388370000000  0.4445500000000  0.3889820000000 1.0
END
