TITL C-599895-9959-619 410155.205418601 125000 -1202.57622447708 0 0 196 (C1) n - 1
REM
REM in /home/nfs/bkarasulu/CARBON/AIRSS/Generating-Clusters/TERSOFF/Only-C1/FIRE-HFTN
REM
REM
REM
REM
REM
REM ./C.cell (11c1c37f851c82e70ff6c80c92926a4b)
REM AIRSS Version 0.9.1 bugfix July 2018 build 013d7b7c2542+ Fri, 06 Jul 2018 19:26:36 +0100
REM compiler GCC version 9.2.1 20190827 (Red Hat 9.2.1-1)
REM options -cpp -mtune=generic -march=x86-64 -g -O0 -fpre-include=/usr/include/finclude/math-vector-fortran.h
REM seed 1428786076 297679867 1159819996 -1691538265 -686789771 265728255 1260826546 1592287134 -571944472 -587792277 1998540724 -1492107666 1033003290 -1280084219 1271987993 -1030655386 -938176260 -1530014591 -2013434307 -286366945 -1248268520 1856882352 -1984717471 -2033652152 285806960 -821388264 -2065796862 1572607043 1611152235 1482818619 -166342106 -821313950 1157018986
REM
CELL 1.54180   50.00000   50.00000   50.00000   90.00000   90.00000   90.00000
LATT -1
SFAC C  
C      1  0.4916700000000  0.4709600000000  0.4637010000000 1.0
C      1  0.4350500000000  0.4540630000000  0.5965940000000 1.0
C      1  0.6108370000000  0.5482480000000  0.4954610000000 1.0
C      1  0.4731600000000  0.5427050000000  0.3904100000000 1.0
C      1  0.3902530000000  0.4034030000000  0.5272460000000 1.0
C      1  0.4267860000000  0.4176340000000  0.5558940000000 1.0
C      1  0.5434890000000  0.6118600000000  0.5110210000000 1.0
C      1  0.5727520000000  0.5665950000000  0.4278030000000 1.0
C      1  0.3943350000000  0.4283820000000  0.4832840000000 1.0
C      1  0.4477150000000  0.5942860000000  0.4797300000000 1.0
C      1  0.4036780000000  0.4443610000000  0.4309610000000 1.0
C      1  0.5605410000000  0.4356640000000  0.5805640000000 1.0
C      1  0.4839950000000  0.4028970000000  0.5533530000000 1.0
C      1  0.5745590000000  0.5717850000000  0.5703230000000 1.0
C      1  0.5290790000000  0.5355350000000  0.4543870000000 1.0
C      1  0.4897830000000  0.4253820000000  0.5358170000000 1.0
C      1  0.5118000000000  0.4429580000000  0.5451510000000 1.0
C      1  0.4525490000000  0.3864590000000  0.5103290000000 1.0
C      1  0.5275610000000  0.5489710000000  0.5623720000000 1.0
C      1  0.6103940000000  0.5209830000000  0.5074430000000 1.0
C      1  0.5809330000000  0.6187840000000  0.4802880000000 1.0
C      1  0.3660550000000  0.4692850000000  0.4867470000000 1.0
C      1  0.4845160000000  0.5690510000000  0.3948990000000 1.0
C      1  0.4780790000000  0.5576670000000  0.6032100000000 1.0
C      1  0.3658290000000  0.5675380000000  0.5185180000000 1.0
C      1  0.5674400000000  0.5402970000000  0.4145350000000 1.0
C      1  0.4464240000000  0.4591720000000  0.5720550000000 1.0
C      1  0.4119840000000  0.5097650000000  0.6003430000000 1.0
C      1  0.5905960000000  0.4969060000000  0.5829070000000 1.0
C      1  0.5465160000000  0.5091360000000  0.5483970000000 1.0
C      1  0.5889870000000  0.4860060000000  0.4296700000000 1.0
C      1  0.5494280000000  0.6060110000000  0.5402810000000 1.0
C      1  0.4379340000000  0.4798810000000  0.6343740000000 1.0
C      1  0.6216830000000  0.4747830000000  0.5414960000000 1.0
C      1  0.4620850000000  0.5381600000000  0.4880810000000 1.0
C      1  0.4340290000000  0.5850030000000  0.4553350000000 1.0
C      1  0.4740880000000  0.5753100000000  0.5557160000000 1.0
C      1  0.4804580000000  0.4402680000000  0.3601210000000 1.0
C      1  0.4490710000000  0.5882720000000  0.4304100000000 1.0
C      1  0.4413510000000  0.4829780000000  0.4385490000000 1.0
C      1  0.5051200000000  0.4723160000000  0.5387280000000 1.0
C      1  0.6039160000000  0.5685030000000  0.5137000000000 1.0
C      1  0.5489890000000  0.4173510000000  0.4860630000000 1.0
C      1  0.4607170000000  0.5381840000000  0.4586260000000 1.0
C      1  0.5014610000000  0.3400510000000  0.5031000000000 1.0
C      1  0.4161340000000  0.4129190000000  0.4705700000000 1.0
C      1  0.5305450000000  0.5079480000000  0.6139740000000 1.0
C      1  0.5002820000000  0.5094660000000  0.3340760000000 1.0
C      1  0.4997660000000  0.3236580000000  0.5232810000000 1.0
C      1  0.5220880000000  0.5077690000000  0.4531330000000 1.0
C      1  0.5494430000000  0.5862360000000  0.4329320000000 1.0
C      1  0.4523870000000  0.5362610000000  0.4092200000000 1.0
C      1  0.5333550000000  0.4875480000000  0.5083030000000 1.0
C      1  0.4736700000000  0.5881900000000  0.4154670000000 1.0
C      1  0.4971700000000  0.6012940000000  0.4283290000000 1.0
C      1  0.4167790000000  0.5601360000000  0.5648130000000 1.0
C      1  0.4300010000000  0.6271780000000  0.6029520000000 1.0
C      1  0.5416760000000  0.5394530000000  0.4034170000000 1.0
C      1  0.4355310000000  0.5238530000000  0.5348890000000 1.0
C      1  0.3875320000000  0.5827010000000  0.5170660000000 1.0
C      1  0.5727990000000  0.5886060000000  0.5461030000000 1.0
C      1  0.5912070000000  0.5252110000000  0.5873680000000 1.0
C      1  0.4071240000000  0.4626250000000  0.5139380000000 1.0
C      1  0.5900740000000  0.5126520000000  0.5275220000000 1.0
C      1  0.4470400000000  0.4861210000000  0.4901620000000 1.0
C      1  0.4803530000000  0.4951130000000  0.5743630000000 1.0
C      1  0.5161230000000  0.5830090000000  0.4643950000000 1.0
C      1  0.5223620000000  0.4626370000000  0.4963290000000 1.0
C      1  0.6167760000000  0.4507810000000  0.4899170000000 1.0
C      1  0.5586920000000  0.5824110000000  0.5915470000000 1.0
C      1  0.5746720000000  0.4187130000000  0.4298320000000 1.0
C      1  0.4573510000000  0.4628880000000  0.3981310000000 1.0
C      1  0.5482200000000  0.4932330000000  0.4005330000000 1.0
C      1  0.5847940000000  0.4371340000000  0.4504520000000 1.0
C      1  0.5152420000000  0.5280070000000  0.6234230000000 1.0
C      1  0.4434210000000  0.5316920000000  0.4361050000000 1.0
C      1  0.4887260000000  0.5193140000000  0.3809440000000 1.0
C      1  0.5790190000000  0.4853750000000  0.5232380000000 1.0
C      1  0.5459900000000  0.4655800000000  0.4446230000000 1.0
C      1  0.6219580000000  0.4718820000000  0.5122790000000 1.0
C      1  0.4416590000000  0.4013760000000  0.4843510000000 1.0
C      1  0.4128760000000  0.5902140000000  0.5149090000000 1.0
C      1  0.5123290000000  0.5294530000000  0.5706540000000 1.0
C      1  0.5290520000000  0.5145330000000  0.4034930000000 1.0
C      1  0.5153040000000  0.6145240000000  0.5087030000000 1.0
C      1  0.4162780000000  0.5832090000000  0.5778460000000 1.0
C      1  0.4560200000000  0.4844690000000  0.5634730000000 1.0
C      1  0.5130340000000  0.5758030000000  0.3932510000000 1.0
C      1  0.6320150000000  0.4627640000000  0.4678000000000 1.0
C      1  0.4997740000000  0.5953660000000  0.5212220000000 1.0
C      1  0.3483470000000  0.5476420000000  0.5197380000000 1.0
C      1  0.5163880000000  0.5105840000000  0.4998360000000 1.0
C      1  0.6044850000000  0.4987900000000  0.4506840000000 1.0
C      1  0.5529720000000  0.5605250000000  0.5173150000000 1.0
C      1  0.5036580000000  0.4529500000000  0.3554750000000 1.0
C      1  0.4130470000000  0.4816480000000  0.5346270000000 1.0
C      1  0.5643290000000  0.4941760000000  0.4754970000000 1.0
C      1  0.5351030000000  0.4695460000000  0.3894450000000 1.0
C      1  0.4838490000000  0.5746820000000  0.5108170000000 1.0
C      1  0.5839380000000  0.5106280000000  0.4660300000000 1.0
C      1  0.4843130000000  0.5495840000000  0.4483970000000 1.0
C      1  0.4616020000000  0.4456440000000  0.3783350000000 1.0
C      1  0.4645000000000  0.4344280000000  0.6276590000000 1.0
C      1  0.4851420000000  0.3854850000000  0.4324870000000 1.0
C      1  0.5237140000000  0.5910610000000  0.4160790000000 1.0
C      1  0.5427180000000  0.4894940000000  0.4583270000000 1.0
C      1  0.5611460000000  0.4877730000000  0.5016730000000 1.0
C      1  0.4598240000000  0.5776530000000  0.5277250000000 1.0
C      1  0.4872810000000  0.5496000000000  0.4988060000000 1.0
C      1  0.3876930000000  0.4545500000000  0.4941330000000 1.0
C      1  0.6241160000000  0.4979980000000  0.4961280000000 1.0
C      1  0.5930060000000  0.4363970000000  0.4801380000000 1.0
C      1  0.5435020000000  0.5929760000000  0.4621500000000 1.0
C      1  0.3984230000000  0.4710810000000  0.4286300000000 1.0
C      1  0.5015740000000  0.5096530000000  0.4046110000000 1.0
C      1  0.4106910000000  0.5686120000000  0.4552550000000 1.0
C      1  0.5772980000000  0.5369510000000  0.4677940000000 1.0
C      1  0.5350940000000  0.4877550000000  0.5939390000000 1.0
C      1  0.4518370000000  0.4387270000000  0.5067520000000 1.0
C      1  0.6115360000000  0.4847580000000  0.5654040000000 1.0
C      1  0.5009880000000  0.5018600000000  0.3604990000000 1.0
C      1  0.4859710000000  0.4955490000000  0.4231640000000 1.0
C      1  0.4454070000000  0.3741230000000  0.5584330000000 1.0
C      1  0.5639930000000  0.4830440000000  0.5838360000000 1.0
C      1  0.4937970000000  0.3970060000000  0.4558590000000 1.0
C      1  0.4648940000000  0.4373740000000  0.5316590000000 1.0
C      1  0.3337230000000  0.5260820000000  0.5207600000000 1.0
C      1  0.5727050000000  0.4272180000000  0.4989210000000 1.0
C      1  0.4149440000000  0.4938420000000  0.4333920000000 1.0
C      1  0.5383660000000  0.3933090000000  0.4770980000000 1.0
C      1  0.5737540000000  0.5038150000000  0.4123910000000 1.0
C      1  0.5103340000000  0.5565440000000  0.4537090000000 1.0
C      1  0.4424500000000  0.5337530000000  0.5086860000000 1.0
C      1  0.5562560000000  0.6072230000000  0.4846680000000 1.0
C      1  0.5049460000000  0.3594510000000  0.4853500000000 1.0
C      1  0.5073810000000  0.4746790000000  0.5840120000000 1.0
C      1  0.5001580000000  0.5934340000000  0.5507000000000 1.0
C      1  0.4285530000000  0.3927150000000  0.5690040000000 1.0
C      1  0.5714140000000  0.5248920000000  0.5461210000000 1.0
C      1  0.4455500000000  0.4553090000000  0.6224430000000 1.0
C      1  0.4161430000000  0.5220890000000  0.4389110000000 1.0
C      1  0.4009770000000  0.5438540000000  0.4490800000000 1.0
C      1  0.5752760000000  0.4610660000000  0.5392420000000 1.0
C      1  0.5686100000000  0.4593990000000  0.5676280000000 1.0
C      1  0.5562920000000  0.4249390000000  0.4096810000000 1.0
C      1  0.5096590000000  0.4418960000000  0.5767630000000 1.0
C      1  0.5965680000000  0.5694080000000  0.4447240000000 1.0
C      1  0.5383410000000  0.4326550000000  0.5347150000000 1.0
C      1  0.4400260000000  0.5883950000000  0.5081200000000 1.0
C      1  0.5346680000000  0.4445960000000  0.4065590000000 1.0
C      1  0.4745210000000  0.4191770000000  0.6054080000000 1.0
C      1  0.4420060000000  0.4940530000000  0.5379280000000 1.0
C      1  0.4735260000000  0.5520140000000  0.5751220000000 1.0
C      1  0.4850930000000  0.4769540000000  0.5171280000000 1.0
C      1  0.4984750000000  0.4461270000000  0.4501470000000 1.0
C      1  0.4067080000000  0.5128450000000  0.5726860000000 1.0
C      1  0.5746850000000  0.4623080000000  0.4398620000000 1.0
C      1  0.4729260000000  0.6064770000000  0.4731660000000 1.0
C      1  0.5781570000000  0.5734280000000  0.5225130000000 1.0
C      1  0.6264220000000  0.4910500000000  0.4669970000000 1.0
C      1  0.5352700000000  0.4306140000000  0.5884660000000 1.0
C      1  0.5237790000000  0.4497110000000  0.4336670000000 1.0
C      1  0.4215230000000  0.6058230000000  0.5906450000000 1.0
C      1  0.4958180000000  0.6020580000000  0.4572780000000 1.0
C      1  0.4475620000000  0.4374370000000  0.5548350000000 1.0
C      1  0.4847180000000  0.5239690000000  0.5716810000000 1.0
C      1  0.5393470000000  0.5504410000000  0.4957680000000 1.0
C      1  0.4451140000000  0.4776100000000  0.4653740000000 1.0
C      1  0.5370980000000  0.5590350000000  0.5402280000000 1.0
C      1  0.5133770000000  0.5381330000000  0.4997410000000 1.0
C      1  0.4838890000000  0.4232210000000  0.4628590000000 1.0
C      1  0.5125510000000  0.3829560000000  0.4723100000000 1.0
C      1  0.4239200000000  0.4999250000000  0.6224300000000 1.0
C      1  0.5800780000000  0.5430330000000  0.5678380000000 1.0
C      1  0.5360540000000  0.5969260000000  0.5867540000000 1.0
C      1  0.4122440000000  0.4188170000000  0.5317140000000 1.0
C      1  0.5285620000000  0.4894310000000  0.5376540000000 1.0
C      1  0.4151360000000  0.4227880000000  0.4431690000000 1.0
C      1  0.5149430000000  0.4758940000000  0.3680580000000 1.0
C      1  0.4729210000000  0.4290190000000  0.6531060000000 1.0
C      1  0.5651030000000  0.4382700000000  0.5249750000000 1.0
C      1  0.4236200000000  0.4392370000000  0.5147090000000 1.0
C      1  0.5308580000000  0.4385560000000  0.4866580000000 1.0
C      1  0.5998140000000  0.5541180000000  0.4689010000000 1.0
C      1  0.5264370000000  0.6025350000000  0.5603750000000 1.0
C      1  0.3969450000000  0.4915010000000  0.5562130000000 1.0
C      1  0.4615780000000  0.4810770000000  0.4188640000000 1.0
C      1  0.4884140000000  0.4172260000000  0.5806810000000 1.0
C      1  0.4957450000000  0.5463790000000  0.6204600000000 1.0
C      1  0.4197170000000  0.5335990000000  0.5570680000000 1.0
C      1  0.4970810000000  0.4946210000000  0.4489860000000 1.0
C      1  0.5506830000000  0.5429760000000  0.4713320000000 1.0
C      1  0.4612210000000  0.4244350000000  0.4829280000000 1.0
C      1  0.4643770000000  0.3843140000000  0.5392980000000 1.0
C      1  0.4590540000000  0.4866020000000  0.5152610000000 1.0
C      1  0.4953510000000  0.4692920000000  0.4914250000000 1.0
END
