TITL C-599893-4344-1363 0.194727602748007 125000 -71.2771664832526 0 0 13 (Cs) n - 1
REM
REM in /home/nfs/bkarasulu/CARBON/AIRSS/Generating-Clusters/TERSOFF/Only-C1/FIRE-HFTN
REM
REM
REM
REM
REM
REM ./C.cell (11c1c37f851c82e70ff6c80c92926a4b)
REM AIRSS Version 0.9.1 bugfix July 2018 build 013d7b7c2542+ Fri, 06 Jul 2018 19:26:36 +0100
REM compiler GCC version 9.2.1 20190827 (Red Hat 9.2.1-1)
REM options -cpp -mtune=generic -march=x86-64 -g -O0 -fpre-include=/usr/include/finclude/math-vector-fortran.h
REM seed -472229250 366382014 -1060744863 559433924 -776333003 712215364 -1213682502 -1000270524 -1128031927 -1529875291 1168928624 294653395 -179486120 228760695 -922377281 -1478090147 1542336553 -413217393 -1057884707 -67912200 952038416 45309505 1831998992 -2008260017 -1198884648 1148755324 -706445801 2032854092 446541882 163447305 -932888301 -1850915342 483285902
REM
CELL 1.54180   50.00000   50.00000   50.00000   90.00000   90.00000   90.00000
LATT -1
SFAC C  
C      1  0.5019810000000  0.4607830000000  0.5128510000000 1.0
C      1  0.5152410000000  0.5658600000000  0.4947460000000 1.0
C      1  0.4953250000000  0.4089500000000  0.5216820000000 1.0
C      1  0.5119440000000  0.5385200000000  0.4995920000000 1.0
C      1  0.5086360000000  0.5126150000000  0.5040210000000 1.0
C      1  0.4986530000000  0.4348660000000  0.5172670000000 1.0
C      1  0.5346700000000  0.5799820000000  0.5078320000000 1.0
C      1  0.5053090000000  0.4866990000000  0.5084360000000 1.0
C      1  0.4984510000000  0.5786010000000  0.4763720000000 1.0
C      1  0.4824260000000  0.5904590000000  0.4589200000000 1.0
C      1  0.4919960000000  0.3830270000000  0.5260980000000 1.0
C      1  0.4666480000000  0.6021070000000  0.4417440000000 1.0
C      1  0.4887210000000  0.3575300000000  0.5304410000000 1.0
END
