TITL C-599896-8500-433 -30951.8584461001 125000 -612.843130968386 0 0 102 (C1) n - 1
REM
REM in /home/nfs/bkarasulu/CARBON/AIRSS/Generating-Clusters/TERSOFF/Only-C1/FIRE-HFTN
REM
REM
REM
REM
REM
REM ./C.cell (11c1c37f851c82e70ff6c80c92926a4b)
REM AIRSS Version 0.9.1 bugfix July 2018 build 013d7b7c2542+ Fri, 06 Jul 2018 19:26:36 +0100
REM compiler GCC version 9.2.1 20190827 (Red Hat 9.2.1-1)
REM options -cpp -mtune=generic -march=x86-64 -g -O0 -fpre-include=/usr/include/finclude/math-vector-fortran.h
REM seed 514468777 2121734458 1427021223 1323617268 724310591 -193070285 1388568646 -1833780039 -2126883436 837933075 -1506305679 477869422 -562921234 1602065754 1581893428 1851559365 1789110418 -165805879 -1330336582 1129519947 -1049840832 1269915914 -1747317778 1861022474 1364990624 -1178538340 59927118 321258970 1896083280 902046994 817675811 341397847 -1420929934
REM
CELL 1.54180   50.00000   50.00000   50.00000   90.00000   90.00000   90.00000
LATT -1
SFAC C  
C      1  0.5362950000000  0.5239640000000  0.4877020000000 1.0
C      1  0.4218390000000  0.5694870000000  0.4928270000000 1.0
C      1  0.4871430000000  0.4890690000000  0.4062610000000 1.0
C      1  0.4249080000000  0.4791600000000  0.4522830000000 1.0
C      1  0.5003990000000  0.4602140000000  0.4681450000000 1.0
C      1  0.5387310000000  0.4478380000000  0.5692410000000 1.0
C      1  0.5201410000000  0.4305600000000  0.5547860000000 1.0
C      1  0.4611640000000  0.4881560000000  0.4135080000000 1.0
C      1  0.5879310000000  0.4833730000000  0.5388650000000 1.0
C      1  0.4859410000000  0.6013200000000  0.4828140000000 1.0
C      1  0.5406830000000  0.4523940000000  0.4402420000000 1.0
C      1  0.4725430000000  0.5835920000000  0.5016290000000 1.0
C      1  0.6298120000000  0.5266280000000  0.6014470000000 1.0
C      1  0.4908230000000  0.4445580000000  0.4921650000000 1.0
C      1  0.4857050000000  0.4778760000000  0.5692390000000 1.0
C      1  0.4607210000000  0.4404180000000  0.4543380000000 1.0
C      1  0.5133370000000  0.4818870000000  0.4135470000000 1.0
C      1  0.4688280000000  0.4279270000000  0.4800910000000 1.0
C      1  0.5177760000000  0.4810030000000  0.4769650000000 1.0
C      1  0.4927880000000  0.5387190000000  0.4170540000000 1.0
C      1  0.4549110000000  0.5835940000000  0.5242020000000 1.0
C      1  0.5377260000000  0.4956090000000  0.4223020000000 1.0
C      1  0.5290440000000  0.4217700000000  0.5288410000000 1.0
C      1  0.4349830000000  0.4522800000000  0.4622760000000 1.0
C      1  0.6068470000000  0.5198910000000  0.5912110000000 1.0
C      1  0.5005910000000  0.4159100000000  0.4437320000000 1.0
C      1  0.5626460000000  0.5241220000000  0.4523800000000 1.0
C      1  0.5152280000000  0.5658890000000  0.4651060000000 1.0
C      1  0.4788460000000  0.4172050000000  0.5278520000000 1.0
C      1  0.5423010000000  0.5231430000000  0.4291950000000 1.0
C      1  0.4414440000000  0.4981630000000  0.4315240000000 1.0
C      1  0.4190040000000  0.4806110000000  0.5520430000000 1.0
C      1  0.4515020000000  0.4711500000000  0.5180340000000 1.0
C      1  0.4945270000000  0.5216140000000  0.4656020000000 1.0
C      1  0.5047290000000  0.4211380000000  0.5090060000000 1.0
C      1  0.4826700000000  0.4956230000000  0.4986320000000 1.0
C      1  0.5560560000000  0.5567010000000  0.5472170000000 1.0
C      1  0.4739390000000  0.5041190000000  0.4732520000000 1.0
C      1  0.5845120000000  0.5133710000000  0.5759290000000 1.0
C      1  0.4452800000000  0.5280400000000  0.4366470000000 1.0
C      1  0.4138220000000  0.4443090000000  0.5163190000000 1.0
C      1  0.4926060000000  0.5493240000000  0.4722310000000 1.0
C      1  0.5310420000000  0.5810790000000  0.4841350000000 1.0
C      1  0.4276810000000  0.5836650000000  0.5153640000000 1.0
C      1  0.5288520000000  0.4684460000000  0.5014430000000 1.0
C      1  0.5210310000000  0.5422650000000  0.4235960000000 1.0
C      1  0.4221930000000  0.5091600000000  0.5447660000000 1.0
C      1  0.5564940000000  0.5406180000000  0.4759700000000 1.0
C      1  0.3969180000000  0.5036370000000  0.4937080000000 1.0
C      1  0.5242740000000  0.5659530000000  0.4385350000000 1.0
C      1  0.5637650000000  0.5652880000000  0.5202580000000 1.0
C      1  0.5476590000000  0.5059880000000  0.5305150000000 1.0
C      1  0.4673400000000  0.5759920000000  0.4375500000000 1.0
C      1  0.5406400000000  0.5161790000000  0.5644470000000 1.0
C      1  0.5776450000000  0.4856320000000  0.4896800000000 1.0
C      1  0.4605000000000  0.5686800000000  0.5475300000000 1.0
C      1  0.4632800000000  0.5446220000000  0.5624410000000 1.0
C      1  0.4910300000000  0.4453230000000  0.4425250000000 1.0
C      1  0.4393900000000  0.4953320000000  0.5030720000000 1.0
C      1  0.4485390000000  0.5074820000000  0.5858740000000 1.0
C      1  0.5142680000000  0.6040290000000  0.4886960000000 1.0
C      1  0.5654250000000  0.5332610000000  0.5664080000000 1.0
C      1  0.5873470000000  0.4578310000000  0.4936470000000 1.0
C      1  0.5445750000000  0.4467360000000  0.4889110000000 1.0
C      1  0.5017040000000  0.4899850000000  0.5480190000000 1.0
C      1  0.4897030000000  0.5396160000000  0.5761280000000 1.0
C      1  0.5256050000000  0.5550260000000  0.5495770000000 1.0
C      1  0.5710760000000  0.4939750000000  0.5182990000000 1.0
C      1  0.5572460000000  0.4215110000000  0.5227390000000 1.0
C      1  0.4417630000000  0.5235050000000  0.5627820000000 1.0
C      1  0.5682600000000  0.4385130000000  0.5028000000000 1.0
C      1  0.4769430000000  0.5154090000000  0.5180070000000 1.0
C      1  0.4373770000000  0.5310610000000  0.4644420000000 1.0
C      1  0.4691390000000  0.5595690000000  0.4855200000000 1.0
C      1  0.5400840000000  0.4347830000000  0.4630010000000 1.0
C      1  0.4465400000000  0.5081580000000  0.4783040000000 1.0
C      1  0.5545990000000  0.4780630000000  0.4404540000000 1.0
C      1  0.5189450000000  0.5086100000000  0.4722670000000 1.0
C      1  0.5147030000000  0.4555950000000  0.4252190000000 1.0
C      1  0.4413710000000  0.5544750000000  0.4788700000000 1.0
C      1  0.4785850000000  0.4505110000000  0.5670670000000 1.0
C      1  0.4288600000000  0.4612000000000  0.5336470000000 1.0
C      1  0.5220820000000  0.4118610000000  0.4622670000000 1.0
C      1  0.4032000000000  0.4913250000000  0.4692090000000 1.0
C      1  0.4962300000000  0.5172560000000  0.5377890000000 1.0
C      1  0.4902200000000  0.4287390000000  0.5537260000000 1.0
C      1  0.4530130000000  0.4207430000000  0.5021640000000 1.0
C      1  0.4280640000000  0.4345960000000  0.4940680000000 1.0
C      1  0.5095100000000  0.4715710000000  0.5256100000000 1.0
C      1  0.5590020000000  0.4660490000000  0.5734950000000 1.0
C      1  0.4758750000000  0.5960490000000  0.4550520000000 1.0
C      1  0.4667310000000  0.5477440000000  0.4275090000000 1.0
C      1  0.5144820000000  0.5385700000000  0.5286830000000 1.0
C      1  0.5547210000000  0.5659010000000  0.4922360000000 1.0
C      1  0.5794490000000  0.4857830000000  0.5661350000000 1.0
C      1  0.5337130000000  0.5237780000000  0.5146360000000 1.0
C      1  0.4815110000000  0.4682070000000  0.5104350000000 1.0
C      1  0.5693110000000  0.4946860000000  0.4611860000000 1.0
C      1  0.5188810000000  0.5367010000000  0.5718830000000 1.0
C      1  0.4706330000000  0.4922640000000  0.5880240000000 1.0
C      1  0.4162940000000  0.5078500000000  0.5154180000000 1.0
C      1  0.5139670000000  0.4018460000000  0.4875800000000 1.0
END
