TITL C-599893-4344-552 8.44428272506814 125000 -820.624408886118 0 0 136 (C1) n - 1
REM
REM in /home/nfs/bkarasulu/CARBON/AIRSS/Generating-Clusters/TERSOFF/Only-C1/FIRE-HFTN
REM
REM
REM
REM
REM
REM ./C.cell (11c1c37f851c82e70ff6c80c92926a4b)
REM AIRSS Version 0.9.1 bugfix July 2018 build 013d7b7c2542+ Fri, 06 Jul 2018 19:26:36 +0100
REM compiler GCC version 9.2.1 20190827 (Red Hat 9.2.1-1)
REM options -cpp -mtune=generic -march=x86-64 -g -O0 -fpre-include=/usr/include/finclude/math-vector-fortran.h
REM seed 74038464 1369033379 -1081238017 -1761088047 98634763 1860660328 -1138414683 1876337554 -957590491 1700737305 210405131 820954227 -1725099165 -1612222024 314113385 -943566108 36325065 -186187560 317340758 1645838893 -372833304 615930326 1602315509 -459708286 1729983146 -48289796 -1959328559 1415471331 819693012 892607869 -1779749824 324226797 1833350424
REM
CELL 1.54180   50.00000   50.00000   50.00000   90.00000   90.00000   90.00000
LATT -1
SFAC C  
C      1  0.5372930000000  0.5640200000000  0.5773000000000 1.0
C      1  0.5349110000000  0.4378670000000  0.4481090000000 1.0
C      1  0.4658190000000  0.5151510000000  0.5368450000000 1.0
C      1  0.4962370000000  0.4858280000000  0.5489050000000 1.0
C      1  0.5384200000000  0.5023310000000  0.5121510000000 1.0
C      1  0.4306810000000  0.5143800000000  0.5785830000000 1.0
C      1  0.4648600000000  0.5835980000000  0.5562550000000 1.0
C      1  0.5656780000000  0.5737220000000  0.4489540000000 1.0
C      1  0.5623300000000  0.4838050000000  0.5153170000000 1.0
C      1  0.5020830000000  0.5110160000000  0.3887480000000 1.0
C      1  0.5192470000000  0.4466520000000  0.5439700000000 1.0
C      1  0.4685010000000  0.4049990000000  0.5236280000000 1.0
C      1  0.4229730000000  0.4672780000000  0.5023930000000 1.0
C      1  0.5229380000000  0.6352450000000  0.5399900000000 1.0
C      1  0.4300280000000  0.4001830000000  0.4412450000000 1.0
C      1  0.4363820000000  0.3684120000000  0.5031680000000 1.0
C      1  0.4794650000000  0.4701120000000  0.4080820000000 1.0
C      1  0.4951470000000  0.4234250000000  0.4300890000000 1.0
C      1  0.4255930000000  0.5503300000000  0.5400700000000 1.0
C      1  0.4422310000000  0.5710030000000  0.5492500000000 1.0
C      1  0.5935660000000  0.4176220000000  0.5311440000000 1.0
C      1  0.5595920000000  0.4557770000000  0.5175140000000 1.0
C      1  0.5592870000000  0.5468530000000  0.4109800000000 1.0
C      1  0.4275680000000  0.4840740000000  0.5250440000000 1.0
C      1  0.4816350000000  0.5509890000000  0.5103680000000 1.0
C      1  0.4933950000000  0.5847020000000  0.5562120000000 1.0
C      1  0.5603940000000  0.4037310000000  0.5829430000000 1.0
C      1  0.4516450000000  0.3828100000000  0.5195460000000 1.0
C      1  0.4710990000000  0.5518520000000  0.4637570000000 1.0
C      1  0.5299510000000  0.5077200000000  0.3943950000000 1.0
C      1  0.5350840000000  0.5927390000000  0.4824340000000 1.0
C      1  0.4629480000000  0.5506150000000  0.6012760000000 1.0
C      1  0.5737140000000  0.4828580000000  0.5667950000000 1.0
C      1  0.4784580000000  0.5051680000000  0.5604220000000 1.0
C      1  0.5872350000000  0.4839560000000  0.4624280000000 1.0
C      1  0.5485540000000  0.5304680000000  0.5186460000000 1.0
C      1  0.4428310000000  0.5323540000000  0.5973870000000 1.0
C      1  0.5178030000000  0.6148570000000  0.5224890000000 1.0
C      1  0.4785720000000  0.5332780000000  0.4442740000000 1.0
C      1  0.5175630000000  0.4498260000000  0.4929660000000 1.0
C      1  0.5796730000000  0.5290780000000  0.5543160000000 1.0
C      1  0.4120740000000  0.4708430000000  0.4503690000000 1.0
C      1  0.4883590000000  0.4864850000000  0.3857260000000 1.0
C      1  0.4469370000000  0.4695510000000  0.4099050000000 1.0
C      1  0.5137480000000  0.5040290000000  0.5324670000000 1.0
C      1  0.4418040000000  0.4252390000000  0.4420650000000 1.0
C      1  0.4807650000000  0.4722870000000  0.5998050000000 1.0
C      1  0.3940750000000  0.5170820000000  0.5396410000000 1.0
C      1  0.5863740000000  0.5547300000000  0.5428360000000 1.0
C      1  0.5380650000000  0.4539060000000  0.4712710000000 1.0
C      1  0.5148750000000  0.5452540000000  0.4728530000000 1.0
C      1  0.4633380000000  0.4212240000000  0.5470210000000 1.0
C      1  0.4228660000000  0.4759130000000  0.5513170000000 1.0
C      1  0.5439840000000  0.4244510000000  0.5800120000000 1.0
C      1  0.5326380000000  0.4465450000000  0.5187550000000 1.0
C      1  0.5924290000000  0.3676220000000  0.5869880000000 1.0
C      1  0.5932520000000  0.5203780000000  0.5004480000000 1.0
C      1  0.5407190000000  0.5158830000000  0.6022360000000 1.0
C      1  0.5176670000000  0.5619240000000  0.4273850000000 1.0
C      1  0.4468650000000  0.5042240000000  0.5185730000000 1.0
C      1  0.5126140000000  0.4194150000000  0.4535230000000 1.0
C      1  0.4903980000000  0.5222640000000  0.5192970000000 1.0
C      1  0.5517510000000  0.5288560000000  0.5473860000000 1.0
C      1  0.4371270000000  0.4849340000000  0.5745640000000 1.0
C      1  0.4322440000000  0.5532460000000  0.4891140000000 1.0
C      1  0.5073240000000  0.5682900000000  0.5755460000000 1.0
C      1  0.4889230000000  0.5491750000000  0.5887310000000 1.0
C      1  0.4568620000000  0.5350920000000  0.3983010000000 1.0
C      1  0.4234510000000  0.4822000000000  0.4244030000000 1.0
C      1  0.5067010000000  0.4793290000000  0.6038610000000 1.0
C      1  0.4197340000000  0.5095420000000  0.4178310000000 1.0
C      1  0.4752170000000  0.4570930000000  0.4516390000000 1.0
C      1  0.4910680000000  0.4578990000000  0.5435220000000 1.0
C      1  0.5619380000000  0.5844090000000  0.4750210000000 1.0
C      1  0.4333270000000  0.5342680000000  0.4155100000000 1.0
C      1  0.5061490000000  0.4442230000000  0.4118940000000 1.0
C      1  0.4957620000000  0.5439240000000  0.4235200000000 1.0
C      1  0.4874330000000  0.4101450000000  0.5022860000000 1.0
C      1  0.5612160000000  0.5726010000000  0.5589450000000 1.0
C      1  0.4695660000000  0.4310490000000  0.4389660000000 1.0
C      1  0.5435520000000  0.5421680000000  0.5959080000000 1.0
C      1  0.5044470000000  0.4225640000000  0.4827290000000 1.0
C      1  0.4259660000000  0.3662290000000  0.4787400000000 1.0
C      1  0.4579620000000  0.5051280000000  0.4918200000000 1.0
C      1  0.5675960000000  0.5216040000000  0.4224790000000 1.0
C      1  0.5828690000000  0.3895420000000  0.5739020000000 1.0
C      1  0.4748920000000  0.4598590000000  0.5113220000000 1.0
C      1  0.4526550000000  0.4637350000000  0.4686670000000 1.0
C      1  0.5047500000000  0.5910120000000  0.5310120000000 1.0
C      1  0.5755900000000  0.4710880000000  0.4414470000000 1.0
C      1  0.5015680000000  0.5707800000000  0.5117200000000 1.0
C      1  0.4301230000000  0.4482880000000  0.4547230000000 1.0
C      1  0.5883840000000  0.5559570000000  0.4485630000000 1.0
C      1  0.5718160000000  0.5667110000000  0.4967320000000 1.0
C      1  0.5910210000000  0.5507190000000  0.5122970000000 1.0
C      1  0.5245820000000  0.6400870000000  0.4810570000000 1.0
C      1  0.4246420000000  0.5554750000000  0.4334050000000 1.0
C      1  0.4172200000000  0.5457950000000  0.5119700000000 1.0
C      1  0.5867920000000  0.4984180000000  0.5206900000000 1.0
C      1  0.4879160000000  0.5062910000000  0.4930910000000 1.0
C      1  0.4859590000000  0.5329580000000  0.3988750000000 1.0
C      1  0.5325750000000  0.5027880000000  0.4833370000000 1.0
C      1  0.5098550000000  0.5177280000000  0.4766140000000 1.0
C      1  0.4952780000000  0.4704810000000  0.4968370000000 1.0
C      1  0.5839840000000  0.5278260000000  0.4468230000000 1.0
C      1  0.4688900000000  0.5056410000000  0.4453280000000 1.0
C      1  0.5228050000000  0.5665410000000  0.4920760000000 1.0
C      1  0.5339470000000  0.4518080000000  0.4220360000000 1.0
C      1  0.5896640000000  0.5115760000000  0.4705940000000 1.0
C      1  0.5130540000000  0.4886260000000  0.4403160000000 1.0
C      1  0.5809190000000  0.4379890000000  0.5196680000000 1.0
C      1  0.3975860000000  0.5234380000000  0.5110130000000 1.0
C      1  0.4847990000000  0.4814650000000  0.4356800000000 1.0
C      1  0.4523210000000  0.4944160000000  0.4665270000000 1.0
C      1  0.4065710000000  0.4801090000000  0.4797550000000 1.0
C      1  0.5483590000000  0.4731550000000  0.5771500000000 1.0
C      1  0.4689000000000  0.4463270000000  0.5599560000000 1.0
C      1  0.4153050000000  0.5278730000000  0.5570030000000 1.0
C      1  0.4598540000000  0.4659740000000  0.5808930000000 1.0
C      1  0.5546030000000  0.4729710000000  0.4215270000000 1.0
C      1  0.3947440000000  0.5049160000000  0.4893160000000 1.0
C      1  0.5362040000000  0.4483830000000  0.5675500000000 1.0
C      1  0.5878890000000  0.5020770000000  0.5500300000000 1.0
C      1  0.4220160000000  0.5530710000000  0.4620000000000 1.0
C      1  0.4892750000000  0.5224860000000  0.5792290000000 1.0
C      1  0.4610130000000  0.5542430000000  0.4899610000000 1.0
C      1  0.5469540000000  0.5540250000000  0.5047870000000 1.0
C      1  0.5275120000000  0.5182990000000  0.5551270000000 1.0
C      1  0.4502610000000  0.4567330000000  0.4973830000000 1.0
C      1  0.5948580000000  0.3993990000000  0.5505060000000 1.0
C      1  0.4238290000000  0.3782630000000  0.4550510000000 1.0
C      1  0.5460550000000  0.5656820000000  0.4282890000000 1.0
C      1  0.4183340000000  0.5797810000000  0.4221040000000 1.0
C      1  0.5260120000000  0.6165540000000  0.4948970000000 1.0
C      1  0.5327080000000  0.4889810000000  0.5962160000000 1.0
C      1  0.5517450000000  0.4997610000000  0.4113480000000 1.0
END
