TITL C-599890-3321-1400 0.683566872298341 125000 -960.37248662835 0 0 156 (C1) n - 1
REM
REM in /home/nfs/bkarasulu/CARBON/AIRSS/Generating-Clusters/TERSOFF/Only-C1/FIRE-HFTN
REM
REM
REM
REM
REM
REM ./C.cell (11c1c37f851c82e70ff6c80c92926a4b)
REM AIRSS Version 0.9.1 bugfix July 2018 build 013d7b7c2542+ Fri, 06 Jul 2018 19:26:36 +0100
REM compiler GCC version 9.2.1 20190827 (Red Hat 9.2.1-1)
REM options -cpp -mtune=generic -march=x86-64 -g -O0 -fpre-include=/usr/include/finclude/math-vector-fortran.h
REM seed 272053958 -1204580606 -54078432 -769553997 1870791288 -1885091488 1431170401 1358641889 2082222651 -1039311702 -1763799679 -1103970016 -1843674101 1116319557 -1076427939 -1059198360 -1981655359 -68537124 -604976451 -586236405 -1159683573 -1764307597 -307582576 -2005389301 1866141370 2036873148 -801648864 1449354059 -978461484 -21166725 109201463 -1684425676 1316954106
REM
CELL 1.54180   50.00000   50.00000   50.00000   90.00000   90.00000   90.00000
LATT -1
SFAC C  
C      1  0.4476190000000  0.4205480000000  0.4461180000000 1.0
C      1  0.5044370000000  0.5041610000000  0.4971400000000 1.0
C      1  0.4098110000000  0.5564120000000  0.4923250000000 1.0
C      1  0.6307110000000  0.5056570000000  0.4456370000000 1.0
C      1  0.4727910000000  0.5503260000000  0.4568880000000 1.0
C      1  0.4738980000000  0.4960290000000  0.6262720000000 1.0
C      1  0.3992300000000  0.4385000000000  0.5152740000000 1.0
C      1  0.5473410000000  0.5292850000000  0.5649330000000 1.0
C      1  0.4650830000000  0.4173890000000  0.4675990000000 1.0
C      1  0.3977860000000  0.5115970000000  0.5206850000000 1.0
C      1  0.6044380000000  0.5463140000000  0.5225080000000 1.0
C      1  0.4718850000000  0.5065470000000  0.5628820000000 1.0
C      1  0.4889670000000  0.4892260000000  0.5789610000000 1.0
C      1  0.5076570000000  0.4455490000000  0.4034470000000 1.0
C      1  0.4257990000000  0.5830540000000  0.5097650000000 1.0
C      1  0.4524280000000  0.4159950000000  0.5722900000000 1.0
C      1  0.5841840000000  0.4794520000000  0.5323910000000 1.0
C      1  0.5450540000000  0.5582810000000  0.4707350000000 1.0
C      1  0.5198220000000  0.5986350000000  0.4692020000000 1.0
C      1  0.5283070000000  0.5490110000000  0.5242710000000 1.0
C      1  0.5701270000000  0.5556130000000  0.4567660000000 1.0
C      1  0.4754630000000  0.6045830000000  0.4984410000000 1.0
C      1  0.5651920000000  0.5232110000000  0.4969210000000 1.0
C      1  0.4320450000000  0.4822820000000  0.5664830000000 1.0
C      1  0.4394400000000  0.5303640000000  0.4226680000000 1.0
C      1  0.5560760000000  0.3993930000000  0.5693390000000 1.0
C      1  0.4342860000000  0.5798850000000  0.5370250000000 1.0
C      1  0.5693080000000  0.4989980000000  0.4022020000000 1.0
C      1  0.5605370000000  0.5245560000000  0.4129520000000 1.0
C      1  0.5419830000000  0.5261050000000  0.5123250000000 1.0
C      1  0.5327760000000  0.5800090000000  0.4860020000000 1.0
C      1  0.5073950000000  0.5221720000000  0.4733450000000 1.0
C      1  0.4478390000000  0.4656220000000  0.5227820000000 1.0
C      1  0.5472510000000  0.3993670000000  0.5218210000000 1.0
C      1  0.3999190000000  0.4452680000000  0.4877160000000 1.0
C      1  0.4418830000000  0.4764810000000  0.4761010000000 1.0
C      1  0.3826920000000  0.5020240000000  0.4600310000000 1.0
C      1  0.4799730000000  0.3903240000000  0.5370000000000 1.0
C      1  0.5479840000000  0.4769410000000  0.3967780000000 1.0
C      1  0.5185350000000  0.5729650000000  0.5102050000000 1.0
C      1  0.6352250000000  0.5135730000000  0.4973300000000 1.0
C      1  0.4536490000000  0.5153710000000  0.6223280000000 1.0
C      1  0.5929380000000  0.5599880000000  0.4144160000000 1.0
C      1  0.4866030000000  0.6012460000000  0.4407200000000 1.0
C      1  0.4577020000000  0.5468120000000  0.5006550000000 1.0
C      1  0.5360690000000  0.6144400000000  0.5904800000000 1.0
C      1  0.5677760000000  0.5079040000000  0.4749530000000 1.0
C      1  0.5569120000000  0.6253550000000  0.6033080000000 1.0
C      1  0.4894910000000  0.4016620000000  0.4635470000000 1.0
C      1  0.5538650000000  0.5826550000000  0.5592620000000 1.0
C      1  0.4110710000000  0.4140030000000  0.5231020000000 1.0
C      1  0.4449390000000  0.4400740000000  0.5857230000000 1.0
C      1  0.5920620000000  0.5624400000000  0.4735940000000 1.0
C      1  0.4897970000000  0.4436580000000  0.5325990000000 1.0
C      1  0.3924160000000  0.4580700000000  0.5352890000000 1.0
C      1  0.6010770000000  0.6067640000000  0.5905020000000 1.0
C      1  0.4935060000000  0.5885920000000  0.5165770000000 1.0
C      1  0.3848200000000  0.4233670000000  0.4443010000000 1.0
C      1  0.5036750000000  0.5895490000000  0.5633010000000 1.0
C      1  0.4724620000000  0.5166140000000  0.5356370000000 1.0
C      1  0.5938930000000  0.4516790000000  0.4746440000000 1.0
C      1  0.4773980000000  0.5656800000000  0.4094080000000 1.0
C      1  0.5092090000000  0.4348610000000  0.5116850000000 1.0
C      1  0.5775290000000  0.4809110000000  0.5798620000000 1.0
C      1  0.4028540000000  0.4376080000000  0.4276220000000 1.0
C      1  0.5581790000000  0.4561080000000  0.4164970000000 1.0
C      1  0.5931580000000  0.4869720000000  0.4139540000000 1.0
C      1  0.4448950000000  0.6009070000000  0.4942070000000 1.0
C      1  0.5854250000000  0.4610360000000  0.4241750000000 1.0
C      1  0.4141190000000  0.4673510000000  0.4746540000000 1.0
C      1  0.4230810000000  0.4567040000000  0.5765290000000 1.0
C      1  0.5075240000000  0.5201690000000  0.4186260000000 1.0
C      1  0.5306280000000  0.5951330000000  0.5706290000000 1.0
C      1  0.4633240000000  0.4419740000000  0.5204010000000 1.0
C      1  0.4890500000000  0.6136580000000  0.4748200000000 1.0
C      1  0.4133360000000  0.5539370000000  0.4624750000000 1.0
C      1  0.5835920000000  0.6225010000000  0.6034150000000 1.0
C      1  0.5052600000000  0.4014610000000  0.5451980000000 1.0
C      1  0.4733650000000  0.5058570000000  0.3870810000000 1.0
C      1  0.5174670000000  0.4714140000000  0.3910900000000 1.0
C      1  0.5878920000000  0.5468840000000  0.5459830000000 1.0
C      1  0.4679500000000  0.4327290000000  0.4920470000000 1.0
C      1  0.4840760000000  0.5841490000000  0.5436000000000 1.0
C      1  0.3796080000000  0.5212450000000  0.4784390000000 1.0
C      1  0.5159090000000  0.4358220000000  0.4298070000000 1.0
C      1  0.5992490000000  0.5623000000000  0.4995680000000 1.0
C      1  0.5405480000000  0.4771470000000  0.5155540000000 1.0
C      1  0.5053790000000  0.4956420000000  0.4351810000000 1.0
C      1  0.4562970000000  0.4803450000000  0.5006390000000 1.0
C      1  0.5272700000000  0.5014840000000  0.5125360000000 1.0
C      1  0.5377760000000  0.4184030000000  0.5798510000000 1.0
C      1  0.4950380000000  0.4630520000000  0.4678010000000 1.0
C      1  0.5998950000000  0.5870440000000  0.5723860000000 1.0
C      1  0.5276800000000  0.5431200000000  0.5522480000000 1.0
C      1  0.6156700000000  0.4996740000000  0.4244270000000 1.0
C      1  0.4964360000000  0.5471940000000  0.4197760000000 1.0
C      1  0.5617780000000  0.3930400000000  0.5437190000000 1.0
C      1  0.4593960000000  0.5637050000000  0.4772050000000 1.0
C      1  0.5968380000000  0.4517330000000  0.4479730000000 1.0
C      1  0.4630140000000  0.5440200000000  0.5290270000000 1.0
C      1  0.5805920000000  0.5722550000000  0.5580870000000 1.0
C      1  0.5331070000000  0.5254250000000  0.4074380000000 1.0
C      1  0.5123590000000  0.4203110000000  0.5667280000000 1.0
C      1  0.6239010000000  0.5264250000000  0.5178980000000 1.0
C      1  0.4777720000000  0.4787990000000  0.6038770000000 1.0
C      1  0.4753420000000  0.5021560000000  0.5073920000000 1.0
C      1  0.4412300000000  0.5066240000000  0.4386980000000 1.0
C      1  0.4424700000000  0.5817210000000  0.4396510000000 1.0
C      1  0.4548580000000  0.3997200000000  0.5487580000000 1.0
C      1  0.5644070000000  0.4617340000000  0.5929850000000 1.0
C      1  0.4802680000000  0.5253690000000  0.4657250000000 1.0
C      1  0.4666930000000  0.5873480000000  0.4254340000000 1.0
C      1  0.4599020000000  0.5683950000000  0.5433790000000 1.0
C      1  0.3984370000000  0.4496370000000  0.5629250000000 1.0
C      1  0.5737520000000  0.5457530000000  0.4287860000000 1.0
C      1  0.5307570000000  0.4825400000000  0.4442080000000 1.0
C      1  0.5368220000000  0.4555260000000  0.4358120000000 1.0
C      1  0.5070410000000  0.4714270000000  0.5673790000000 1.0
C      1  0.4814330000000  0.3788360000000  0.5103880000000 1.0
C      1  0.5366920000000  0.4149120000000  0.4676340000000 1.0
C      1  0.4639290000000  0.4539170000000  0.6019330000000 1.0
C      1  0.5236890000000  0.5424620000000  0.4606680000000 1.0
C      1  0.4637350000000  0.5219920000000  0.4887530000000 1.0
C      1  0.5724320000000  0.4479960000000  0.4925900000000 1.0
C      1  0.4453270000000  0.5871040000000  0.4684730000000 1.0
C      1  0.5130970000000  0.4151140000000  0.4509220000000 1.0
C      1  0.4032790000000  0.4849910000000  0.5294160000000 1.0
C      1  0.5030880000000  0.4917860000000  0.6712800000000 1.0
C      1  0.4956290000000  0.4897810000000  0.3838020000000 1.0
C      1  0.5131110000000  0.5598680000000  0.4393860000000 1.0
C      1  0.4454560000000  0.5053010000000  0.5750680000000 1.0
C      1  0.5214660000000  0.4107300000000  0.5218470000000 1.0
C      1  0.4902930000000  0.3817930000000  0.4846420000000 1.0
C      1  0.4292090000000  0.4277370000000  0.4281410000000 1.0
C      1  0.5815410000000  0.4955210000000  0.5559760000000 1.0
C      1  0.3983760000000  0.4798390000000  0.4535060000000 1.0
C      1  0.4302150000000  0.4806900000000  0.5383880000000 1.0
C      1  0.6374040000000  0.5080910000000  0.4713210000000 1.0
C      1  0.3987720000000  0.4657370000000  0.4289000000000 1.0
C      1  0.4837110000000  0.4814830000000  0.4490210000000 1.0
C      1  0.4288290000000  0.5550250000000  0.4370160000000 1.0
C      1  0.3845850000000  0.4281650000000  0.4708660000000 1.0
C      1  0.4543490000000  0.5227100000000  0.3981560000000 1.0
C      1  0.5018880000000  0.4457340000000  0.5580590000000 1.0
C      1  0.3948910000000  0.5317150000000  0.5003970000000 1.0
C      1  0.5740650000000  0.5234280000000  0.5562750000000 1.0
C      1  0.4887790000000  0.4940300000000  0.6496150000000 1.0
C      1  0.5515830000000  0.4954850000000  0.4578250000000 1.0
C      1  0.4552540000000  0.4864010000000  0.4522750000000 1.0
C      1  0.5666800000000  0.4664320000000  0.5140450000000 1.0
C      1  0.5488090000000  0.4400860000000  0.5939050000000 1.0
C      1  0.5538650000000  0.4285210000000  0.4832800000000 1.0
C      1  0.4955970000000  0.4439270000000  0.4879520000000 1.0
C      1  0.4405450000000  0.5191190000000  0.5989950000000 1.0
C      1  0.4311860000000  0.3993880000000  0.5330620000000 1.0
C      1  0.5125080000000  0.5880660000000  0.4424740000000 1.0
END
