TITL C-599895-9959-740 496.637819976904 125000 -1112.07399175146 0 0 180 (C1) n - 1
REM
REM in /home/nfs/bkarasulu/CARBON/AIRSS/Generating-Clusters/TERSOFF/Only-C1/FIRE-HFTN
REM
REM
REM
REM
REM
REM ./C.cell (11c1c37f851c82e70ff6c80c92926a4b)
REM AIRSS Version 0.9.1 bugfix July 2018 build 013d7b7c2542+ Fri, 06 Jul 2018 19:26:36 +0100
REM compiler GCC version 9.2.1 20190827 (Red Hat 9.2.1-1)
REM options -cpp -mtune=generic -march=x86-64 -g -O0 -fpre-include=/usr/include/finclude/math-vector-fortran.h
REM seed -1220937727 -1736138236 83726822 760894564 1248430741 -1925693475 -2017234716 543105310 -1947658161 -189396925 -557424465 -2024317452 -1751653383 -1910262133 -177196919 542736488 -635752741 -2116839270 702205106 2125481035 1262248160 1887639272 164702565 -1456225696 -375990359 913808490 -43775638 -1942356540 201706213 743467803 695237467 -1014012592 -1489935503
REM
CELL 1.54180   50.00000   50.00000   50.00000   90.00000   90.00000   90.00000
LATT -1
SFAC C  
C      1  0.3684920000000  0.5524370000000  0.5042470000000 1.0
C      1  0.5199450000000  0.4917030000000  0.5652040000000 1.0
C      1  0.5071060000000  0.5343170000000  0.3867080000000 1.0
C      1  0.5406750000000  0.4469670000000  0.5970260000000 1.0
C      1  0.4761270000000  0.6018360000000  0.4838180000000 1.0
C      1  0.3766400000000  0.4788830000000  0.5652220000000 1.0
C      1  0.5596900000000  0.4306070000000  0.4270850000000 1.0
C      1  0.4822580000000  0.5245760000000  0.6163190000000 1.0
C      1  0.4913370000000  0.4320190000000  0.4776480000000 1.0
C      1  0.4300930000000  0.4939010000000  0.5366940000000 1.0
C      1  0.4200600000000  0.5657690000000  0.5553060000000 1.0
C      1  0.5674600000000  0.5267370000000  0.4781230000000 1.0
C      1  0.5747330000000  0.4843500000000  0.4300090000000 1.0
C      1  0.5323930000000  0.4233060000000  0.4150020000000 1.0
C      1  0.5172160000000  0.5500220000000  0.5337870000000 1.0
C      1  0.5438660000000  0.4957760000000  0.6221560000000 1.0
C      1  0.4652300000000  0.5917350000000  0.5593620000000 1.0
C      1  0.4259220000000  0.4364000000000  0.5084690000000 1.0
C      1  0.4222470000000  0.5183730000000  0.5752380000000 1.0
C      1  0.3889630000000  0.5625170000000  0.4875080000000 1.0
C      1  0.6112710000000  0.4367320000000  0.4697720000000 1.0
C      1  0.5695460000000  0.4998720000000  0.6152900000000 1.0
C      1  0.5280860000000  0.6090810000000  0.4722490000000 1.0
C      1  0.6056890000000  0.4562400000000  0.4909760000000 1.0
C      1  0.5240980000000  0.4465690000000  0.4001640000000 1.0
C      1  0.5597980000000  0.4724930000000  0.4753250000000 1.0
C      1  0.5632670000000  0.4355350000000  0.5515790000000 1.0
C      1  0.4047010000000  0.4709970000000  0.4431560000000 1.0
C      1  0.6034640000000  0.5621560000000  0.5271060000000 1.0
C      1  0.6038560000000  0.5507370000000  0.4682460000000 1.0
C      1  0.4948650000000  0.4996600000000  0.5778090000000 1.0
C      1  0.5468900000000  0.4631350000000  0.3948360000000 1.0
C      1  0.4825230000000  0.5227160000000  0.3835930000000 1.0
C      1  0.4164900000000  0.4999800000000  0.6218330000000 1.0
C      1  0.4587930000000  0.4137020000000  0.5950320000000 1.0
C      1  0.5349360000000  0.5090710000000  0.4347620000000 1.0
C      1  0.4516430000000  0.5886600000000  0.4738340000000 1.0
C      1  0.4893770000000  0.5430170000000  0.5305900000000 1.0
C      1  0.5188520000000  0.5023360000000  0.4784280000000 1.0
C      1  0.4770170000000  0.4634670000000  0.5199650000000 1.0
C      1  0.5203670000000  0.4540190000000  0.4493100000000 1.0
C      1  0.4880060000000  0.4900200000000  0.4432710000000 1.0
C      1  0.5501820000000  0.4175670000000  0.5333960000000 1.0
C      1  0.5453730000000  0.4480960000000  0.5694220000000 1.0
C      1  0.5890320000000  0.4766220000000  0.4805680000000 1.0
C      1  0.5109620000000  0.4040550000000  0.4177830000000 1.0
C      1  0.5063300000000  0.5119040000000  0.4354130000000 1.0
C      1  0.5272200000000  0.4647530000000  0.5551540000000 1.0
C      1  0.5672290000000  0.4591110000000  0.4162490000000 1.0
C      1  0.4290050000000  0.4501460000000  0.4842250000000 1.0
C      1  0.4101320000000  0.5006160000000  0.5945350000000 1.0
C      1  0.4533350000000  0.4659410000000  0.4760980000000 1.0
C      1  0.5689540000000  0.5838700000000  0.4973870000000 1.0
C      1  0.4801260000000  0.4353040000000  0.5251500000000 1.0
C      1  0.5166460000000  0.4578800000000  0.6080170000000 1.0
C      1  0.4192820000000  0.4365040000000  0.5605070000000 1.0
C      1  0.5200330000000  0.3784200000000  0.4250200000000 1.0
C      1  0.5914350000000  0.5370530000000  0.4428880000000 1.0
C      1  0.4741280000000  0.4809020000000  0.4949960000000 1.0
C      1  0.5325850000000  0.6152750000000  0.5003610000000 1.0
C      1  0.4439090000000  0.5748190000000  0.5704890000000 1.0
C      1  0.4675220000000  0.5603620000000  0.5250310000000 1.0
C      1  0.5913530000000  0.5040620000000  0.6000870000000 1.0
C      1  0.6034680000000  0.4946220000000  0.4640990000000 1.0
C      1  0.6025370000000  0.5138830000000  0.5758700000000 1.0
C      1  0.4099010000000  0.5786640000000  0.5312810000000 1.0
C      1  0.5244380000000  0.5578200000000  0.5062460000000 1.0
C      1  0.5475860000000  0.5973300000000  0.4521080000000 1.0
C      1  0.4441170000000  0.4158280000000  0.6172990000000 1.0
C      1  0.4431330000000  0.4907950000000  0.4614560000000 1.0
C      1  0.4651770000000  0.3912120000000  0.4306140000000 1.0
C      1  0.5290390000000  0.5456200000000  0.4013060000000 1.0
C      1  0.5010250000000  0.5539020000000  0.4611510000000 1.0
C      1  0.5537740000000  0.4958440000000  0.3527260000000 1.0
C      1  0.5017280000000  0.3486020000000  0.4727660000000 1.0
C      1  0.5540320000000  0.6012990000000  0.5417880000000 1.0
C      1  0.4955030000000  0.4628500000000  0.4358920000000 1.0
C      1  0.3753690000000  0.4922660000000  0.4786460000000 1.0
C      1  0.4900090000000  0.5272850000000  0.5057720000000 1.0
C      1  0.5177860000000  0.4856980000000  0.6167860000000 1.0
C      1  0.4357780000000  0.5734760000000  0.4920580000000 1.0
C      1  0.5896040000000  0.5414530000000  0.5381060000000 1.0
C      1  0.4702610000000  0.4969650000000  0.5632240000000 1.0
C      1  0.5347930000000  0.5048550000000  0.5006000000000 1.0
C      1  0.5922570000000  0.5752820000000  0.4813710000000 1.0
C      1  0.4958210000000  0.4544320000000  0.4067480000000 1.0
C      1  0.4769370000000  0.3560800000000  0.4658780000000 1.0
C      1  0.4228810000000  0.4818710000000  0.6404570000000 1.0
C      1  0.5081120000000  0.6174660000000  0.5156070000000 1.0
C      1  0.4345940000000  0.4318550000000  0.6363870000000 1.0
C      1  0.4950860000000  0.4885630000000  0.4731780000000 1.0
C      1  0.4284310000000  0.4562210000000  0.6452990000000 1.0
C      1  0.4868080000000  0.4707790000000  0.3836020000000 1.0
C      1  0.4782530000000  0.4283290000000  0.5808350000000 1.0
C      1  0.5919310000000  0.5390920000000  0.5668380000000 1.0
C      1  0.5154150000000  0.5983600000000  0.5731270000000 1.0
C      1  0.5003030000000  0.5804800000000  0.4494270000000 1.0
C      1  0.3923680000000  0.5239510000000  0.4491350000000 1.0
C      1  0.3722580000000  0.5282890000000  0.5186070000000 1.0
C      1  0.4843150000000  0.4200550000000  0.5020300000000 1.0
C      1  0.5396490000000  0.5116870000000  0.5589100000000 1.0
C      1  0.5562270000000  0.6045600000000  0.5134850000000 1.0
C      1  0.6207580000000  0.5346690000000  0.4860720000000 1.0
C      1  0.5278160000000  0.4636830000000  0.5262850000000 1.0
C      1  0.5235910000000  0.4899700000000  0.5199620000000 1.0
C      1  0.5536140000000  0.5765810000000  0.4311950000000 1.0
C      1  0.5536120000000  0.5484780000000  0.4713970000000 1.0
C      1  0.4123770000000  0.4527250000000  0.5808170000000 1.0
C      1  0.4934780000000  0.4456730000000  0.5973710000000 1.0
C      1  0.6245590000000  0.5048470000000  0.5307930000000 1.0
C      1  0.5269790000000  0.3537580000000  0.4651630000000 1.0
C      1  0.3923000000000  0.5477270000000  0.4628580000000 1.0
C      1  0.4823810000000  0.6051350000000  0.5120180000000 1.0
C      1  0.5641060000000  0.5016110000000  0.5462340000000 1.0
C      1  0.4597060000000  0.4790500000000  0.3873100000000 1.0
C      1  0.4700500000000  0.5879060000000  0.5315370000000 1.0
C      1  0.4684680000000  0.5095010000000  0.5034380000000 1.0
C      1  0.5333160000000  0.5404770000000  0.5554120000000 1.0
C      1  0.5474280000000  0.5613570000000  0.5695980000000 1.0
C      1  0.4081290000000  0.5393560000000  0.5605620000000 1.0
C      1  0.5610580000000  0.3860790000000  0.4476090000000 1.0
C      1  0.5848950000000  0.4800470000000  0.5472070000000 1.0
C      1  0.5514890000000  0.4882320000000  0.4491460000000 1.0
C      1  0.3897810000000  0.4953260000000  0.4534300000000 1.0
C      1  0.3697630000000  0.5052250000000  0.5018320000000 1.0
C      1  0.3828190000000  0.4776040000000  0.5388890000000 1.0
C      1  0.4634990000000  0.3721650000000  0.4492690000000 1.0
C      1  0.4452910000000  0.5245490000000  0.4972340000000 1.0
C      1  0.4748410000000  0.4776770000000  0.5435050000000 1.0
C      1  0.5400990000000  0.5884930000000  0.5632230000000 1.0
C      1  0.5474510000000  0.5655090000000  0.4925340000000 1.0
C      1  0.5935730000000  0.5065960000000  0.4398330000000 1.0
C      1  0.4761210000000  0.5508110000000  0.4228380000000 1.0
C      1  0.5726480000000  0.5545950000000  0.5804650000000 1.0
C      1  0.4511680000000  0.5611160000000  0.5944330000000 1.0
C      1  0.4816690000000  0.4097070000000  0.4171010000000 1.0
C      1  0.4466410000000  0.4571820000000  0.4044570000000 1.0
C      1  0.4311840000000  0.5115050000000  0.4770050000000 1.0
C      1  0.4805570000000  0.4269020000000  0.5524420000000 1.0
C      1  0.5789170000000  0.4209630000000  0.4971530000000 1.0
C      1  0.4732880000000  0.4464540000000  0.4615710000000 1.0
C      1  0.5182480000000  0.4418710000000  0.4747910000000 1.0
C      1  0.5308360000000  0.5729720000000  0.4120390000000 1.0
C      1  0.4429610000000  0.5056760000000  0.5597840000000 1.0
C      1  0.4338890000000  0.5375280000000  0.4220120000000 1.0
C      1  0.4478400000000  0.5130760000000  0.4176390000000 1.0
C      1  0.5521280000000  0.4236340000000  0.5056870000000 1.0
C      1  0.4096340000000  0.5765390000000  0.5022060000000 1.0
C      1  0.3861150000000  0.5313410000000  0.5435480000000 1.0
C      1  0.4974100000000  0.5032900000000  0.6059670000000 1.0
C      1  0.5678860000000  0.5493510000000  0.4302920000000 1.0
C      1  0.4485550000000  0.5518890000000  0.5050640000000 1.0
C      1  0.4085110000000  0.4518410000000  0.4645730000000 1.0
C      1  0.5043590000000  0.5457910000000  0.4879170000000 1.0
C      1  0.6090810000000  0.4957380000000  0.5534840000000 1.0
C      1  0.4595100000000  0.5071410000000  0.3924360000000 1.0
C      1  0.4705460000000  0.4355170000000  0.4083030000000 1.0
C      1  0.5713560000000  0.4125840000000  0.4470630000000 1.0
C      1  0.5881350000000  0.4192460000000  0.4691450000000 1.0
C      1  0.4885000000000  0.5995660000000  0.5736570000000 1.0
C      1  0.3976300000000  0.4767550000000  0.5841040000000 1.0
C      1  0.5605540000000  0.5155460000000  0.5020910000000 1.0
C      1  0.5939280000000  0.4419390000000  0.5130610000000 1.0
C      1  0.4470720000000  0.5815360000000  0.4465640000000 1.0
C      1  0.5378950000000  0.3704290000000  0.4453890000000 1.0
C      1  0.5503620000000  0.4797270000000  0.3729160000000 1.0
C      1  0.5000820000000  0.6018090000000  0.4672770000000 1.0
C      1  0.4946170000000  0.5373070000000  0.4392070000000 1.0
C      1  0.5073780000000  0.5848710000000  0.4222960000000 1.0
C      1  0.4226360000000  0.4311730000000  0.5344910000000 1.0
C      1  0.4498020000000  0.5601800000000  0.4284420000000 1.0
C      1  0.4656880000000  0.5447830000000  0.6100020000000 1.0
C      1  0.5389730000000  0.4485320000000  0.4949530000000 1.0
C      1  0.4221430000000  0.4642270000000  0.4197780000000 1.0
C      1  0.5473180000000  0.5305220000000  0.4191420000000 1.0
C      1  0.4590570000000  0.4978820000000  0.4392500000000 1.0
C      1  0.5836970000000  0.4523390000000  0.5386190000000 1.0
C      1  0.6269800000000  0.5187460000000  0.5073920000000 1.0
C      1  0.4069110000000  0.4834910000000  0.5281190000000 1.0
C      1  0.5728910000000  0.5210620000000  0.5265450000000 1.0
END
