TITL C-599893-4344-693 0.000165349149922401 125000 -813.299546146782 0 0 130 (C1) n - 1
REM
REM in /home/nfs/bkarasulu/CARBON/AIRSS/Generating-Clusters/TERSOFF/Only-C1/FIRE-HFTN
REM
REM
REM
REM
REM
REM ./C.cell (11c1c37f851c82e70ff6c80c92926a4b)
REM AIRSS Version 0.9.1 bugfix July 2018 build 013d7b7c2542+ Fri, 06 Jul 2018 19:26:36 +0100
REM compiler GCC version 9.2.1 20190827 (Red Hat 9.2.1-1)
REM options -cpp -mtune=generic -march=x86-64 -g -O0 -fpre-include=/usr/include/finclude/math-vector-fortran.h
REM seed -1372445794 -88996180 1027704425 143116870 -723275012 -1545829355 2613391 406164791 -558481917 903075452 1844760406 -1220064368 1468236134 465306567 -1268674228 -474980124 -1672845658 -962042855 -118970161 -241619632 -174072784 -860444030 -112808734 840365328 430975713 1726277227 -1558054726 -1878724503 -350640461 -875725109 1845246128 490407879 -627327800
REM
CELL 1.54180   50.00000   50.00000   50.00000   90.00000   90.00000   90.00000
LATT -1
SFAC C  
C      1  0.5820400000000  0.5078290000000  0.5652720000000 1.0
C      1  0.5476200000000  0.4806430000000  0.4693210000000 1.0
C      1  0.5034820000000  0.5162860000000  0.4451050000000 1.0
C      1  0.5482260000000  0.5052070000000  0.4818080000000 1.0
C      1  0.5892930000000  0.5323890000000  0.4642690000000 1.0
C      1  0.5093490000000  0.4253550000000  0.5644400000000 1.0
C      1  0.4371620000000  0.5402980000000  0.5483350000000 1.0
C      1  0.4922330000000  0.4060920000000  0.5118250000000 1.0
C      1  0.4946040000000  0.4412340000000  0.5457150000000 1.0
C      1  0.6011080000000  0.4684910000000  0.5134270000000 1.0
C      1  0.4813490000000  0.6010980000000  0.4596700000000 1.0
C      1  0.4414630000000  0.5370120000000  0.4671030000000 1.0
C      1  0.4912250000000  0.4959770000000  0.5926490000000 1.0
C      1  0.4549170000000  0.5895080000000  0.4574350000000 1.0
C      1  0.5663470000000  0.4451340000000  0.5380280000000 1.0
C      1  0.5352950000000  0.4166790000000  0.5568440000000 1.0
C      1  0.5043710000000  0.4676950000000  0.4568130000000 1.0
C      1  0.4240090000000  0.4709450000000  0.5207950000000 1.0
C      1  0.5207580000000  0.5040810000000  0.3696280000000 1.0
C      1  0.4317570000000  0.5246620000000  0.4236440000000 1.0
C      1  0.4756760000000  0.5517340000000  0.6138860000000 1.0
C      1  0.4231860000000  0.4986830000000  0.5274780000000 1.0
C      1  0.4900350000000  0.5215740000000  0.5812920000000 1.0
C      1  0.4849960000000  0.5709160000000  0.4258470000000 1.0
C      1  0.4376980000000  0.4527760000000  0.5391740000000 1.0
C      1  0.4754100000000  0.4072530000000  0.4550410000000 1.0
C      1  0.5454720000000  0.5899600000000  0.4759650000000 1.0
C      1  0.5363520000000  0.4114960000000  0.5277830000000 1.0
C      1  0.4102770000000  0.5796460000000  0.4765910000000 1.0
C      1  0.5452460000000  0.4997030000000  0.5353300000000 1.0
C      1  0.4913610000000  0.5531580000000  0.5071150000000 1.0
C      1  0.6068850000000  0.5053870000000  0.5760800000000 1.0
C      1  0.5180590000000  0.4286400000000  0.3901850000000 1.0
C      1  0.4653240000000  0.5922200000000  0.5206390000000 1.0
C      1  0.5680550000000  0.5695530000000  0.5385560000000 1.0
C      1  0.5049250000000  0.4673860000000  0.5410600000000 1.0
C      1  0.5431030000000  0.5184370000000  0.4240030000000 1.0
C      1  0.4970890000000  0.5256100000000  0.5085840000000 1.0
C      1  0.6059870000000  0.4703410000000  0.4871320000000 1.0
C      1  0.4298820000000  0.4684460000000  0.4684990000000 1.0
C      1  0.4880140000000  0.5074960000000  0.4898030000000 1.0
C      1  0.5409860000000  0.4965920000000  0.6012650000000 1.0
C      1  0.4783410000000  0.4260960000000  0.5269440000000 1.0
C      1  0.5937720000000  0.4788310000000  0.4629850000000 1.0
C      1  0.4380090000000  0.6287730000000  0.5128060000000 1.0
C      1  0.4778920000000  0.6161010000000  0.5328200000000 1.0
C      1  0.4414200000000  0.5163030000000  0.4854140000000 1.0
C      1  0.4166800000000  0.5539400000000  0.5344470000000 1.0
C      1  0.5585210000000  0.4746400000000  0.5978850000000 1.0
C      1  0.5000230000000  0.5150360000000  0.5347260000000 1.0
C      1  0.5434710000000  0.4309570000000  0.4022710000000 1.0
C      1  0.4351700000000  0.4311950000000  0.4996230000000 1.0
C      1  0.4174880000000  0.4815330000000  0.4464090000000 1.0
C      1  0.4730700000000  0.4326460000000  0.4426950000000 1.0
C      1  0.5251980000000  0.4644340000000  0.4764410000000 1.0
C      1  0.4988020000000  0.5491550000000  0.3786460000000 1.0
C      1  0.4987330000000  0.4138660000000  0.4060910000000 1.0
C      1  0.5027590000000  0.4548280000000  0.3502530000000 1.0
C      1  0.4772740000000  0.4315210000000  0.4146900000000 1.0
C      1  0.4354140000000  0.4823890000000  0.4012710000000 1.0
C      1  0.5379720000000  0.4444430000000  0.4929350000000 1.0
C      1  0.5198480000000  0.4000740000000  0.5073650000000 1.0
C      1  0.5576140000000  0.4347100000000  0.5638050000000 1.0
C      1  0.4339410000000  0.5037170000000  0.5795660000000 1.0
C      1  0.4733870000000  0.5656840000000  0.5251850000000 1.0
C      1  0.5456560000000  0.5244250000000  0.5929340000000 1.0
C      1  0.5639310000000  0.5296570000000  0.5710830000000 1.0
C      1  0.4844410000000  0.5278670000000  0.5546700000000 1.0
C      1  0.5093700000000  0.4884980000000  0.4373250000000 1.0
C      1  0.4577210000000  0.6367290000000  0.5304700000000 1.0
C      1  0.5323640000000  0.4001820000000  0.4807080000000 1.0
C      1  0.5088980000000  0.5277800000000  0.3663830000000 1.0
C      1  0.4504260000000  0.5417720000000  0.6127620000000 1.0
C      1  0.5477680000000  0.4242300000000  0.4749240000000 1.0
C      1  0.5175700000000  0.4926400000000  0.5381670000000 1.0
C      1  0.4783470000000  0.4595630000000  0.6196070000000 1.0
C      1  0.4257560000000  0.4967600000000  0.4233800000000 1.0
C      1  0.5397920000000  0.3955060000000  0.4345750000000 1.0
C      1  0.5226350000000  0.3889030000000  0.4565890000000 1.0
C      1  0.4646530000000  0.5472960000000  0.5458640000000 1.0
C      1  0.4631720000000  0.4980190000000  0.4822540000000 1.0
C      1  0.5314030000000  0.4924500000000  0.4170080000000 1.0
C      1  0.5002250000000  0.4473460000000  0.3763010000000 1.0
C      1  0.5518400000000  0.4212010000000  0.4276190000000 1.0
C      1  0.5051580000000  0.6209680000000  0.5304580000000 1.0
C      1  0.4352470000000  0.5233270000000  0.6001980000000 1.0
C      1  0.5015290000000  0.5866220000000  0.4445370000000 1.0
C      1  0.5613980000000  0.4503900000000  0.5866870000000 1.0
C      1  0.4508900000000  0.4318520000000  0.5239450000000 1.0
C      1  0.4493410000000  0.4204830000000  0.6421560000000 1.0
C      1  0.5711080000000  0.5460000000000  0.4816380000000 1.0
C      1  0.5293360000000  0.4881350000000  0.3894430000000 1.0
C      1  0.5584250000000  0.5444200000000  0.5464910000000 1.0
C      1  0.5505360000000  0.5265860000000  0.5248840000000 1.0
C      1  0.5688400000000  0.4650810000000  0.4565150000000 1.0
C      1  0.5262120000000  0.5436160000000  0.6016570000000 1.0
C      1  0.4762800000000  0.4507630000000  0.3928150000000 1.0
C      1  0.4779600000000  0.4569300000000  0.4571970000000 1.0
C      1  0.5706830000000  0.4904790000000  0.5456910000000 1.0
C      1  0.4698220000000  0.4774370000000  0.5984470000000 1.0
C      1  0.5659040000000  0.5733130000000  0.4876810000000 1.0
C      1  0.4432240000000  0.5443550000000  0.4402620000000 1.0
C      1  0.5482230000000  0.4366180000000  0.5180280000000 1.0
C      1  0.4391880000000  0.4574840000000  0.5664490000000 1.0
C      1  0.5248720000000  0.5328040000000  0.4390030000000 1.0
C      1  0.4945170000000  0.3881680000000  0.4547190000000 1.0
C      1  0.5821140000000  0.4677230000000  0.5340680000000 1.0
C      1  0.5733330000000  0.5803370000000  0.5144020000000 1.0
C      1  0.4356220000000  0.5918260000000  0.4779540000000 1.0
C      1  0.5278140000000  0.5845870000000  0.4544040000000 1.0
C      1  0.5552830000000  0.5275860000000  0.4968420000000 1.0
C      1  0.4304620000000  0.5122710000000  0.5525550000000 1.0
C      1  0.4637590000000  0.4394720000000  0.6316360000000 1.0
C      1  0.4081020000000  0.5423460000000  0.5099260000000 1.0
C      1  0.4459410000000  0.4782440000000  0.5838500000000 1.0
C      1  0.4919810000000  0.5633950000000  0.4000140000000 1.0
C      1  0.4549890000000  0.4682840000000  0.3901440000000 1.0
C      1  0.5602460000000  0.4363540000000  0.4511050000000 1.0
C      1  0.3986570000000  0.5592670000000  0.4897080000000 1.0
C      1  0.5147520000000  0.4885980000000  0.6081680000000 1.0
C      1  0.4434650000000  0.6020430000000  0.5030890000000 1.0
C      1  0.4581570000000  0.4735960000000  0.4689220000000 1.0
C      1  0.5056410000000  0.4672530000000  0.6253160000000 1.0
C      1  0.5961680000000  0.5069780000000  0.4571430000000 1.0
C      1  0.4980030000000  0.5424320000000  0.5992850000000 1.0
C      1  0.4212240000000  0.5169820000000  0.5052820000000 1.0
C      1  0.5256590000000  0.6214880000000  0.5134840000000 1.0
C      1  0.5383120000000  0.6122000000000  0.4919900000000 1.0
C      1  0.4223830000000  0.4571600000000  0.4938040000000 1.0
C      1  0.4578470000000  0.5684240000000  0.4366760000000 1.0
END
