TITL C-599893-4344-1128 175353.751134658 125000 -1061.41697919148 0 0 174 (C1) n - 1
REM
REM in /home/nfs/bkarasulu/CARBON/AIRSS/Generating-Clusters/TERSOFF/Only-C1/FIRE-HFTN
REM
REM
REM
REM
REM
REM ./C.cell (11c1c37f851c82e70ff6c80c92926a4b)
REM AIRSS Version 0.9.1 bugfix July 2018 build 013d7b7c2542+ Fri, 06 Jul 2018 19:26:36 +0100
REM compiler GCC version 9.2.1 20190827 (Red Hat 9.2.1-1)
REM options -cpp -mtune=generic -march=x86-64 -g -O0 -fpre-include=/usr/include/finclude/math-vector-fortran.h
REM seed 1754082424 -1703163086 -1387465262 -1855643606 -427544328 614274655 1516119134 -492013193 -186690594 1705353916 -452934185 332796371 2098563615 -1105079258 -1341641216 -211471509 1532680551 219562198 -1242235920 -177969289 -1509296180 1311627124 1966908013 395648164 1618710295 1026332988 -20791543 -1154390610 43942967 -69518393 -1830118255 1072377429 189711528
REM
CELL 1.54180   50.00000   50.00000   50.00000   90.00000   90.00000   90.00000
LATT -1
SFAC C  
C      1  0.4731250000000  0.4321520000000  0.3937290000000 1.0
C      1  0.5411150000000  0.4998720000000  0.3886150000000 1.0
C      1  0.6065600000000  0.4668820000000  0.4502280000000 1.0
C      1  0.4204610000000  0.5425030000000  0.5725920000000 1.0
C      1  0.6105100000000  0.4473100000000  0.4713390000000 1.0
C      1  0.4801220000000  0.5060220000000  0.6234940000000 1.0
C      1  0.4743730000000  0.4665810000000  0.5313810000000 1.0
C      1  0.4357620000000  0.5352800000000  0.6155350000000 1.0
C      1  0.4350940000000  0.5640480000000  0.6095860000000 1.0
C      1  0.5115910000000  0.4954290000000  0.4500920000000 1.0
C      1  0.4798100000000  0.4443830000000  0.5154050000000 1.0
C      1  0.5025050000000  0.4285140000000  0.5149950000000 1.0
C      1  0.3998800000000  0.4955220000000  0.4485210000000 1.0
C      1  0.5109220000000  0.5480600000000  0.5225600000000 1.0
C      1  0.4117550000000  0.4495980000000  0.4282760000000 1.0
C      1  0.5785890000000  0.4795520000000  0.5015750000000 1.0
C      1  0.5789870000000  0.5611120000000  0.5616850000000 1.0
C      1  0.5137970000000  0.4977070000000  0.3794190000000 1.0
C      1  0.5599240000000  0.4536380000000  0.5910630000000 1.0
C      1  0.5385980000000  0.5150230000000  0.6115740000000 1.0
C      1  0.5255110000000  0.5360320000000  0.4188160000000 1.0
C      1  0.4971760000000  0.4739370000000  0.3833760000000 1.0
C      1  0.4380400000000  0.4882730000000  0.6101270000000 1.0
C      1  0.4253190000000  0.7223960000000  0.5286870000000 1.0
C      1  0.5969480000000  0.4714520000000  0.5560470000000 1.0
C      1  0.5738850000000  0.5828170000000  0.5428290000000 1.0
C      1  0.4993110000000  0.4452430000000  0.3889470000000 1.0
C      1  0.5595580000000  0.4412770000000  0.5651080000000 1.0
C      1  0.5429670000000  0.4429720000000  0.4206640000000 1.0
C      1  0.4164300000000  0.7026040000000  0.5142260000000 1.0
C      1  0.5383880000000  0.4936320000000  0.4429000000000 1.0
C      1  0.4173320000000  0.4386900000000  0.4797380000000 1.0
C      1  0.3693660000000  0.4672550000000  0.5272570000000 1.0
C      1  0.4995950000000  0.5238540000000  0.3782640000000 1.0
C      1  0.4523600000000  0.5115190000000  0.6207270000000 1.0
C      1  0.4600820000000  0.4324530000000  0.5695000000000 1.0
C      1  0.5352130000000  0.3988830000000  0.5501560000000 1.0
C      1  0.3739580000000  0.4812790000000  0.5718540000000 1.0
C      1  0.4519990000000  0.4658490000000  0.6010540000000 1.0
C      1  0.4891090000000  0.5470600000000  0.3888460000000 1.0
C      1  0.6372470000000  0.4692680000000  0.5079510000000 1.0
C      1  0.5647980000000  0.5537420000000  0.5852660000000 1.0
C      1  0.6332870000000  0.4857960000000  0.5287500000000 1.0
C      1  0.4656630000000  0.4581130000000  0.4728420000000 1.0
C      1  0.5089930000000  0.6273860000000  0.5091460000000 1.0
C      1  0.4234460000000  0.5700520000000  0.5831210000000 1.0
C      1  0.4519110000000  0.4823240000000  0.4767140000000 1.0
C      1  0.5610560000000  0.3895000000000  0.5424820000000 1.0
C      1  0.5268560000000  0.4827220000000  0.5405210000000 1.0
C      1  0.5529200000000  0.5358290000000  0.6017410000000 1.0
C      1  0.5839530000000  0.5813310000000  0.4705570000000 1.0
C      1  0.5647620000000  0.5518670000000  0.4369730000000 1.0
C      1  0.6244040000000  0.4224830000000  0.5109700000000 1.0
C      1  0.5041080000000  0.4178990000000  0.4264350000000 1.0
C      1  0.3567100000000  0.4776210000000  0.5500360000000 1.0
C      1  0.5283820000000  0.6156010000000  0.4539050000000 1.0
C      1  0.5410620000000  0.3992070000000  0.4858340000000 1.0
C      1  0.3994270000000  0.4745260000000  0.4296280000000 1.0
C      1  0.4234990000000  0.5399570000000  0.4256920000000 1.0
C      1  0.6217460000000  0.4908130000000  0.4499340000000 1.0
C      1  0.5929290000000  0.5393860000000  0.5490870000000 1.0
C      1  0.4426910000000  0.5029510000000  0.4908270000000 1.0
C      1  0.4799400000000  0.5976210000000  0.4801720000000 1.0
C      1  0.3969610000000  0.4847340000000  0.4749980000000 1.0
C      1  0.5012960000000  0.4003230000000  0.5151210000000 1.0
C      1  0.5132190000000  0.5200820000000  0.5682140000000 1.0
C      1  0.4010520000000  0.4784020000000  0.5780530000000 1.0
C      1  0.4469780000000  0.5086620000000  0.5477920000000 1.0
C      1  0.6204970000000  0.5174580000000  0.4526730000000 1.0
C      1  0.4937000000000  0.6217040000000  0.4860350000000 1.0
C      1  0.5411740000000  0.3749070000000  0.4763200000000 1.0
C      1  0.5260760000000  0.4890820000000  0.6121490000000 1.0
C      1  0.5099060000000  0.3888070000000  0.5399480000000 1.0
C      1  0.5081080000000  0.5017740000000  0.4770800000000 1.0
C      1  0.4076870000000  0.5214800000000  0.4386780000000 1.0
C      1  0.5867460000000  0.4073320000000  0.4569380000000 1.0
C      1  0.4401740000000  0.4501140000000  0.5800980000000 1.0
C      1  0.4101250000000  0.6558630000000  0.4909530000000 1.0
C      1  0.4224990000000  0.4342260000000  0.4511740000000 1.0
C      1  0.5572230000000  0.5314190000000  0.5122750000000 1.0
C      1  0.4260050000000  0.4420820000000  0.4046290000000 1.0
C      1  0.5062650000000  0.6328110000000  0.4626540000000 1.0
C      1  0.4623780000000  0.4400920000000  0.4940210000000 1.0
C      1  0.6276300000000  0.4462450000000  0.4948270000000 1.0
C      1  0.4728110000000  0.3870810000000  0.4722200000000 1.0
C      1  0.4937760000000  0.5222400000000  0.4878640000000 1.0
C      1  0.5691400000000  0.4951720000000  0.4800230000000 1.0
C      1  0.5694660000000  0.5974430000000  0.4884790000000 1.0
C      1  0.4351100000000  0.5947010000000  0.5144510000000 1.0
C      1  0.4338330000000  0.6083440000000  0.4886310000000 1.0
C      1  0.4430320000000  0.5345780000000  0.5571210000000 1.0
C      1  0.4896130000000  0.5717670000000  0.4704330000000 1.0
C      1  0.4993110000000  0.6305240000000  0.5342710000000 1.0
C      1  0.5700040000000  0.5368680000000  0.4124960000000 1.0
C      1  0.3946010000000  0.4585870000000  0.5185040000000 1.0
C      1  0.5821780000000  0.5354150000000  0.5236890000000 1.0
C      1  0.4878810000000  0.5397000000000  0.5089170000000 1.0
C      1  0.4143790000000  0.4962770000000  0.5954870000000 1.0
C      1  0.5885530000000  0.3897870000000  0.4377430000000 1.0
C      1  0.4452370000000  0.4184760000000  0.4386170000000 1.0
C      1  0.4455800000000  0.5443120000000  0.4684470000000 1.0
C      1  0.4617940000000  0.3890890000000  0.5503840000000 1.0
C      1  0.4861600000000  0.4397600000000  0.5818740000000 1.0
C      1  0.5724830000000  0.5928100000000  0.5172940000000 1.0
C      1  0.4691680000000  0.5548700000000  0.4613480000000 1.0
C      1  0.5352370000000  0.5519750000000  0.4405210000000 1.0
C      1  0.5140780000000  0.5936790000000  0.4386440000000 1.0
C      1  0.4437500000000  0.5305930000000  0.4929740000000 1.0
C      1  0.6088240000000  0.4049230000000  0.5244200000000 1.0
C      1  0.5271780000000  0.4408120000000  0.5104500000000 1.0
C      1  0.5336540000000  0.5692190000000  0.4836830000000 1.0
C      1  0.4209670000000  0.5914160000000  0.5648920000000 1.0
C      1  0.5363110000000  0.6289200000000  0.5015390000000 1.0
C      1  0.4538220000000  0.6029750000000  0.4684390000000 1.0
C      1  0.5463980000000  0.5242140000000  0.4021300000000 1.0
C      1  0.4603350000000  0.5460260000000  0.5108820000000 1.0
C      1  0.5211110000000  0.4846570000000  0.4940940000000 1.0
C      1  0.5801140000000  0.4696840000000  0.4379890000000 1.0
C      1  0.5648800000000  0.4603070000000  0.4146630000000 1.0
C      1  0.4584250000000  0.3979960000000  0.4525450000000 1.0
C      1  0.4970170000000  0.4847290000000  0.6131470000000 1.0
C      1  0.5477290000000  0.6146350000000  0.4786030000000 1.0
C      1  0.6151580000000  0.4920620000000  0.5495390000000 1.0
C      1  0.5773840000000  0.4537480000000  0.5450090000000 1.0
C      1  0.4870600000000  0.3794590000000  0.5539780000000 1.0
C      1  0.4514020000000  0.5718880000000  0.5159630000000 1.0
C      1  0.5770540000000  0.4549430000000  0.5157220000000 1.0
C      1  0.4317550000000  0.4270860000000  0.5286900000000 1.0
C      1  0.4813510000000  0.4623030000000  0.6017610000000 1.0
C      1  0.6098070000000  0.5186450000000  0.5577580000000 1.0
C      1  0.4504160000000  0.4276290000000  0.4104460000000 1.0
C      1  0.5861210000000  0.5587140000000  0.4541680000000 1.0
C      1  0.5333480000000  0.5313020000000  0.5272740000000 1.0
C      1  0.5462540000000  0.4239870000000  0.4977280000000 1.0
C      1  0.5052220000000  0.4351030000000  0.4499220000000 1.0
C      1  0.4367350000000  0.4296780000000  0.4998270000000 1.0
C      1  0.4173550000000  0.6307920000000  0.4861270000000 1.0
C      1  0.5170140000000  0.4672340000000  0.5611610000000 1.0
C      1  0.3301650000000  0.4835610000000  0.5508950000000 1.0
C      1  0.5350580000000  0.4248300000000  0.5624650000000 1.0
C      1  0.5865710000000  0.3933900000000  0.5344840000000 1.0
C      1  0.5633620000000  0.4867250000000  0.4537770000000 1.0
C      1  0.5888800000000  0.4287410000000  0.4746040000000 1.0
C      1  0.4878410000000  0.3871230000000  0.4943050000000 1.0
C      1  0.5332730000000  0.4425540000000  0.4485140000000 1.0
C      1  0.4616570000000  0.4876530000000  0.5411260000000 1.0
C      1  0.5723850000000  0.4334820000000  0.4974520000000 1.0
C      1  0.5441620000000  0.4676920000000  0.6077000000000 1.0
C      1  0.5586800000000  0.5201140000000  0.4870460000000 1.0
C      1  0.5591670000000  0.4784620000000  0.3933460000000 1.0
C      1  0.4505080000000  0.4150400000000  0.5485860000000 1.0
C      1  0.4820490000000  0.5866120000000  0.4249560000000 1.0
C      1  0.5175830000000  0.5693860000000  0.4580920000000 1.0
C      1  0.4626690000000  0.5170200000000  0.4256630000000 1.0
C      1  0.4011110000000  0.4606550000000  0.4902670000000 1.0
C      1  0.4104530000000  0.6804100000000  0.5009920000000 1.0
C      1  0.4722630000000  0.4822830000000  0.3948520000000 1.0
C      1  0.4734350000000  0.5609110000000  0.4095180000000 1.0
C      1  0.4905950000000  0.4801620000000  0.4392210000000 1.0
C      1  0.5272610000000  0.5106510000000  0.5457210000000 1.0
C      1  0.5280570000000  0.4690720000000  0.5155390000000 1.0
C      1  0.5115460000000  0.4406850000000  0.5689370000000 1.0
C      1  0.5021410000000  0.5375370000000  0.5841530000000 1.0
C      1  0.4646280000000  0.5515630000000  0.5585520000000 1.0
C      1  0.4857780000000  0.4557030000000  0.4533170000000 1.0
C      1  0.4595360000000  0.5999850000000  0.4396130000000 1.0
C      1  0.4167430000000  0.4576920000000  0.5654650000000 1.0
C      1  0.4230790000000  0.6008250000000  0.5395450000000 1.0
C      1  0.4517880000000  0.5425930000000  0.4193630000000 1.0
C      1  0.5196840000000  0.4325780000000  0.4051220000000 1.0
C      1  0.6081110000000  0.5410280000000  0.4553150000000 1.0
C      1  0.4129640000000  0.4474070000000  0.5384170000000 1.0
C      1  0.4154650000000  0.5247060000000  0.5949690000000 1.0
C      1  0.4724660000000  0.4917740000000  0.4211340000000 1.0
END
