TITL C-599895-9959-204 -10.5168653928528 125000 -1018.77841321433 0 0 167 (C1) n - 1
REM
REM in /home/nfs/bkarasulu/CARBON/AIRSS/Generating-Clusters/TERSOFF/Only-C1/FIRE-HFTN
REM
REM
REM
REM
REM
REM ./C.cell (11c1c37f851c82e70ff6c80c92926a4b)
REM AIRSS Version 0.9.1 bugfix July 2018 build 013d7b7c2542+ Fri, 06 Jul 2018 19:26:36 +0100
REM compiler GCC version 9.2.1 20190827 (Red Hat 9.2.1-1)
REM options -cpp -mtune=generic -march=x86-64 -g -O0 -fpre-include=/usr/include/finclude/math-vector-fortran.h
REM seed -511474073 728733782 -49941870 138792458 774267622 1858425450 -588316314 1725528341 -848040904 811912077 -1976747884 566912372 -860209206 -1118075369 88774618 -2066380448 -1296254959 173633442 -971626890 -932089662 1443108043 1996999273 -798365201 1567102265 1586534581 -1601343720 219228093 1991148638 1320102808 -1290165982 686364723 -1955048296 848676294
REM
CELL 1.54180   50.00000   50.00000   50.00000   90.00000   90.00000   90.00000
LATT -1
SFAC C  
C      1  0.5521950000000  0.4020560000000  0.4973350000000 1.0
C      1  0.5154080000000  0.3754740000000  0.5043870000000 1.0
C      1  0.5082180000000  0.5186920000000  0.3963410000000 1.0
C      1  0.4761980000000  0.5277350000000  0.4399580000000 1.0
C      1  0.4938460000000  0.3782420000000  0.5235660000000 1.0
C      1  0.3997540000000  0.5161490000000  0.5493500000000 1.0
C      1  0.4920090000000  0.4461080000000  0.4897170000000 1.0
C      1  0.4053140000000  0.4668350000000  0.5439180000000 1.0
C      1  0.4703630000000  0.5834270000000  0.5530130000000 1.0
C      1  0.6159850000000  0.4592670000000  0.4704550000000 1.0
C      1  0.4439010000000  0.4865040000000  0.4629450000000 1.0
C      1  0.5404680000000  0.3561460000000  0.5619290000000 1.0
C      1  0.3798730000000  0.5053180000000  0.4590560000000 1.0
C      1  0.5422100000000  0.3791610000000  0.5111800000000 1.0
C      1  0.6281590000000  0.5310760000000  0.4769340000000 1.0
C      1  0.5848310000000  0.3697450000000  0.4982540000000 1.0
C      1  0.5174930000000  0.6222040000000  0.5516550000000 1.0
C      1  0.4399730000000  0.3841120000000  0.5039810000000 1.0
C      1  0.5385860000000  0.5640800000000  0.4825520000000 1.0
C      1  0.5525430000000  0.4680250000000  0.4547410000000 1.0
C      1  0.4795970000000  0.5906810000000  0.5258460000000 1.0
C      1  0.5135010000000  0.5228430000000  0.5408300000000 1.0
C      1  0.4920590000000  0.4067270000000  0.5880120000000 1.0
C      1  0.4793680000000  0.5241870000000  0.5063500000000 1.0
C      1  0.5390360000000  0.5917830000000  0.5884760000000 1.0
C      1  0.5457890000000  0.5629620000000  0.5908200000000 1.0
C      1  0.4984880000000  0.5149060000000  0.5633580000000 1.0
C      1  0.4406250000000  0.5816890000000  0.4754320000000 1.0
C      1  0.4135100000000  0.4306540000000  0.4476570000000 1.0
C      1  0.4713910000000  0.4662070000000  0.4065230000000 1.0
C      1  0.5494550000000  0.5162560000000  0.4288760000000 1.0
C      1  0.5415330000000  0.4822930000000  0.5011910000000 1.0
C      1  0.3898140000000  0.4898850000000  0.5524200000000 1.0
C      1  0.6696140000000  0.4940810000000  0.4297300000000 1.0
C      1  0.5080080000000  0.3928760000000  0.4814960000000 1.0
C      1  0.5231610000000  0.5421140000000  0.3929700000000 1.0
C      1  0.5089300000000  0.4913020000000  0.3860960000000 1.0
C      1  0.5873970000000  0.5198610000000  0.5006590000000 1.0
C      1  0.4642410000000  0.4794390000000  0.5425360000000 1.0
C      1  0.6110360000000  0.4860850000000  0.4730960000000 1.0
C      1  0.4037800000000  0.5180200000000  0.4163380000000 1.0
C      1  0.4858390000000  0.4898810000000  0.4740590000000 1.0
C      1  0.5676390000000  0.5377490000000  0.5124860000000 1.0
C      1  0.5153340000000  0.6027810000000  0.5729330000000 1.0
C      1  0.4533400000000  0.5942310000000  0.4493190000000 1.0
C      1  0.5055430000000  0.4905110000000  0.4327690000000 1.0
C      1  0.6184910000000  0.5492460000000  0.5236180000000 1.0
C      1  0.4462620000000  0.4992940000000  0.5511880000000 1.0
C      1  0.4723980000000  0.6148160000000  0.4602710000000 1.0
C      1  0.5864390000000  0.4953050000000  0.4849360000000 1.0
C      1  0.4653530000000  0.6078320000000  0.5075540000000 1.0
C      1  0.5057540000000  0.5674200000000  0.4285330000000 1.0
C      1  0.4639450000000  0.4095160000000  0.5895230000000 1.0
C      1  0.3802430000000  0.5495440000000  0.4421280000000 1.0
C      1  0.6085300000000  0.3567450000000  0.4948600000000 1.0
C      1  0.4225850000000  0.5624550000000  0.4254070000000 1.0
C      1  0.4222050000000  0.4623380000000  0.5678580000000 1.0
C      1  0.4471930000000  0.5240160000000  0.5964310000000 1.0
C      1  0.4273000000000  0.5198770000000  0.5559750000000 1.0
C      1  0.4536830000000  0.4312950000000  0.5185390000000 1.0
C      1  0.4288760000000  0.5674980000000  0.5337690000000 1.0
C      1  0.4366800000000  0.4746750000000  0.5881460000000 1.0
C      1  0.4169550000000  0.4501430000000  0.4921130000000 1.0
C      1  0.5289980000000  0.5026680000000  0.4447780000000 1.0
C      1  0.5699020000000  0.4030880000000  0.4558820000000 1.0
C      1  0.4323140000000  0.4039660000000  0.4835700000000 1.0
C      1  0.4978650000000  0.5587880000000  0.5811910000000 1.0
C      1  0.5850820000000  0.4988270000000  0.5949550000000 1.0
C      1  0.5176430000000  0.3714260000000  0.5679030000000 1.0
C      1  0.5431220000000  0.4695520000000  0.5649700000000 1.0
C      1  0.5768770000000  0.5412270000000  0.5624890000000 1.0
C      1  0.4154570000000  0.5656870000000  0.4722850000000 1.0
C      1  0.4723170000000  0.4991820000000  0.4961070000000 1.0
C      1  0.5250720000000  0.4635030000000  0.4630590000000 1.0
C      1  0.6507510000000  0.4994290000000  0.4468970000000 1.0
C      1  0.5396140000000  0.5443480000000  0.4625720000000 1.0
C      1  0.5643460000000  0.3625950000000  0.5185560000000 1.0
C      1  0.4928420000000  0.5141280000000  0.4213260000000 1.0
C      1  0.4749490000000  0.4547490000000  0.5522050000000 1.0
C      1  0.5631380000000  0.4796300000000  0.4803050000000 1.0
C      1  0.4390390000000  0.5406740000000  0.5729390000000 1.0
C      1  0.4032610000000  0.4636920000000  0.5138980000000 1.0
C      1  0.4610120000000  0.5105110000000  0.3850240000000 1.0
C      1  0.4588010000000  0.5435530000000  0.5040650000000 1.0
C      1  0.5179300000000  0.4375510000000  0.4995120000000 1.0
C      1  0.4140480000000  0.4253060000000  0.4760750000000 1.0
C      1  0.5071670000000  0.3823480000000  0.5926840000000 1.0
C      1  0.4937690000000  0.4640510000000  0.4247690000000 1.0
C      1  0.4783870000000  0.4859010000000  0.3861800000000 1.0
C      1  0.4796580000000  0.3940000000000  0.4817400000000 1.0
C      1  0.5294300000000  0.5178940000000  0.4699780000000 1.0
C      1  0.6165520000000  0.5782230000000  0.4606130000000 1.0
C      1  0.4460730000000  0.5655380000000  0.5570540000000 1.0
C      1  0.4544870000000  0.5101500000000  0.4513240000000 1.0
C      1  0.5584880000000  0.5104670000000  0.5927060000000 1.0
C      1  0.4469890000000  0.4533560000000  0.4127850000000 1.0
C      1  0.4633470000000  0.4396920000000  0.4900420000000 1.0
C      1  0.5035310000000  0.6336420000000  0.5012220000000 1.0
C      1  0.5491660000000  0.4590310000000  0.4253520000000 1.0
C      1  0.4489250000000  0.4172740000000  0.5682160000000 1.0
C      1  0.5070480000000  0.5196960000000  0.5139810000000 1.0
C      1  0.3857730000000  0.5315240000000  0.5306520000000 1.0
C      1  0.5260130000000  0.5070350000000  0.4963360000000 1.0
C      1  0.5069820000000  0.4386270000000  0.4262080000000 1.0
C      1  0.6300430000000  0.5550330000000  0.4623150000000 1.0
C      1  0.5601390000000  0.5386950000000  0.5399160000000 1.0
C      1  0.6048630000000  0.5742030000000  0.5202400000000 1.0
C      1  0.5439560000000  0.4169620000000  0.4529290000000 1.0
C      1  0.4390860000000  0.6001740000000  0.4997790000000 1.0
C      1  0.4618550000000  0.5621940000000  0.4029910000000 1.0
C      1  0.4477470000000  0.5775890000000  0.4247300000000 1.0
C      1  0.3856010000000  0.4833770000000  0.5025590000000 1.0
C      1  0.5237420000000  0.5703330000000  0.5331510000000 1.0
C      1  0.3844450000000  0.5338540000000  0.5006760000000 1.0
C      1  0.4913210000000  0.5850070000000  0.5728640000000 1.0
C      1  0.6271530000000  0.5376390000000  0.5477970000000 1.0
C      1  0.4109140000000  0.5471590000000  0.4937580000000 1.0
C      1  0.4888890000000  0.5638090000000  0.4725690000000 1.0
C      1  0.6139370000000  0.5316140000000  0.5015920000000 1.0
C      1  0.4811240000000  0.6216840000000  0.4876890000000 1.0
C      1  0.5043040000000  0.3890150000000  0.5477150000000 1.0
C      1  0.4039270000000  0.5642320000000  0.4466070000000 1.0
C      1  0.3821630000000  0.5066740000000  0.4872670000000 1.0
C      1  0.5348310000000  0.4328140000000  0.4305860000000 1.0
C      1  0.5970130000000  0.5896100000000  0.4753010000000 1.0
C      1  0.5642450000000  0.5403320000000  0.5886470000000 1.0
C      1  0.4992970000000  0.4662840000000  0.4717890000000 1.0
C      1  0.5141330000000  0.6322710000000  0.5265140000000 1.0
C      1  0.5309870000000  0.4586830000000  0.5160490000000 1.0
C      1  0.5111260000000  0.5724640000000  0.4884940000000 1.0
C      1  0.6305850000000  0.5053820000000  0.4651380000000 1.0
C      1  0.4840970000000  0.4893020000000  0.5995900000000 1.0
C      1  0.5252730000000  0.4582930000000  0.5449100000000 1.0
C      1  0.4563560000000  0.4333340000000  0.5462470000000 1.0
C      1  0.4636030000000  0.5629370000000  0.4841750000000 1.0
C      1  0.6239320000000  0.5197660000000  0.5676060000000 1.0
C      1  0.5856370000000  0.5804250000000  0.4994770000000 1.0
C      1  0.4275450000000  0.4410630000000  0.4269310000000 1.0
C      1  0.4595450000000  0.4133000000000  0.4751920000000 1.0
C      1  0.4239510000000  0.5370700000000  0.4099100000000 1.0
C      1  0.5360740000000  0.4920410000000  0.5827320000000 1.0
C      1  0.5758510000000  0.3929510000000  0.4822400000000 1.0
C      1  0.5672620000000  0.4566780000000  0.5683670000000 1.0
C      1  0.5352460000000  0.4737990000000  0.4003510000000 1.0
C      1  0.4690980000000  0.3809450000000  0.5074200000000 1.0
C      1  0.4497080000000  0.5352630000000  0.3957540000000 1.0
C      1  0.4888490000000  0.5534100000000  0.4466430000000 1.0
C      1  0.5625230000000  0.5632930000000  0.4986890000000 1.0
C      1  0.5471180000000  0.5448140000000  0.4342930000000 1.0
C      1  0.5019770000000  0.4155670000000  0.5609780000000 1.0
C      1  0.6092300000000  0.5045790000000  0.5842200000000 1.0
C      1  0.4833300000000  0.5360400000000  0.5744020000000 1.0
C      1  0.5299190000000  0.4154330000000  0.4812270000000 1.0
C      1  0.3840210000000  0.5217370000000  0.4366890000000 1.0
C      1  0.5317640000000  0.5454330000000  0.5465820000000 1.0
C      1  0.4423230000000  0.4620140000000  0.4804290000000 1.0
C      1  0.4653580000000  0.4809700000000  0.5150580000000 1.0
C      1  0.5018120000000  0.4437400000000  0.5539030000000 1.0
C      1  0.5246080000000  0.5523300000000  0.5753570000000 1.0
C      1  0.5071800000000  0.4967800000000  0.5836630000000 1.0
C      1  0.5291290000000  0.5576600000000  0.4160830000000 1.0
C      1  0.3608780000000  0.5513470000000  0.4932920000000 1.0
C      1  0.5604880000000  0.3516150000000  0.5441640000000 1.0
C      1  0.4225050000000  0.5924130000000  0.5216370000000 1.0
C      1  0.5046090000000  0.5796720000000  0.5154480000000 1.0
C      1  0.4320110000000  0.5467330000000  0.5138280000000 1.0
C      1  0.4553530000000  0.4952580000000  0.5980550000000 1.0
END
