TITL C-599892-9790-1026 1.02690027929862 125000 -996.46323987305 0 0 161 (C1) n - 1
REM
REM in /home/nfs/bkarasulu/CARBON/AIRSS/Generating-Clusters/TERSOFF/Only-C1/FIRE-HFTN
REM
REM
REM
REM
REM
REM ./C.cell (11c1c37f851c82e70ff6c80c92926a4b)
REM AIRSS Version 0.9.1 bugfix July 2018 build 013d7b7c2542+ Fri, 06 Jul 2018 19:26:36 +0100
REM compiler GCC version 9.2.1 20190827 (Red Hat 9.2.1-1)
REM options -cpp -mtune=generic -march=x86-64 -g -O0 -fpre-include=/usr/include/finclude/math-vector-fortran.h
REM seed -523548222 -353402848 -690529240 766764136 2005694509 -248509478 -1162411613 -508496030 943395028 356648455 -1771645851 -1050534595 -1511156046 765222084 -1016047466 -2035434736 1979686383 -666149168 2122872960 1856604283 -846559720 342561680 880257643 1221053515 234003200 -1225511722 1548655549 -1516804364 -1559742789 2069711723 582717395 858920007 1283793319
REM
CELL 1.54180   50.00000   50.00000   50.00000   90.00000   90.00000   90.00000
LATT -1
SFAC C  
C      1  0.5421920000000  0.3899010000000  0.5383350000000 1.0
C      1  0.3749050000000  0.5039770000000  0.4969170000000 1.0
C      1  0.2952460000000  0.4752720000000  0.6355730000000 1.0
C      1  0.5539110000000  0.6126420000000  0.4810590000000 1.0
C      1  0.5374810000000  0.5094080000000  0.5466270000000 1.0
C      1  0.4413010000000  0.4724160000000  0.6112070000000 1.0
C      1  0.5117160000000  0.5517910000000  0.5309360000000 1.0
C      1  0.4962780000000  0.4314050000000  0.4830180000000 1.0
C      1  0.6203880000000  0.5457630000000  0.4184840000000 1.0
C      1  0.5171750000000  0.5580130000000  0.6109270000000 1.0
C      1  0.3920820000000  0.5369880000000  0.5323590000000 1.0
C      1  0.5122960000000  0.5731700000000  0.5494790000000 1.0
C      1  0.5928470000000  0.5049410000000  0.5768570000000 1.0
C      1  0.3602350000000  0.5048050000000  0.6015560000000 1.0
C      1  0.5410990000000  0.4939450000000  0.3990030000000 1.0
C      1  0.4730990000000  0.6141490000000  0.5466380000000 1.0
C      1  0.4484190000000  0.4370580000000  0.4773780000000 1.0
C      1  0.4279010000000  0.5239930000000  0.4745620000000 1.0
C      1  0.5317540000000  0.4093630000000  0.4512820000000 1.0
C      1  0.5670910000000  0.5481920000000  0.5407590000000 1.0
C      1  0.4981570000000  0.5108560000000  0.4027300000000 1.0
C      1  0.5416340000000  0.5344340000000  0.4549640000000 1.0
C      1  0.5519110000000  0.5396330000000  0.4791440000000 1.0
C      1  0.5318330000000  0.5436990000000  0.4070960000000 1.0
C      1  0.6090270000000  0.4191140000000  0.5541330000000 1.0
C      1  0.5495650000000  0.5434720000000  0.4293590000000 1.0
C      1  0.4566070000000  0.4973810000000  0.3849440000000 1.0
C      1  0.5344190000000  0.5947980000000  0.5846670000000 1.0
C      1  0.5727760000000  0.4398780000000  0.4344590000000 1.0
C      1  0.5337490000000  0.4834520000000  0.5588730000000 1.0
C      1  0.4763530000000  0.4364440000000  0.4609170000000 1.0
C      1  0.4841690000000  0.5622390000000  0.3999840000000 1.0
C      1  0.5039120000000  0.5563140000000  0.5043980000000 1.0
C      1  0.5332190000000  0.6191840000000  0.4997450000000 1.0
C      1  0.4945710000000  0.5071850000000  0.4305340000000 1.0
C      1  0.4525530000000  0.5316410000000  0.5792020000000 1.0
C      1  0.5068460000000  0.3676830000000  0.4797680000000 1.0
C      1  0.6042010000000  0.5100210000000  0.4706080000000 1.0
C      1  0.4188410000000  0.4754180000000  0.4298540000000 1.0
C      1  0.4583580000000  0.4799300000000  0.5674210000000 1.0
C      1  0.5294390000000  0.4736530000000  0.3821180000000 1.0
C      1  0.4222800000000  0.4263100000000  0.4726720000000 1.0
C      1  0.5509110000000  0.4241090000000  0.4363750000000 1.0
C      1  0.5690140000000  0.4520090000000  0.5828060000000 1.0
C      1  0.4409210000000  0.4849820000000  0.4412610000000 1.0
C      1  0.5189250000000  0.3921170000000  0.5224930000000 1.0
C      1  0.4685450000000  0.5922980000000  0.5644250000000 1.0
C      1  0.4360680000000  0.4123590000000  0.4074920000000 1.0
C      1  0.4417540000000  0.5826170000000  0.5677760000000 1.0
C      1  0.4352160000000  0.5313190000000  0.4470890000000 1.0
C      1  0.4890080000000  0.5154410000000  0.5515340000000 1.0
C      1  0.4839930000000  0.4860230000000  0.5529930000000 1.0
C      1  0.4858820000000  0.5952010000000  0.4791760000000 1.0
C      1  0.5637800000000  0.5203050000000  0.5429030000000 1.0
C      1  0.4052480000000  0.5238890000000  0.5779110000000 1.0
C      1  0.4844990000000  0.4933880000000  0.3847310000000 1.0
C      1  0.4074050000000  0.4502850000000  0.4338670000000 1.0
C      1  0.4833300000000  0.4643090000000  0.4497880000000 1.0
C      1  0.5139470000000  0.4763070000000  0.4912030000000 1.0
C      1  0.4490220000000  0.5661510000000  0.5184490000000 1.0
C      1  0.6072030000000  0.5028040000000  0.5276580000000 1.0
C      1  0.4310230000000  0.5143040000000  0.5851730000000 1.0
C      1  0.4156680000000  0.4294730000000  0.4167790000000 1.0
C      1  0.4098710000000  0.4052720000000  0.4873520000000 1.0
C      1  0.5078890000000  0.4749950000000  0.5677130000000 1.0
C      1  0.5138730000000  0.5254110000000  0.5420150000000 1.0
C      1  0.4816400000000  0.4757130000000  0.5253340000000 1.0
C      1  0.5618320000000  0.4155750000000  0.4912830000000 1.0
C      1  0.5108900000000  0.6233290000000  0.5144640000000 1.0
C      1  0.3809550000000  0.4530900000000  0.4794850000000 1.0
C      1  0.6130020000000  0.4799580000000  0.5107190000000 1.0
C      1  0.5318640000000  0.4823170000000  0.4463980000000 1.0
C      1  0.5913220000000  0.4321420000000  0.6260830000000 1.0
C      1  0.3820510000000  0.5145930000000  0.5901670000000 1.0
C      1  0.5106690000000  0.5631080000000  0.4101430000000 1.0
C      1  0.4323180000000  0.4779800000000  0.5031840000000 1.0
C      1  0.4066750000000  0.5395590000000  0.4861990000000 1.0
C      1  0.5882240000000  0.5059490000000  0.5489590000000 1.0
C      1  0.4811920000000  0.4156830000000  0.4396930000000 1.0
C      1  0.5699780000000  0.5835810000000  0.4424140000000 1.0
C      1  0.4937150000000  0.5674370000000  0.4807830000000 1.0
C      1  0.4669230000000  0.5323750000000  0.5551580000000 1.0
C      1  0.4397060000000  0.4873880000000  0.5874580000000 1.0
C      1  0.4927300000000  0.5785490000000  0.5712730000000 1.0
C      1  0.5796710000000  0.6199250000000  0.4873660000000 1.0
C      1  0.4916300000000  0.5292470000000  0.4478460000000 1.0
C      1  0.6066740000000  0.4109990000000  0.5082150000000 1.0
C      1  0.5595060000000  0.4688410000000  0.4844140000000 1.0
C      1  0.4454410000000  0.5893850000000  0.5031530000000 1.0
C      1  0.5107670000000  0.5801170000000  0.5946310000000 1.0
C      1  0.4042360000000  0.5441470000000  0.5572410000000 1.0
C      1  0.4689980000000  0.6047710000000  0.4994400000000 1.0
C      1  0.4978250000000  0.5555250000000  0.4555700000000 1.0
C      1  0.5794430000000  0.5136480000000  0.5985710000000 1.0
C      1  0.3840320000000  0.4074830000000  0.4960460000000 1.0
C      1  0.4959760000000  0.4061350000000  0.5312470000000 1.0
C      1  0.5872590000000  0.4028060000000  0.5568460000000 1.0
C      1  0.5111330000000  0.5730190000000  0.4365940000000 1.0
C      1  0.5042820000000  0.4814070000000  0.4397260000000 1.0
C      1  0.4624040000000  0.4585670000000  0.6207000000000 1.0
C      1  0.5794040000000  0.4026680000000  0.5093550000000 1.0
C      1  0.3166720000000  0.4850090000000  0.6243580000000 1.0
C      1  0.5218880000000  0.5970490000000  0.4471080000000 1.0
C      1  0.5224650000000  0.3858250000000  0.4948150000000 1.0
C      1  0.4898060000000  0.4887290000000  0.5004240000000 1.0
C      1  0.4219990000000  0.5888520000000  0.4876230000000 1.0
C      1  0.5653240000000  0.4433590000000  0.4896390000000 1.0
C      1  0.3384560000000  0.4949100000000  0.6129560000000 1.0
C      1  0.4193290000000  0.5681390000000  0.5624010000000 1.0
C      1  0.3838770000000  0.4768840000000  0.4958790000000 1.0
C      1  0.5606680000000  0.5732570000000  0.5471630000000 1.0
C      1  0.6076320000000  0.4629870000000  0.4624360000000 1.0
C      1  0.4484420000000  0.4537890000000  0.5012400000000 1.0
C      1  0.5013420000000  0.6107970000000  0.4612530000000 1.0
C      1  0.5513970000000  0.4885560000000  0.4255430000000 1.0
C      1  0.6208560000000  0.4554050000000  0.5218690000000 1.0
C      1  0.4681640000000  0.4507890000000  0.5213720000000 1.0
C      1  0.4598410000000  0.5555330000000  0.4098920000000 1.0
C      1  0.5888700000000  0.4625010000000  0.4409600000000 1.0
C      1  0.5695290000000  0.3957130000000  0.5357590000000 1.0
C      1  0.5376690000000  0.5847440000000  0.5578000000000 1.0
C      1  0.5049680000000  0.3995950000000  0.4435620000000 1.0
C      1  0.4835090000000  0.6176170000000  0.5206430000000 1.0
C      1  0.5762510000000  0.5445200000000  0.4889730000000 1.0
C      1  0.4413280000000  0.5030470000000  0.4906550000000 1.0
C      1  0.6430370000000  0.5521700000000  0.4073030000000 1.0
C      1  0.5790230000000  0.4889520000000  0.4333410000000 1.0
C      1  0.4022930000000  0.4444400000000  0.4610580000000 1.0
C      1  0.6009310000000  0.5313810000000  0.4893810000000 1.0
C      1  0.4683550000000  0.4966690000000  0.4823330000000 1.0
C      1  0.4407680000000  0.5133760000000  0.4001080000000 1.0
C      1  0.5492970000000  0.5988630000000  0.4559140000000 1.0
C      1  0.5801240000000  0.4418140000000  0.6046220000000 1.0
C      1  0.6135310000000  0.5271740000000  0.5142320000000 1.0
C      1  0.4567540000000  0.5455460000000  0.5329240000000 1.0
C      1  0.4611400000000  0.4119770000000  0.4203890000000 1.0
C      1  0.5548570000000  0.4663490000000  0.5655350000000 1.0
C      1  0.5035640000000  0.4603460000000  0.5913640000000 1.0
C      1  0.5365260000000  0.4814460000000  0.4746150000000 1.0
C      1  0.4997970000000  0.3734900000000  0.4541600000000 1.0
C      1  0.5360010000000  0.5392340000000  0.6147110000000 1.0
C      1  0.4064960000000  0.4745700000000  0.5127890000000 1.0
C      1  0.3690760000000  0.4300510000000  0.4919490000000 1.0
C      1  0.3890840000000  0.5276630000000  0.5054640000000 1.0
C      1  0.4873360000000  0.4541890000000  0.6117230000000 1.0
C      1  0.5253010000000  0.5183170000000  0.3970660000000 1.0
C      1  0.6167640000000  0.4285240000000  0.5283760000000 1.0
C      1  0.6106700000000  0.4838120000000  0.4816710000000 1.0
C      1  0.5741910000000  0.5573390000000  0.4312120000000 1.0
C      1  0.5936140000000  0.5124930000000  0.4435350000000 1.0
C      1  0.5028290000000  0.4738710000000  0.3746840000000 1.0
C      1  0.5584350000000  0.5252300000000  0.6105150000000 1.0
C      1  0.5397730000000  0.4027400000000  0.4787970000000 1.0
C      1  0.4635350000000  0.4831960000000  0.4572630000000 1.0
C      1  0.4782490000000  0.4263340000000  0.5311480000000 1.0
C      1  0.5490080000000  0.6134720000000  0.5977640000000 1.0
C      1  0.4065860000000  0.5674840000000  0.4818700000000 1.0
C      1  0.5124920000000  0.4482220000000  0.4959740000000 1.0
C      1  0.4431820000000  0.5344090000000  0.4193680000000 1.0
C      1  0.5963750000000  0.5388250000000  0.4309080000000 1.0
C      1  0.4315290000000  0.3961120000000  0.3859490000000 1.0
END
