TITL C-599894-471-1176 0.0999881758736097 125000 -392.171725061506 0 0 65 (C1) n - 1
REM
REM in /home/nfs/bkarasulu/CARBON/AIRSS/Generating-Clusters/TERSOFF/Only-C1/FIRE-HFTN
REM
REM
REM
REM
REM
REM ./C.cell (11c1c37f851c82e70ff6c80c92926a4b)
REM AIRSS Version 0.9.1 bugfix July 2018 build 013d7b7c2542+ Fri, 06 Jul 2018 19:26:36 +0100
REM compiler GCC version 9.2.1 20190827 (Red Hat 9.2.1-1)
REM options -cpp -mtune=generic -march=x86-64 -g -O0 -fpre-include=/usr/include/finclude/math-vector-fortran.h
REM seed -2084603280 -2000993114 2031396253 -1153857019 1642160255 1571343992 -423842662 -846823820 2091606118 -2025054135 -1850256327 -696557415 907549252 632307548 -1456483023 835303961 1433829260 -174792931 -1699672299 1840552944 1518617753 -1145628923 -866829149 -660769210 -384523030 586360656 -2107252882 878697711 -985787415 1248483536 -2095803754 1693572505 -754174273
REM
CELL 1.54180   50.00000   50.00000   50.00000   90.00000   90.00000   90.00000
LATT -1
SFAC C  
C      1  0.5758310000000  0.4661690000000  0.4372240000000 1.0
C      1  0.5762190000000  0.4795090000000  0.4836460000000 1.0
C      1  0.5084120000000  0.4377960000000  0.4837730000000 1.0
C      1  0.4869420000000  0.4941520000000  0.4062120000000 1.0
C      1  0.5219370000000  0.4985220000000  0.5444130000000 1.0
C      1  0.4835670000000  0.4159700000000  0.5196170000000 1.0
C      1  0.5790460000000  0.4583160000000  0.4642730000000 1.0
C      1  0.4942720000000  0.5654990000000  0.4503440000000 1.0
C      1  0.5294700000000  0.4414410000000  0.5027650000000 1.0
C      1  0.4608030000000  0.4497280000000  0.4443220000000 1.0
C      1  0.5411170000000  0.4640260000000  0.5151470000000 1.0
C      1  0.5654370000000  0.5796460000000  0.5235820000000 1.0
C      1  0.4058580000000  0.5348850000000  0.4732500000000 1.0
C      1  0.4505980000000  0.4354840000000  0.4665450000000 1.0
C      1  0.4795600000000  0.4898590000000  0.4961430000000 1.0
C      1  0.4881480000000  0.5417080000000  0.4397190000000 1.0
C      1  0.5077930000000  0.5211040000000  0.5419100000000 1.0
C      1  0.5509740000000  0.4828440000000  0.4962440000000 1.0
C      1  0.5477370000000  0.5253060000000  0.4476290000000 1.0
C      1  0.4578430000000  0.4431120000000  0.5563200000000 1.0
C      1  0.4945790000000  0.5646270000000  0.5216790000000 1.0
C      1  0.4208250000000  0.5040670000000  0.5434500000000 1.0
C      1  0.5298590000000  0.4986550000000  0.4844950000000 1.0
C      1  0.4667690000000  0.4135960000000  0.4745310000000 1.0
C      1  0.3831480000000  0.5276420000000  0.5179210000000 1.0
C      1  0.4105890000000  0.4597490000000  0.5265880000000 1.0
C      1  0.5898450000000  0.4077760000000  0.4793700000000 1.0
C      1  0.5732330000000  0.4904190000000  0.4255020000000 1.0
C      1  0.4175920000000  0.4500160000000  0.5025890000000 1.0
C      1  0.5870300000000  0.6138260000000  0.5578480000000 1.0
C      1  0.4646570000000  0.5270710000000  0.5206000000000 1.0
C      1  0.5934440000000  0.5180330000000  0.4587110000000 1.0
C      1  0.3958460000000  0.5159280000000  0.5383260000000 1.0
C      1  0.5762780000000  0.5967200000000  0.5407020000000 1.0
C      1  0.4615460000000  0.4685020000000  0.4994570000000 1.0
C      1  0.4397760000000  0.4707490000000  0.5919860000000 1.0
C      1  0.4306800000000  0.5295230000000  0.4653540000000 1.0
C      1  0.4834770000000  0.4667030000000  0.4456180000000 1.0
C      1  0.4393620000000  0.4786610000000  0.6168130000000 1.0
C      1  0.4401860000000  0.4632140000000  0.5651140000000 1.0
C      1  0.4416510000000  0.4515140000000  0.4884630000000 1.0
C      1  0.5938350000000  0.5015920000000  0.4804130000000 1.0
C      1  0.5045870000000  0.4856180000000  0.4833350000000 1.0
C      1  0.4750790000000  0.5176240000000  0.4467540000000 1.0
C      1  0.3874630000000  0.5347110000000  0.4925360000000 1.0
C      1  0.4669360000000  0.5149550000000  0.4949990000000 1.0
C      1  0.5850840000000  0.4322110000000  0.4716640000000 1.0
C      1  0.4225950000000  0.4757500000000  0.5464980000000 1.0
C      1  0.5366640000000  0.5240040000000  0.4736930000000 1.0
C      1  0.4436620000000  0.5194020000000  0.5375040000000 1.0
C      1  0.5021900000000  0.4615190000000  0.4673800000000 1.0
C      1  0.4570010000000  0.5209480000000  0.4689750000000 1.0
C      1  0.4887970000000  0.5386620000000  0.5306150000000 1.0
C      1  0.5977830000000  0.6309370000000  0.5750000000000 1.0
C      1  0.5346830000000  0.4734110000000  0.5413140000000 1.0
C      1  0.4885200000000  0.4186010000000  0.4918990000000 1.0
C      1  0.6083600000000  0.6477670000000  0.5918690000000 1.0
C      1  0.4722870000000  0.4262530000000  0.5415490000000 1.0
C      1  0.4817760000000  0.4928580000000  0.4332670000000 1.0
C      1  0.5414810000000  0.5454280000000  0.4909830000000 1.0
C      1  0.5727750000000  0.5152990000000  0.4391160000000 1.0
C      1  0.5539270000000  0.5627040000000  0.5067740000000 1.0
C      1  0.4957960000000  0.5796120000000  0.4995590000000 1.0
C      1  0.4959830000000  0.5798010000000  0.4728440000000 1.0
C      1  0.5408030000000  0.4582640000000  0.5632650000000 1.0
END
