TITL C-599895-9959-742 1667.5449584308 125000 -637.245682682848 0 0 105 (C1) n - 1
REM
REM in /home/nfs/bkarasulu/CARBON/AIRSS/Generating-Clusters/TERSOFF/Only-C1/FIRE-HFTN
REM
REM
REM
REM
REM
REM ./C.cell (11c1c37f851c82e70ff6c80c92926a4b)
REM AIRSS Version 0.9.1 bugfix July 2018 build 013d7b7c2542+ Fri, 06 Jul 2018 19:26:36 +0100
REM compiler GCC version 9.2.1 20190827 (Red Hat 9.2.1-1)
REM options -cpp -mtune=generic -march=x86-64 -g -O0 -fpre-include=/usr/include/finclude/math-vector-fortran.h
REM seed 1958179957 1091404566 -889864017 -1703568339 -131651715 422489501 -1230047676 -1841744986 -1622346766 -1369971036 1998793705 606211200 -1578070813 -83145402 -426643880 1037998300 -1075229332 -1297518396 868807077 -96074000 -2102409032 -1398302745 -832728709 1194192615 -1862657902 441181259 1092612101 -1672826858 2021680468 1921352616 1133784522 818445913 -33703929
REM
CELL 1.54180   50.00000   50.00000   50.00000   90.00000   90.00000   90.00000
LATT -1
SFAC C  
C      1  0.4576630000000  0.4935550000000  0.4922810000000 1.0
C      1  0.5640260000000  0.5080820000000  0.5038790000000 1.0
C      1  0.5780000000000  0.4391180000000  0.5001410000000 1.0
C      1  0.4073940000000  0.4871230000000  0.5272160000000 1.0
C      1  0.5777430000000  0.5939760000000  0.4674920000000 1.0
C      1  0.4240010000000  0.5877340000000  0.4996780000000 1.0
C      1  0.4608810000000  0.3727600000000  0.4199890000000 1.0
C      1  0.4249820000000  0.4332030000000  0.5577580000000 1.0
C      1  0.5409660000000  0.4719820000000  0.4114810000000 1.0
C      1  0.4006770000000  0.5392960000000  0.5211410000000 1.0
C      1  0.4264870000000  0.4420540000000  0.5311950000000 1.0
C      1  0.6057660000000  0.6615580000000  0.4375500000000 1.0
C      1  0.5619960000000  0.4705610000000  0.4639140000000 1.0
C      1  0.5147750000000  0.4667500000000  0.5673850000000 1.0
C      1  0.5001670000000  0.5394170000000  0.4594430000000 1.0
C      1  0.5754360000000  0.5296650000000  0.5413000000000 1.0
C      1  0.4986450000000  0.5196160000000  0.4804380000000 1.0
C      1  0.4500890000000  0.4973670000000  0.5567140000000 1.0
C      1  0.5552170000000  0.5185970000000  0.4308320000000 1.0
C      1  0.4296370000000  0.5440170000000  0.5616770000000 1.0
C      1  0.5064050000000  0.4366890000000  0.4908360000000 1.0
C      1  0.4099620000000  0.5455990000000  0.4942460000000 1.0
C      1  0.4999480000000  0.5359160000000  0.5922610000000 1.0
C      1  0.5386510000000  0.4230940000000  0.5887120000000 1.0
C      1  0.5453230000000  0.5111430000000  0.4825430000000 1.0
C      1  0.4186870000000  0.5557390000000  0.5383650000000 1.0
C      1  0.4438390000000  0.5221150000000  0.5683980000000 1.0
C      1  0.5190190000000  0.4615180000000  0.4974170000000 1.0
C      1  0.4561700000000  0.5532280000000  0.5086470000000 1.0
C      1  0.5872980000000  0.6163340000000  0.4569910000000 1.0
C      1  0.5129230000000  0.4715040000000  0.4082160000000 1.0
C      1  0.4173320000000  0.5028380000000  0.4647410000000 1.0
C      1  0.4584630000000  0.5260550000000  0.4333540000000 1.0
C      1  0.5668030000000  0.5710620000000  0.4784960000000 1.0
C      1  0.4390730000000  0.5463560000000  0.4389410000000 1.0
C      1  0.4062860000000  0.4583790000000  0.5175600000000 1.0
C      1  0.5037120000000  0.4976730000000  0.4002930000000 1.0
C      1  0.3950000000000  0.4887530000000  0.4606790000000 1.0
C      1  0.5417070000000  0.4187500000000  0.4665650000000 1.0
C      1  0.4935960000000  0.4561300000000  0.4236010000000 1.0
C      1  0.5548970000000  0.5395070000000  0.5836040000000 1.0
C      1  0.4518020000000  0.4777250000000  0.5140100000000 1.0
C      1  0.5880140000000  0.4661580000000  0.5008960000000 1.0
C      1  0.5816520000000  0.4889900000000  0.5174370000000 1.0
C      1  0.3873340000000  0.4659680000000  0.4727050000000 1.0
C      1  0.5102510000000  0.5594710000000  0.5237980000000 1.0
C      1  0.4132000000000  0.5702510000000  0.4787970000000 1.0
C      1  0.4595670000000  0.4592700000000  0.5856020000000 1.0
C      1  0.5675410000000  0.5370860000000  0.5136330000000 1.0
C      1  0.5499020000000  0.4008510000000  0.5977240000000 1.0
C      1  0.4840860000000  0.5560640000000  0.5120940000000 1.0
C      1  0.5593460000000  0.5190390000000  0.4587410000000 1.0
C      1  0.5208940000000  0.5148530000000  0.4966800000000 1.0
C      1  0.4378910000000  0.5101490000000  0.4822320000000 1.0
C      1  0.5094960000000  0.5649310000000  0.5514650000000 1.0
C      1  0.4562230000000  0.4973420000000  0.4270860000000 1.0
C      1  0.4473780000000  0.4295480000000  0.4625890000000 1.0
C      1  0.5556910000000  0.4939690000000  0.4171990000000 1.0
C      1  0.5966350000000  0.6390670000000  0.4470590000000 1.0
C      1  0.5018530000000  0.5570630000000  0.5758680000000 1.0
C      1  0.4865750000000  0.5331310000000  0.4343780000000 1.0
C      1  0.5273640000000  0.4450400000000  0.5791020000000 1.0
C      1  0.5199570000000  0.5030650000000  0.5235600000000 1.0
C      1  0.4040150000000  0.4508300000000  0.4895740000000 1.0
C      1  0.4391710000000  0.4407910000000  0.5793040000000 1.0
C      1  0.5609980000000  0.3789220000000  0.6064200000000 1.0
C      1  0.4251590000000  0.4361700000000  0.4765060000000 1.0
C      1  0.5077270000000  0.5101450000000  0.5920760000000 1.0
C      1  0.3932920000000  0.5119210000000  0.5260420000000 1.0
C      1  0.4644350000000  0.3952610000000  0.4326460000000 1.0
C      1  0.5340250000000  0.5627570000000  0.4343370000000 1.0
C      1  0.5528920000000  0.5275320000000  0.5584570000000 1.0
C      1  0.4355800000000  0.4911260000000  0.5333670000000 1.0
C      1  0.5003300000000  0.5217740000000  0.4121260000000 1.0
C      1  0.5349630000000  0.5563880000000  0.5095610000000 1.0
C      1  0.4742170000000  0.4757380000000  0.4341290000000 1.0
C      1  0.4698150000000  0.4614030000000  0.6108120000000 1.0
C      1  0.5864300000000  0.5270350000000  0.4684770000000 1.0
C      1  0.5314000000000  0.5097010000000  0.5501260000000 1.0
C      1  0.5384340000000  0.5661830000000  0.4830020000000 1.0
C      1  0.5217130000000  0.5592900000000  0.4599610000000 1.0
C      1  0.4682930000000  0.4763530000000  0.5640010000000 1.0
C      1  0.5201480000000  0.4944790000000  0.5721970000000 1.0
C      1  0.5616140000000  0.5505030000000  0.6062700000000 1.0
C      1  0.5913870000000  0.5046830000000  0.5399200000000 1.0
C      1  0.4244300000000  0.5646540000000  0.4529780000000 1.0
C      1  0.6012480000000  0.5023410000000  0.4684570000000 1.0
C      1  0.4816190000000  0.4974170000000  0.4796620000000 1.0
C      1  0.6116160000000  0.4979160000000  0.5567540000000 1.0
C      1  0.4685910000000  0.4194310000000  0.4462360000000 1.0
C      1  0.4930800000000  0.4641700000000  0.5459020000000 1.0
C      1  0.4782280000000  0.4414980000000  0.5307300000000 1.0
C      1  0.5886780000000  0.4769800000000  0.4732800000000 1.0
C      1  0.4378700000000  0.5354130000000  0.4937650000000 1.0
C      1  0.4946500000000  0.4325450000000  0.4425660000000 1.0
C      1  0.5819000000000  0.5483170000000  0.4884870000000 1.0
C      1  0.5625920000000  0.4231140000000  0.4839580000000 1.0
C      1  0.4526490000000  0.4501440000000  0.5219470000000 1.0
C      1  0.5140030000000  0.4270240000000  0.4645220000000 1.0
C      1  0.4852570000000  0.4795100000000  0.4596680000000 1.0
C      1  0.5386010000000  0.4692610000000  0.4779530000000 1.0
C      1  0.5101120000000  0.4759750000000  0.5213470000000 1.0
C      1  0.4922480000000  0.4253730000000  0.5121990000000 1.0
C      1  0.4366260000000  0.5722630000000  0.5212120000000 1.0
C      1  0.5476690000000  0.5438240000000  0.4204410000000 1.0
END
