TITL C-599894-471-1219 0.020450147067517 125000 -252.896878077238 0 0 43 (C1) n - 1
REM
REM in /home/nfs/bkarasulu/CARBON/AIRSS/Generating-Clusters/TERSOFF/Only-C1/FIRE-HFTN
REM
REM
REM
REM
REM
REM ./C.cell (11c1c37f851c82e70ff6c80c92926a4b)
REM AIRSS Version 0.9.1 bugfix July 2018 build 013d7b7c2542+ Fri, 06 Jul 2018 19:26:36 +0100
REM compiler GCC version 9.2.1 20190827 (Red Hat 9.2.1-1)
REM options -cpp -mtune=generic -march=x86-64 -g -O0 -fpre-include=/usr/include/finclude/math-vector-fortran.h
REM seed 1254461629 1990037601 -1687517896 1349515588 -1051730189 738213519 -2126367734 1771704959 -76131813 552964587 1259487886 -1937673775 364713167 -129772450 1906792142 -1310661335 -12758616 656185063 -204119838 -1738074761 1215685838 -2003340656 1968445413 -1835318534 996339588 1894632346 1593485015 -1300063811 16733865 -1797374695 2582432 -1352706944 -456896551
REM
CELL 1.54180   50.00000   50.00000   50.00000   90.00000   90.00000   90.00000
LATT -1
SFAC C  
C      1  0.4450540000000  0.4674440000000  0.5124200000000 1.0
C      1  0.4445450000000  0.5025330000000  0.4723240000000 1.0
C      1  0.5281800000000  0.5359660000000  0.4552160000000 1.0
C      1  0.5650730000000  0.5126780000000  0.4325960000000 1.0
C      1  0.4798280000000  0.5352190000000  0.4604340000000 1.0
C      1  0.4380690000000  0.4852720000000  0.4917700000000 1.0
C      1  0.4415580000000  0.5763510000000  0.5560380000000 1.0
C      1  0.5444870000000  0.4715460000000  0.5075070000000 1.0
C      1  0.4413730000000  0.4746340000000  0.5392550000000 1.0
C      1  0.5147150000000  0.4563500000000  0.4357640000000 1.0
C      1  0.4776700000000  0.4830390000000  0.5697110000000 1.0
C      1  0.4658730000000  0.5733360000000  0.5140220000000 1.0
C      1  0.5026790000000  0.4899520000000  0.5639410000000 1.0
C      1  0.4883310000000  0.5569160000000  0.5166780000000 1.0
C      1  0.4606820000000  0.4445770000000  0.5072440000000 1.0
C      1  0.5277130000000  0.4103480000000  0.5062480000000 1.0
C      1  0.5301740000000  0.5374670000000  0.5130440000000 1.0
C      1  0.5484490000000  0.4282840000000  0.4068550000000 1.0
C      1  0.4458980000000  0.5818880000000  0.5299400000000 1.0
C      1  0.5188780000000  0.5274900000000  0.5379120000000 1.0
C      1  0.4501710000000  0.4794910000000  0.5654380000000 1.0
C      1  0.4324510000000  0.4808430000000  0.5861860000000 1.0
C      1  0.4570150000000  0.5605970000000  0.5716400000000 1.0
C      1  0.5003710000000  0.4731850000000  0.4526020000000 1.0
C      1  0.5228960000000  0.4575810000000  0.4950710000000 1.0
C      1  0.5054290000000  0.4747380000000  0.4805180000000 1.0
C      1  0.4794310000000  0.5472030000000  0.5650470000000 1.0
C      1  0.5393160000000  0.4828680000000  0.5329920000000 1.0
C      1  0.5051890000000  0.5433520000000  0.4700070000000 1.0
C      1  0.5606210000000  0.5124240000000  0.4817440000000 1.0
C      1  0.5121130000000  0.4324200000000  0.5026770000000 1.0
C      1  0.4657210000000  0.5111670000000  0.4558160000000 1.0
C      1  0.5622380000000  0.4855840000000  0.4903840000000 1.0
C      1  0.5086920000000  0.5499840000000  0.4974240000000 1.0
C      1  0.4930340000000  0.4938700000000  0.4958190000000 1.0
C      1  0.5765580000000  0.5036590000000  0.4110110000000 1.0
C      1  0.4804170000000  0.4906380000000  0.4429140000000 1.0
C      1  0.4840870000000  0.4317760000000  0.5060170000000 1.0
C      1  0.5220810000000  0.5006340000000  0.5467120000000 1.0
C      1  0.4948660000000  0.5434180000000  0.5420410000000 1.0
C      1  0.5517590000000  0.5203120000000  0.4557690000000 1.0
C      1  0.5550070000000  0.5310950000000  0.5022090000000 1.0
C      1  0.5313090000000  0.4418690000000  0.4210420000000 1.0
END
