TITL C-599897-7526-1223 -330.774700988695 125000 -477.299112383481 0 0 79 (C1) n - 1
REM
REM in /home/nfs/bkarasulu/CARBON/AIRSS/Generating-Clusters/TERSOFF/Only-C1/FIRE-HFTN
REM
REM
REM
REM
REM
REM ./C.cell (11c1c37f851c82e70ff6c80c92926a4b)
REM AIRSS Version 0.9.1 bugfix July 2018 build 013d7b7c2542+ Fri, 06 Jul 2018 19:26:36 +0100
REM compiler GCC version 9.2.1 20190827 (Red Hat 9.2.1-1)
REM options -cpp -mtune=generic -march=x86-64 -g -O0 -fpre-include=/usr/include/finclude/math-vector-fortran.h
REM seed -1658900482 647563296 211060789 1146368471 370170814 1149115375 -271699994 1824078804 1342028381 -491771729 297317025 1208683755 1615034756 894907601 1073938328 760663044 952358527 68196720 1674131430 865330187 -1180387282 -786532699 -1207962639 -1958120039 878443470 -1479229750 -1653771247 1954728219 -1080120969 2023179629 1337097849 -1178049042 1196232474
REM
CELL 1.54180   50.00000   50.00000   50.00000   90.00000   90.00000   90.00000
LATT -1
SFAC C  
C      1  0.5540760000000  0.4633520000000  0.4644130000000 1.0
C      1  0.4829680000000  0.5163190000000  0.5779330000000 1.0
C      1  0.5914890000000  0.4469370000000  0.4298190000000 1.0
C      1  0.4652760000000  0.5566850000000  0.5561300000000 1.0
C      1  0.5141090000000  0.5639470000000  0.5638840000000 1.0
C      1  0.4887700000000  0.6085540000000  0.4886750000000 1.0
C      1  0.5030580000000  0.4737690000000  0.5052780000000 1.0
C      1  0.5939370000000  0.4062010000000  0.3980750000000 1.0
C      1  0.4445490000000  0.5137780000000  0.4944010000000 1.0
C      1  0.5305270000000  0.4485130000000  0.4610960000000 1.0
C      1  0.5953240000000  0.4653750000000  0.5305390000000 1.0
C      1  0.4657780000000  0.5099220000000  0.5346870000000 1.0
C      1  0.5431020000000  0.5641340000000  0.6039560000000 1.0
C      1  0.4609170000000  0.6078370000000  0.5013420000000 1.0
C      1  0.5351820000000  0.5287090000000  0.4793390000000 1.0
C      1  0.5372800000000  0.5719810000000  0.5780330000000 1.0
C      1  0.5695090000000  0.4574910000000  0.5266250000000 1.0
C      1  0.5245810000000  0.4774030000000  0.5242680000000 1.0
C      1  0.5177660000000  0.4866740000000  0.5504980000000 1.0
C      1  0.5119800000000  0.4167480000000  0.5304960000000 1.0
C      1  0.5614100000000  0.5390690000000  0.5163720000000 1.0
C      1  0.4648530000000  0.4162090000000  0.5171590000000 1.0
C      1  0.5026900000000  0.4999460000000  0.5688000000000 1.0
C      1  0.4148150000000  0.5112060000000  0.5332760000000 1.0
C      1  0.4913040000000  0.5859920000000  0.4699200000000 1.0
C      1  0.5506570000000  0.4737640000000  0.5128400000000 1.0
C      1  0.5172830000000  0.5409060000000  0.4608600000000 1.0
C      1  0.4649940000000  0.4915240000000  0.4334500000000 1.0
C      1  0.4680030000000  0.5031670000000  0.4807680000000 1.0
C      1  0.5098620000000  0.5392510000000  0.5214970000000 1.0
C      1  0.5461850000000  0.5963740000000  0.5374980000000 1.0
C      1  0.4403160000000  0.5047120000000  0.5220570000000 1.0
C      1  0.4909690000000  0.4271880000000  0.5151080000000 1.0
C      1  0.3861650000000  0.5391070000000  0.5055270000000 1.0
C      1  0.5050080000000  0.4401930000000  0.4693070000000 1.0
C      1  0.5325820000000  0.3655240000000  0.4024910000000 1.0
C      1  0.4640450000000  0.5975820000000  0.5281180000000 1.0
C      1  0.5760260000000  0.4588610000000  0.4477800000000 1.0
C      1  0.4085230000000  0.5579360000000  0.5423990000000 1.0
C      1  0.4443660000000  0.5887540000000  0.4855720000000 1.0
C      1  0.4751760000000  0.5698270000000  0.5315070000000 1.0
C      1  0.4613470000000  0.5346320000000  0.5734050000000 1.0
C      1  0.5340700000000  0.5384810000000  0.5072550000000 1.0
C      1  0.5053080000000  0.5664570000000  0.5347370000000 1.0
C      1  0.4973730000000  0.5246770000000  0.4491290000000 1.0
C      1  0.4650210000000  0.4662080000000  0.4252030000000 1.0
C      1  0.4336730000000  0.5285000000000  0.5752490000000 1.0
C      1  0.5215760000000  0.5910560000000  0.5243290000000 1.0
C      1  0.5481670000000  0.5561480000000  0.6282410000000 1.0
C      1  0.4942990000000  0.3810880000000  0.4344280000000 1.0
C      1  0.5375780000000  0.4181910000000  0.5377050000000 1.0
C      1  0.5768040000000  0.5237230000000  0.4991860000000 1.0
C      1  0.4658200000000  0.3901140000000  0.4730990000000 1.0
C      1  0.5567750000000  0.3708500000000  0.3929210000000 1.0
C      1  0.4877480000000  0.4267910000000  0.4509720000000 1.0
C      1  0.4826560000000  0.3988270000000  0.4524850000000 1.0
C      1  0.4475340000000  0.4238190000000  0.5368060000000 1.0
C      1  0.5597490000000  0.4329340000000  0.5361680000000 1.0
C      1  0.4252970000000  0.5664640000000  0.4966630000000 1.0
C      1  0.4686540000000  0.5545140000000  0.4993170000000 1.0
C      1  0.5109230000000  0.3695390000000  0.4172980000000 1.0
C      1  0.4430430000000  0.5421310000000  0.4964480000000 1.0
C      1  0.5552560000000  0.4823070000000  0.4854810000000 1.0
C      1  0.4675490000000  0.5717960000000  0.4761980000000 1.0
C      1  0.4029080000000  0.5611530000000  0.5139300000000 1.0
C      1  0.4579720000000  0.3974040000000  0.4975240000000 1.0
C      1  0.5789490000000  0.3853770000000  0.3911600000000 1.0
C      1  0.3923350000000  0.5142100000000  0.5155610000000 1.0
C      1  0.4897870000000  0.4978070000000  0.4988000000000 1.0
C      1  0.5123770000000  0.5692510000000  0.4610810000000 1.0
C      1  0.5537290000000  0.5888050000000  0.5623530000000 1.0
C      1  0.4752870000000  0.5077460000000  0.4536480000000 1.0
C      1  0.4157420000000  0.5321390000000  0.5535800000000 1.0
C      1  0.5104910000000  0.6100180000000  0.5066710000000 1.0
C      1  0.5982380000000  0.4283640000000  0.4120800000000 1.0
C      1  0.5587700000000  0.5101120000000  0.4805320000000 1.0
C      1  0.4740940000000  0.4421350000000  0.4319440000000 1.0
C      1  0.4973410000000  0.4474540000000  0.4959410000000 1.0
C      1  0.4903480000000  0.5173620000000  0.5206830000000 1.0
END
