TITL C-599896-8500-1283 0.740072544450056 125000 -349.852501776207 0 0 60 (C1) n - 1
REM
REM in /home/nfs/bkarasulu/CARBON/AIRSS/Generating-Clusters/TERSOFF/Only-C1/FIRE-HFTN
REM
REM
REM
REM
REM
REM ./C.cell (11c1c37f851c82e70ff6c80c92926a4b)
REM AIRSS Version 0.9.1 bugfix July 2018 build 013d7b7c2542+ Fri, 06 Jul 2018 19:26:36 +0100
REM compiler GCC version 9.2.1 20190827 (Red Hat 9.2.1-1)
REM options -cpp -mtune=generic -march=x86-64 -g -O0 -fpre-include=/usr/include/finclude/math-vector-fortran.h
REM seed 1492034241 982439593 1792464187 -1732471363 714518972 227402199 1814850284 1764387201 427485326 1299679160 1373518179 1222219742 -1258699985 -643512195 1341201590 361684806 -203794446 450479096 1003019290 57200972 -928620053 -1378958136 1988001194 1024394997 -1242087400 974861055 -152403785 813606899 -702846826 -951976336 -1522541688 566311382 1626489428
REM
CELL 1.54180   50.00000   50.00000   50.00000   90.00000   90.00000   90.00000
LATT -1
SFAC C  
C      1  0.4785770000000  0.4080490000000  0.4705790000000 1.0
C      1  0.5064780000000  0.5625480000000  0.5655410000000 1.0
C      1  0.4510320000000  0.5751280000000  0.5184020000000 1.0
C      1  0.4678820000000  0.5125220000000  0.5138030000000 1.0
C      1  0.5193620000000  0.4823730000000  0.6050030000000 1.0
C      1  0.4225810000000  0.5032200000000  0.3442150000000 1.0
C      1  0.4709240000000  0.5616060000000  0.5313480000000 1.0
C      1  0.4277850000000  0.4023760000000  0.3538110000000 1.0
C      1  0.4375020000000  0.4402040000000  0.3769280000000 1.0
C      1  0.4969240000000  0.4717030000000  0.5152900000000 1.0
C      1  0.4262790000000  0.4491330000000  0.3514750000000 1.0
C      1  0.4225610000000  0.4752550000000  0.3435790000000 1.0
C      1  0.4325770000000  0.5160130000000  0.3670130000000 1.0
C      1  0.5001650000000  0.5462500000000  0.4657090000000 1.0
C      1  0.4786530000000  0.4926070000000  0.5553560000000 1.0
C      1  0.4832240000000  0.4735810000000  0.5750630000000 1.0
C      1  0.4829100000000  0.5212260000000  0.5570020000000 1.0
C      1  0.5364100000000  0.5068650000000  0.5228670000000 1.0
C      1  0.4763720000000  0.4876950000000  0.5265500000000 1.0
C      1  0.5019040000000  0.5695680000000  0.4514920000000 1.0
C      1  0.4538250000000  0.5245480000000  0.4146450000000 1.0
C      1  0.4692520000000  0.3962520000000  0.4487410000000 1.0
C      1  0.5420730000000  0.4382370000000  0.5629190000000 1.0
C      1  0.5227720000000  0.4825390000000  0.5181830000000 1.0
C      1  0.5335820000000  0.5264140000000  0.5029000000000 1.0
C      1  0.5207690000000  0.5387360000000  0.4831690000000 1.0
C      1  0.5561490000000  0.3895790000000  0.5445080000000 1.0
C      1  0.5919760000000  0.5403530000000  0.5633480000000 1.0
C      1  0.5666010000000  0.4873700000000  0.5569860000000 1.0
C      1  0.4130690000000  0.5177040000000  0.3230830000000 1.0
C      1  0.6043140000000  0.5160350000000  0.5700560000000 1.0
C      1  0.5195900000000  0.4417550000000  0.5794190000000 1.0
C      1  0.4483780000000  0.3969190000000  0.4007960000000 1.0
C      1  0.4206510000000  0.4240600000000  0.3380100000000 1.0
C      1  0.5678910000000  0.5381350000000  0.5478660000000 1.0
C      1  0.5011420000000  0.6001750000000  0.5344850000000 1.0
C      1  0.4862120000000  0.4257350000000  0.4887900000000 1.0
C      1  0.5927110000000  0.4920610000000  0.5666340000000 1.0
C      1  0.5311130000000  0.5049490000000  0.5963040000000 1.0
C      1  0.4770830000000  0.5296020000000  0.4634730000000 1.0
C      1  0.5564790000000  0.4612930000000  0.5559340000000 1.0
C      1  0.5193490000000  0.5774140000000  0.5853010000000 1.0
C      1  0.5050650000000  0.4634630000000  0.5896270000000 1.0
C      1  0.6103290000000  0.5881660000000  0.5800440000000 1.0
C      1  0.5501600000000  0.5123460000000  0.5494930000000 1.0
C      1  0.5495290000000  0.4130570000000  0.5536820000000 1.0
C      1  0.4707870000000  0.5335500000000  0.5334870000000 1.0
C      1  0.4430030000000  0.5223250000000  0.3905480000000 1.0
C      1  0.4588430000000  0.3921840000000  0.4246920000000 1.0
C      1  0.5063830000000  0.5340850000000  0.5664040000000 1.0
C      1  0.6020110000000  0.5648830000000  0.5718070000000 1.0
C      1  0.4387930000000  0.4110900000000  0.3791920000000 1.0
C      1  0.5100000000000  0.6228440000000  0.5251700000000 1.0
C      1  0.4927050000000  0.5752990000000  0.5439170000000 1.0
C      1  0.4649880000000  0.5254760000000  0.4386590000000 1.0
C      1  0.5599900000000  0.5594890000000  0.5326200000000 1.0
C      1  0.4667380000000  0.5176020000000  0.4865710000000 1.0
C      1  0.4920560000000  0.4472370000000  0.5031180000000 1.0
C      1  0.5298220000000  0.5186960000000  0.5716650000000 1.0
C      1  0.5337120000000  0.5904220000000  0.6027260000000 1.0
END
