TITL C-599894-471-1405 0.0429774204607494 125000 -972.533654804799 0 0 158 (C1) n - 1
REM
REM in /home/nfs/bkarasulu/CARBON/AIRSS/Generating-Clusters/TERSOFF/Only-C1/FIRE-HFTN
REM
REM
REM
REM
REM
REM ./C.cell (11c1c37f851c82e70ff6c80c92926a4b)
REM AIRSS Version 0.9.1 bugfix July 2018 build 013d7b7c2542+ Fri, 06 Jul 2018 19:26:36 +0100
REM compiler GCC version 9.2.1 20190827 (Red Hat 9.2.1-1)
REM options -cpp -mtune=generic -march=x86-64 -g -O0 -fpre-include=/usr/include/finclude/math-vector-fortran.h
REM seed 588936273 -1881284806 2061289161 1576431359 1928221403 -632087088 -182334871 -1668591068 153506603 184438843 -490040592 -909499584 1906687045 1554726841 -1453349183 -2111380510 338395051 -1109534210 -1183942593 1574849454 -1316352784 -503957926 -7683154 -1562057398 1218992265 -1736081431 -978441488 -908640784 -1639799323 837926798 -1462109871 997366097 1210902979
REM
CELL 1.54180   50.00000   50.00000   50.00000   90.00000   90.00000   90.00000
LATT -1
SFAC C  
C      1  0.4451590000000  0.4003590000000  0.5414690000000 1.0
C      1  0.4102740000000  0.5754190000000  0.4802870000000 1.0
C      1  0.4084420000000  0.5252420000000  0.5069050000000 1.0
C      1  0.5005160000000  0.4930450000000  0.5074190000000 1.0
C      1  0.4824440000000  0.5985820000000  0.4107850000000 1.0
C      1  0.3573710000000  0.5663600000000  0.4291030000000 1.0
C      1  0.5120390000000  0.3921910000000  0.4896020000000 1.0
C      1  0.4984460000000  0.6171290000000  0.4696230000000 1.0
C      1  0.4862310000000  0.4586210000000  0.5562920000000 1.0
C      1  0.3881470000000  0.4250130000000  0.4688020000000 1.0
C      1  0.5482310000000  0.5871330000000  0.5697620000000 1.0
C      1  0.5228860000000  0.6187620000000  0.4841190000000 1.0
C      1  0.4566430000000  0.4395820000000  0.5108200000000 1.0
C      1  0.6190210000000  0.3823240000000  0.5152290000000 1.0
C      1  0.4815410000000  0.5091980000000  0.6596370000000 1.0
C      1  0.5455610000000  0.4691540000000  0.5096450000000 1.0
C      1  0.5417900000000  0.4246200000000  0.4474310000000 1.0
C      1  0.5546940000000  0.5071910000000  0.4129310000000 1.0
C      1  0.5451840000000  0.4264180000000  0.5514070000000 1.0
C      1  0.4176520000000  0.5470560000000  0.5236780000000 1.0
C      1  0.4488270000000  0.4157410000000  0.4454550000000 1.0
C      1  0.5246980000000  0.5824840000000  0.5849310000000 1.0
C      1  0.4510040000000  0.6031740000000  0.4766280000000 1.0
C      1  0.6078130000000  0.5464220000000  0.5398130000000 1.0
C      1  0.4731220000000  0.6103690000000  0.4593190000000 1.0
C      1  0.5334460000000  0.5967660000000  0.4992200000000 1.0
C      1  0.5160490000000  0.3819760000000  0.3933030000000 1.0
C      1  0.4603010000000  0.4878870000000  0.4171590000000 1.0
C      1  0.5387340000000  0.5501460000000  0.5088980000000 1.0
C      1  0.3895330000000  0.5329090000000  0.4869260000000 1.0
C      1  0.5123740000000  0.5567640000000  0.5865670000000 1.0
C      1  0.4791040000000  0.5259710000000  0.4822000000000 1.0
C      1  0.4806690000000  0.5066620000000  0.4097130000000 1.0
C      1  0.5424600000000  0.5028350000000  0.4656530000000 1.0
C      1  0.4576180000000  0.4678990000000  0.5600890000000 1.0
C      1  0.5478730000000  0.6044310000000  0.5471920000000 1.0
C      1  0.4007220000000  0.4721590000000  0.5700540000000 1.0
C      1  0.4772150000000  0.5278100000000  0.5673510000000 1.0
C      1  0.4955790000000  0.5671060000000  0.5139990000000 1.0
C      1  0.5637480000000  0.4349260000000  0.4313630000000 1.0
C      1  0.5510750000000  0.6648460000000  0.4836130000000 1.0
C      1  0.5165580000000  0.4004710000000  0.4116730000000 1.0
C      1  0.4677210000000  0.5973460000000  0.4343020000000 1.0
C      1  0.5083180000000  0.4919690000000  0.6156860000000 1.0
C      1  0.4149100000000  0.5721460000000  0.5093770000000 1.0
C      1  0.5734970000000  0.4665750000000  0.4662720000000 1.0
C      1  0.5071960000000  0.4477370000000  0.4196690000000 1.0
C      1  0.4680560000000  0.5184470000000  0.6804980000000 1.0
C      1  0.4651400000000  0.3894520000000  0.5577360000000 1.0
C      1  0.5101400000000  0.3817610000000  0.4629580000000 1.0
C      1  0.5052410000000  0.4543410000000  0.5776820000000 1.0
C      1  0.5442130000000  0.5493230000000  0.4564880000000 1.0
C      1  0.3122320000000  0.5788550000000  0.3653900000000 1.0
C      1  0.4937420000000  0.5051910000000  0.5678760000000 1.0
C      1  0.5273190000000  0.5402420000000  0.5322570000000 1.0
C      1  0.6058130000000  0.4551760000000  0.5280470000000 1.0
C      1  0.4124390000000  0.4549370000000  0.4983150000000 1.0
C      1  0.5308230000000  0.5365020000000  0.5964520000000 1.0
C      1  0.4933230000000  0.5510160000000  0.5652530000000 1.0
C      1  0.4473170000000  0.5760970000000  0.4380150000000 1.0
C      1  0.3271120000000  0.5747400000000  0.3863980000000 1.0
C      1  0.4271300000000  0.5047920000000  0.5031430000000 1.0
C      1  0.5703240000000  0.4625830000000  0.4384550000000 1.0
C      1  0.5537050000000  0.4660150000000  0.5805120000000 1.0
C      1  0.5954330000000  0.4818740000000  0.4734400000000 1.0
C      1  0.5620400000000  0.5069400000000  0.5390160000000 1.0
C      1  0.3422410000000  0.5705560000000  0.4077560000000 1.0
C      1  0.5182740000000  0.4673320000000  0.4017280000000 1.0
C      1  0.5323910000000  0.4467700000000  0.5707690000000 1.0
C      1  0.4409310000000  0.4601280000000  0.4987670000000 1.0
C      1  0.5466900000000  0.4629880000000  0.3977530000000 1.0
C      1  0.4314450000000  0.5856160000000  0.4627100000000 1.0
C      1  0.5585370000000  0.5263240000000  0.4665820000000 1.0
C      1  0.4979560000000  0.5810730000000  0.3959940000000 1.0
C      1  0.5650110000000  0.4821260000000  0.5262550000000 1.0
C      1  0.4862970000000  0.3828950000000  0.5722730000000 1.0
C      1  0.4841830000000  0.4424980000000  0.5083180000000 1.0
C      1  0.6031480000000  0.5222330000000  0.4973230000000 1.0
C      1  0.4578880000000  0.5934060000000  0.5020280000000 1.0
C      1  0.5777600000000  0.5329590000000  0.4874940000000 1.0
C      1  0.4098370000000  0.4545150000000  0.5501230000000 1.0
C      1  0.5231600000000  0.5856620000000  0.3827260000000 1.0
C      1  0.6182280000000  0.5410450000000  0.5134390000000 1.0
C      1  0.4992370000000  0.5360980000000  0.4656850000000 1.0
C      1  0.4949200000000  0.4481350000000  0.4832020000000 1.0
C      1  0.4630050000000  0.3927540000000  0.4875010000000 1.0
C      1  0.4239610000000  0.3851140000000  0.5333110000000 1.0
C      1  0.4968350000000  0.5520690000000  0.4008110000000 1.0
C      1  0.5673690000000  0.5647070000000  0.5694080000000 1.0
C      1  0.5319510000000  0.4113100000000  0.4977320000000 1.0
C      1  0.4548390000000  0.5509220000000  0.4254350000000 1.0
C      1  0.4466060000000  0.4406760000000  0.4353600000000 1.0
C      1  0.3726450000000  0.5620430000000  0.4503050000000 1.0
C      1  0.5015960000000  0.4657450000000  0.4626140000000 1.0
C      1  0.4761420000000  0.5009290000000  0.4955060000000 1.0
C      1  0.5174340000000  0.5012940000000  0.5565950000000 1.0
C      1  0.4981640000000  0.4544810000000  0.5300480000000 1.0
C      1  0.5372310000000  0.6427670000000  0.4835090000000 1.0
C      1  0.4629130000000  0.4632140000000  0.4307220000000 1.0
C      1  0.5430210000000  0.4288740000000  0.4769120000000 1.0
C      1  0.5077430000000  0.3777290000000  0.5861630000000 1.0
C      1  0.5746900000000  0.4285640000000  0.5547100000000 1.0
C      1  0.4334170000000  0.5390110000000  0.5460810000000 1.0
C      1  0.5584480000000  0.4368900000000  0.4026350000000 1.0
C      1  0.5360590000000  0.5163580000000  0.5426880000000 1.0
C      1  0.5852060000000  0.4695390000000  0.5416240000000 1.0
C      1  0.3916640000000  0.4897440000000  0.4379630000000 1.0
C      1  0.3898540000000  0.5570240000000  0.4714500000000 1.0
C      1  0.4506510000000  0.5213660000000  0.5605650000000 1.0
C      1  0.5622710000000  0.4803550000000  0.4165230000000 1.0
C      1  0.4495320000000  0.4879870000000  0.4983470000000 1.0
C      1  0.5523380000000  0.4928180000000  0.5929280000000 1.0
C      1  0.5977910000000  0.4274800000000  0.5352930000000 1.0
C      1  0.4631330000000  0.3956260000000  0.4590390000000 1.0
C      1  0.5214480000000  0.4861170000000  0.4630200000000 1.0
C      1  0.3998910000000  0.4534870000000  0.5237500000000 1.0
C      1  0.5294490000000  0.5152240000000  0.4027360000000 1.0
C      1  0.3981290000000  0.4505120000000  0.4743860000000 1.0
C      1  0.3939080000000  0.4714480000000  0.4563890000000 1.0
C      1  0.6203230000000  0.4737380000000  0.5119130000000 1.0
C      1  0.5290900000000  0.5076820000000  0.6041780000000 1.0
C      1  0.4862310000000  0.3908260000000  0.5020290000000 1.0
C      1  0.4694100000000  0.5678060000000  0.5041220000000 1.0
C      1  0.5663300000000  0.5531530000000  0.5041040000000 1.0
C      1  0.5860540000000  0.5651680000000  0.5453810000000 1.0
C      1  0.6094760000000  0.4940030000000  0.4943600000000 1.0
C      1  0.4547910000000  0.5275460000000  0.7010140000000 1.0
C      1  0.4759840000000  0.5359110000000  0.4119150000000 1.0
C      1  0.5768290000000  0.4565700000000  0.5656570000000 1.0
C      1  0.5546670000000  0.4546620000000  0.4853800000000 1.0
C      1  0.4466850000000  0.4276420000000  0.5345890000000 1.0
C      1  0.4441460000000  0.4938820000000  0.5674340000000 1.0
C      1  0.5590220000000  0.5416640000000  0.5870030000000 1.0
C      1  0.5740290000000  0.5750260000000  0.5206410000000 1.0
C      1  0.6091820000000  0.4042030000000  0.5254060000000 1.0
C      1  0.6409880000000  0.5529680000000  0.5041520000000 1.0
C      1  0.5176090000000  0.4726200000000  0.5176890000000 1.0
C      1  0.6067370000000  0.5232490000000  0.5555550000000 1.0
C      1  0.5080030000000  0.4955350000000  0.4030790000000 1.0
C      1  0.5379590000000  0.5623050000000  0.3819770000000 1.0
C      1  0.4600650000000  0.5456520000000  0.4883150000000 1.0
C      1  0.4896930000000  0.4588560000000  0.4383290000000 1.0
C      1  0.5231820000000  0.5408610000000  0.3941250000000 1.0
C      1  0.5817890000000  0.5117060000000  0.5593630000000 1.0
C      1  0.5700960000000  0.5147490000000  0.5844450000000 1.0
C      1  0.5188690000000  0.5564240000000  0.4677840000000 1.0
C      1  0.5200590000000  0.5697010000000  0.4950310000000 1.0
C      1  0.3804560000000  0.4004850000000  0.4645190000000 1.0
C      1  0.4949230000000  0.5001130000000  0.6386640000000 1.0
C      1  0.5540160000000  0.5964960000000  0.5205650000000 1.0
C      1  0.5016870000000  0.4677510000000  0.6024130000000 1.0
C      1  0.5364320000000  0.4159140000000  0.5260440000000 1.0
C      1  0.4377510000000  0.4475590000000  0.5526220000000 1.0
C      1  0.5195370000000  0.4230090000000  0.4280710000000 1.0
C      1  0.4868360000000  0.3834760000000  0.4485070000000 1.0
C      1  0.5033850000000  0.5548220000000  0.5388950000000 1.0
C      1  0.4378810000000  0.5420020000000  0.4730720000000 1.0
C      1  0.4183450000000  0.4905160000000  0.5793710000000 1.0
END
