TITL C-599896-8500-922 38906.0652215304 125000 -796.197551341615 0 0 133 (C1) n - 1
REM
REM in /home/nfs/bkarasulu/CARBON/AIRSS/Generating-Clusters/TERSOFF/Only-C1/FIRE-HFTN
REM
REM
REM
REM
REM
REM ./C.cell (11c1c37f851c82e70ff6c80c92926a4b)
REM AIRSS Version 0.9.1 bugfix July 2018 build 013d7b7c2542+ Fri, 06 Jul 2018 19:26:36 +0100
REM compiler GCC version 9.2.1 20190827 (Red Hat 9.2.1-1)
REM options -cpp -mtune=generic -march=x86-64 -g -O0 -fpre-include=/usr/include/finclude/math-vector-fortran.h
REM seed -1117824339 -1200136744 726181484 -100374216 -1913726478 -601937173 715985468 -1262571158 -65048488 35969971 1259928026 1735401696 1229775930 -1766610986 1940596403 2087921917 1093231174 220133903 964507045 2117986614 -195497723 -624979170 -683850733 -2070139867 -341860061 -1071967379 -1336705834 -306319881 -1995097977 396412992 30986236 -780974604 -1234923173
REM
CELL 1.54180   50.00000   50.00000   50.00000   90.00000   90.00000   90.00000
LATT -1
SFAC C  
C      1  0.5300840000000  0.4764380000000  0.4946550000000 1.0
C      1  0.4662690000000  0.4595830000000  0.4016270000000 1.0
C      1  0.5865970000000  0.4572890000000  0.5075190000000 1.0
C      1  0.4161250000000  0.5362600000000  0.4325510000000 1.0
C      1  0.5846680000000  0.4581430000000  0.4574010000000 1.0
C      1  0.5358400000000  0.4673110000000  0.4227000000000 1.0
C      1  0.4512740000000  0.4208120000000  0.4463230000000 1.0
C      1  0.4378550000000  0.4805870000000  0.5943520000000 1.0
C      1  0.5264300000000  0.5252590000000  0.5394310000000 1.0
C      1  0.5774700000000  0.4382390000000  0.5297540000000 1.0
C      1  0.5078630000000  0.6052470000000  0.5083910000000 1.0
C      1  0.4261970000000  0.4641290000000  0.4289990000000 1.0
C      1  0.5103680000000  0.5049270000000  0.4313440000000 1.0
C      1  0.4942300000000  0.4683150000000  0.3942400000000 1.0
C      1  0.5340740000000  0.5529640000000  0.4176760000000 1.0
C      1  0.4829310000000  0.5564670000000  0.5388020000000 1.0
C      1  0.5134100000000  0.4508260000000  0.4098280000000 1.0
C      1  0.4558770000000  0.4624170000000  0.5814290000000 1.0
C      1  0.4865000000000  0.4339450000000  0.5625120000000 1.0
C      1  0.6166050000000  0.5425740000000  0.5029340000000 1.0
C      1  0.4136350000000  0.4550440000000  0.5301720000000 1.0
C      1  0.4592620000000  0.5409880000000  0.5500170000000 1.0
C      1  0.5069010000000  0.5446140000000  0.4799330000000 1.0
C      1  0.5620790000000  0.4437220000000  0.5534910000000 1.0
C      1  0.6193940000000  0.5075100000000  0.5770940000000 1.0
C      1  0.5107130000000  0.4891100000000  0.3823740000000 1.0
C      1  0.4654940000000  0.4566440000000  0.4771060000000 1.0
C      1  0.4527990000000  0.5204490000000  0.5306950000000 1.0
C      1  0.5542520000000  0.5235150000000  0.5361230000000 1.0
C      1  0.4815660000000  0.4746670000000  0.4632630000000 1.0
C      1  0.4666680000000  0.4341240000000  0.4164920000000 1.0
C      1  0.4756970000000  0.4137920000000  0.4590340000000 1.0
C      1  0.5695530000000  0.5028810000000  0.4328840000000 1.0
C      1  0.5168360000000  0.4354800000000  0.4597430000000 1.0
C      1  0.4084240000000  0.5431400000000  0.4970300000000 1.0
C      1  0.4110500000000  0.4769040000000  0.5968990000000 1.0
C      1  0.5397220000000  0.4596810000000  0.5463890000000 1.0
C      1  0.4201590000000  0.5090640000000  0.4290660000000 1.0
C      1  0.5231100000000  0.3798550000000  0.5425230000000 1.0
C      1  0.5824540000000  0.4860350000000  0.4539330000000 1.0
C      1  0.4835650000000  0.4696360000000  0.5931180000000 1.0
C      1  0.5621400000000  0.5689420000000  0.5380060000000 1.0
C      1  0.5529480000000  0.4891020000000  0.4112820000000 1.0
C      1  0.4895200000000  0.5011160000000  0.5584720000000 1.0
C      1  0.4865030000000  0.4764990000000  0.5148710000000 1.0
C      1  0.4921290000000  0.5036480000000  0.5114000000000 1.0
C      1  0.5172640000000  0.5582810000000  0.5047450000000 1.0
C      1  0.4783830000000  0.6076980000000  0.4883990000000 1.0
C      1  0.5107740000000  0.5664490000000  0.4607150000000 1.0
C      1  0.4762570000000  0.5362000000000  0.4823050000000 1.0
C      1  0.4712090000000  0.5216710000000  0.5079030000000 1.0
C      1  0.4987410000000  0.5227950000000  0.5994980000000 1.0
C      1  0.5530190000000  0.4338550000000  0.5794730000000 1.0
C      1  0.5062150000000  0.5595000000000  0.4173310000000 1.0
C      1  0.5890730000000  0.5470690000000  0.4969680000000 1.0
C      1  0.5814200000000  0.4437710000000  0.4814730000000 1.0
C      1  0.4653360000000  0.5994940000000  0.5217920000000 1.0
C      1  0.4671390000000  0.5876970000000  0.4715560000000 1.0
C      1  0.5005830000000  0.4471110000000  0.5854600000000 1.0
C      1  0.5160530000000  0.5040640000000  0.5545630000000 1.0
C      1  0.4414140000000  0.5569670000000  0.5660490000000 1.0
C      1  0.4343070000000  0.5829390000000  0.5570080000000 1.0
C      1  0.4352840000000  0.5480990000000  0.5917850000000 1.0
C      1  0.5676260000000  0.4153330000000  0.5138670000000 1.0
C      1  0.4937750000000  0.6025390000000  0.5343450000000 1.0
C      1  0.5782270000000  0.5174810000000  0.5459980000000 1.0
C      1  0.4576910000000  0.4426260000000  0.5593060000000 1.0
C      1  0.5553980000000  0.5765940000000  0.4559210000000 1.0
C      1  0.5629400000000  0.4222110000000  0.4862210000000 1.0
C      1  0.4815930000000  0.5426840000000  0.4202460000000 1.0
C      1  0.5405990000000  0.3629070000000  0.5517990000000 1.0
C      1  0.4528070000000  0.5027360000000  0.6054120000000 1.0
C      1  0.5254810000000  0.5216270000000  0.4763210000000 1.0
C      1  0.4256710000000  0.4829070000000  0.4744090000000 1.0
C      1  0.5090160000000  0.5446080000000  0.5281720000000 1.0
C      1  0.5337220000000  0.4832630000000  0.5594630000000 1.0
C      1  0.4574820000000  0.4759160000000  0.5159810000000 1.0
C      1  0.4339250000000  0.5007290000000  0.4046750000000 1.0
C      1  0.4589560000000  0.5620090000000  0.4870070000000 1.0
C      1  0.4297860000000  0.5555700000000  0.4867350000000 1.0
C      1  0.3984060000000  0.4456720000000  0.5072810000000 1.0
C      1  0.5780580000000  0.5689340000000  0.5136370000000 1.0
C      1  0.5326010000000  0.4947330000000  0.4730170000000 1.0
C      1  0.4426720000000  0.4202670000000  0.5121690000000 1.0
C      1  0.5452380000000  0.5883590000000  0.4782790000000 1.0
C      1  0.5198940000000  0.4466180000000  0.5311750000000 1.0
C      1  0.4671400000000  0.5701310000000  0.5158250000000 1.0
C      1  0.5546200000000  0.5539700000000  0.4380220000000 1.0
C      1  0.5994100000000  0.5120750000000  0.5609920000000 1.0
C      1  0.4682800000000  0.4142190000000  0.5051860000000 1.0
C      1  0.5861410000000  0.5008280000000  0.4791210000000 1.0
C      1  0.5260760000000  0.5855260000000  0.4994560000000 1.0
C      1  0.4450540000000  0.4701260000000  0.4907350000000 1.0
C      1  0.4327680000000  0.5566850000000  0.4282780000000 1.0
C      1  0.4421160000000  0.4938560000000  0.5323360000000 1.0
C      1  0.4721640000000  0.5834120000000  0.4434900000000 1.0
C      1  0.5278500000000  0.4387350000000  0.5904140000000 1.0
C      1  0.4963780000000  0.5804570000000  0.5541440000000 1.0
C      1  0.4751640000000  0.5093720000000  0.4590670000000 1.0
C      1  0.4411490000000  0.5278870000000  0.6081490000000 1.0
C      1  0.4428600000000  0.6024540000000  0.5401020000000 1.0
C      1  0.6632650000000  0.5266330000000  0.5209400000000 1.0
C      1  0.3957980000000  0.5028420000000  0.5271570000000 1.0
C      1  0.4856530000000  0.5180490000000  0.4343390000000 1.0
C      1  0.5094910000000  0.5462510000000  0.5890850000000 1.0
C      1  0.5047660000000  0.4256800000000  0.5425170000000 1.0
C      1  0.4846580000000  0.3941380000000  0.5152920000000 1.0
C      1  0.5176700000000  0.5681400000000  0.5706210000000 1.0
C      1  0.4747590000000  0.4294860000000  0.4826990000000 1.0
C      1  0.4291410000000  0.4228830000000  0.4762600000000 1.0
C      1  0.4600850000000  0.5615520000000  0.4283650000000 1.0
C      1  0.4191820000000  0.4860090000000  0.4471390000000 1.0
C      1  0.5687760000000  0.5304730000000  0.4467260000000 1.0
C      1  0.5441940000000  0.5704740000000  0.5587040000000 1.0
C      1  0.5367630000000  0.4972880000000  0.3882410000000 1.0
C      1  0.5797240000000  0.5292500000000  0.4753940000000 1.0
C      1  0.5244280000000  0.4828060000000  0.4466660000000 1.0
C      1  0.4047820000000  0.4338150000000  0.4833070000000 1.0
C      1  0.4153480000000  0.4839120000000  0.5346270000000 1.0
C      1  0.4421630000000  0.4733630000000  0.4059630000000 1.0
C      1  0.3954790000000  0.5250510000000  0.5119580000000 1.0
C      1  0.5884010000000  0.5940050000000  0.5072160000000 1.0
C      1  0.5384550000000  0.4240420000000  0.4731740000000 1.0
C      1  0.6407460000000  0.5354520000000  0.5112100000000 1.0
C      1  0.4820640000000  0.4985950000000  0.6026860000000 1.0
C      1  0.5003660000000  0.5794540000000  0.4380940000000 1.0
C      1  0.5051290000000  0.3989930000000  0.5336570000000 1.0
C      1  0.4960650000000  0.4282680000000  0.4188690000000 1.0
C      1  0.5106050000000  0.4624650000000  0.5104230000000 1.0
C      1  0.5901210000000  0.4852570000000  0.5029020000000 1.0
C      1  0.5001030000000  0.4177650000000  0.4449890000000 1.0
C      1  0.5061570000000  0.4626330000000  0.4570900000000 1.0
C      1  0.4372150000000  0.4373700000000  0.5360370000000 1.0
END
