TITL C-599895-9959-281 3.39594279940406 125000 -222.235606366658 0 0 39 (C1) n - 1
REM
REM in /home/nfs/bkarasulu/CARBON/AIRSS/Generating-Clusters/TERSOFF/Only-C1/FIRE-HFTN
REM
REM
REM
REM
REM
REM ./C.cell (11c1c37f851c82e70ff6c80c92926a4b)
REM AIRSS Version 0.9.1 bugfix July 2018 build 013d7b7c2542+ Fri, 06 Jul 2018 19:26:36 +0100
REM compiler GCC version 9.2.1 20190827 (Red Hat 9.2.1-1)
REM options -cpp -mtune=generic -march=x86-64 -g -O0 -fpre-include=/usr/include/finclude/math-vector-fortran.h
REM seed 1071036898 1759784716 -304011021 -1826792257 1966999054 -1309917155 -1703558497 1872731964 310565068 990051725 1565346739 1339236840 1774146685 1748108831 1950174900 40267039 -768084677 -1195852103 317683156 -799625931 386792935 -698107674 -1859121585 95372134 -258578143 -1873363468 1871065910 -1073105904 -2124159334 -2140735850 212932638 156669246 435702860
REM
CELL 1.54180   50.00000   50.00000   50.00000   90.00000   90.00000   90.00000
LATT -1
SFAC C  
C      1  0.5479940000000  0.5103420000000  0.4316140000000 1.0
C      1  0.4347200000000  0.4832450000000  0.5268350000000 1.0
C      1  0.4981350000000  0.4397800000000  0.5535410000000 1.0
C      1  0.4331270000000  0.5465800000000  0.4285350000000 1.0
C      1  0.4955250000000  0.5244930000000  0.4598560000000 1.0
C      1  0.4081150000000  0.5560040000000  0.4268470000000 1.0
C      1  0.4523840000000  0.4694900000000  0.5410300000000 1.0
C      1  0.5751150000000  0.5328070000000  0.5445830000000 1.0
C      1  0.5651790000000  0.5101960000000  0.5315430000000 1.0
C      1  0.5216910000000  0.4579970000000  0.5558700000000 1.0
C      1  0.5917230000000  0.4727700000000  0.5469280000000 1.0
C      1  0.4939840000000  0.4098200000000  0.6005230000000 1.0
C      1  0.5845820000000  0.5542330000000  0.5569450000000 1.0
C      1  0.4863880000000  0.5224270000000  0.4128570000000 1.0
C      1  0.5080500000000  0.4340330000000  0.5048780000000 1.0
C      1  0.3855060000000  0.5535800000000  0.4411040000000 1.0
C      1  0.5940600000000  0.5756760000000  0.5693110000000 1.0
C      1  0.5017390000000  0.4219160000000  0.5293790000000 1.0
C      1  0.5197300000000  0.5193880000000  0.4723540000000 1.0
C      1  0.5529760000000  0.5125390000000  0.5065430000000 1.0
C      1  0.5141400000000  0.4475530000000  0.4834440000000 1.0
C      1  0.5450940000000  0.5125490000000  0.4591310000000 1.0
C      1  0.4732540000000  0.4559160000000  0.5500620000000 1.0
C      1  0.5440040000000  0.4718640000000  0.5526240000000 1.0
C      1  0.4373540000000  0.5178490000000  0.4668270000000 1.0
C      1  0.4986460000000  0.3947840000000  0.5314440000000 1.0
C      1  0.4767190000000  0.5260070000000  0.4390100000000 1.0
C      1  0.4223290000000  0.4975480000000  0.5082790000000 1.0
C      1  0.4959170000000  0.4233270000000  0.5783360000000 1.0
C      1  0.5346440000000  0.5118350000000  0.4085070000000 1.0
C      1  0.6033820000000  0.5967660000000  0.5814750000000 1.0
C      1  0.4170470000000  0.5128540000000  0.4856150000000 1.0
C      1  0.3917950000000  0.5242310000000  0.4807710000000 1.0
C      1  0.3790640000000  0.5402520000000  0.4634910000000 1.0
C      1  0.5644120000000  0.5086680000000  0.4801630000000 1.0
C      1  0.4493400000000  0.5300660000000  0.4445170000000 1.0
C      1  0.5253410000000  0.5191930000000  0.5006880000000 1.0
C      1  0.5095210000000  0.5167480000000  0.4006280000000 1.0
C      1  0.5672760000000  0.4846760000000  0.5439110000000 1.0
END
