TITL C-599896-8500-1302 0.0362414353926906 125000 -860.880489890435 0 0 139 (C1) n - 1
REM
REM in /home/nfs/bkarasulu/CARBON/AIRSS/Generating-Clusters/TERSOFF/Only-C1/FIRE-HFTN
REM
REM
REM
REM
REM
REM ./C.cell (11c1c37f851c82e70ff6c80c92926a4b)
REM AIRSS Version 0.9.1 bugfix July 2018 build 013d7b7c2542+ Fri, 06 Jul 2018 19:26:36 +0100
REM compiler GCC version 9.2.1 20190827 (Red Hat 9.2.1-1)
REM options -cpp -mtune=generic -march=x86-64 -g -O0 -fpre-include=/usr/include/finclude/math-vector-fortran.h
REM seed -57652540 222182144 1044317242 1944967349 2146749206 1469844989 -1626531 2130369815 2109552977 -1633834832 -1461723328 -317095981 -1905829275 -646214896 192275095 798108980 -1409282845 -1160857099 1129381718 885529997 988220055 -824286541 -1710247781 -379039653 1604563411 -2774154 -913405391 -1889742759 918017945 -1246570692 2113543269 774890787 743839173
REM
CELL 1.54180   50.00000   50.00000   50.00000   90.00000   90.00000   90.00000
LATT -1
SFAC C  
C      1  0.5262770000000  0.4531960000000  0.4788180000000 1.0
C      1  0.5910240000000  0.4874370000000  0.5539780000000 1.0
C      1  0.4603980000000  0.5534570000000  0.5683400000000 1.0
C      1  0.4915310000000  0.4997520000000  0.6046140000000 1.0
C      1  0.5483470000000  0.5131990000000  0.4383320000000 1.0
C      1  0.5183090000000  0.5125650000000  0.5488850000000 1.0
C      1  0.5001090000000  0.3785150000000  0.4810400000000 1.0
C      1  0.4682660000000  0.4956200000000  0.5290760000000 1.0
C      1  0.4321330000000  0.5211790000000  0.5085930000000 1.0
C      1  0.4152560000000  0.4936900000000  0.5674490000000 1.0
C      1  0.5080820000000  0.4890110000000  0.4156470000000 1.0
C      1  0.5970780000000  0.4723040000000  0.4884250000000 1.0
C      1  0.5135960000000  0.4438760000000  0.5037640000000 1.0
C      1  0.4455690000000  0.4715930000000  0.6009140000000 1.0
C      1  0.5410690000000  0.6236800000000  0.4122180000000 1.0
C      1  0.4625460000000  0.5726260000000  0.4644890000000 1.0
C      1  0.5052160000000  0.4053140000000  0.5617800000000 1.0
C      1  0.5347700000000  0.5008530000000  0.5066420000000 1.0
C      1  0.4575500000000  0.4146220000000  0.4597750000000 1.0
C      1  0.4926250000000  0.5357100000000  0.3941670000000 1.0
C      1  0.5272320000000  0.6289740000000  0.5105430000000 1.0
C      1  0.5284610000000  0.5577420000000  0.5349370000000 1.0
C      1  0.4058700000000  0.4996620000000  0.4678210000000 1.0
C      1  0.4249010000000  0.4626320000000  0.4963510000000 1.0
C      1  0.4472430000000  0.4519990000000  0.5102800000000 1.0
C      1  0.5808320000000  0.5406090000000  0.5081630000000 1.0
C      1  0.4710230000000  0.5590230000000  0.5425760000000 1.0
C      1  0.5456160000000  0.5022440000000  0.5955160000000 1.0
C      1  0.4035110000000  0.4930510000000  0.5414180000000 1.0
C      1  0.5490290000000  0.4363000000000  0.4700290000000 1.0
C      1  0.5555110000000  0.6446740000000  0.4067140000000 1.0
C      1  0.4136260000000  0.4191990000000  0.4681860000000 1.0
C      1  0.4073230000000  0.4945040000000  0.4201090000000 1.0
C      1  0.4828730000000  0.5269620000000  0.6046370000000 1.0
C      1  0.4178530000000  0.4867310000000  0.4454460000000 1.0
C      1  0.4804090000000  0.5508160000000  0.5894220000000 1.0
C      1  0.4335380000000  0.5415580000000  0.5664850000000 1.0
C      1  0.5649620000000  0.4696850000000  0.4330020000000 1.0
C      1  0.4447070000000  0.5669280000000  0.5080410000000 1.0
C      1  0.5117860000000  0.5814680000000  0.4251190000000 1.0
C      1  0.5195660000000  0.5305800000000  0.3975190000000 1.0
C      1  0.3887100000000  0.5545400000000  0.5342060000000 1.0
C      1  0.4794540000000  0.4956990000000  0.4156620000000 1.0
C      1  0.5806720000000  0.4682390000000  0.5721000000000 1.0
C      1  0.4622980000000  0.4978830000000  0.4698160000000 1.0
C      1  0.5539250000000  0.5981180000000  0.5387190000000 1.0
C      1  0.4152440000000  0.5505540000000  0.5451100000000 1.0
C      1  0.5351500000000  0.4358930000000  0.5208020000000 1.0
C      1  0.5730460000000  0.5358660000000  0.5641540000000 1.0
C      1  0.5291040000000  0.5098390000000  0.4152000000000 1.0
C      1  0.5286370000000  0.5473430000000  0.5817120000000 1.0
C      1  0.5437130000000  0.4581960000000  0.4202610000000 1.0
C      1  0.4298720000000  0.5466230000000  0.5208760000000 1.0
C      1  0.4611070000000  0.4763490000000  0.4259720000000 1.0
C      1  0.4858420000000  0.5154170000000  0.5182840000000 1.0
C      1  0.5292830000000  0.6117860000000  0.5330110000000 1.0
C      1  0.5693610000000  0.4939660000000  0.4481760000000 1.0
C      1  0.4108160000000  0.5209390000000  0.4140670000000 1.0
C      1  0.5780330000000  0.4417310000000  0.5592280000000 1.0
C      1  0.5893790000000  0.5181590000000  0.4919750000000 1.0
C      1  0.4691620000000  0.4679180000000  0.5210170000000 1.0
C      1  0.5195820000000  0.5635790000000  0.4891980000000 1.0
C      1  0.5293840000000  0.5023260000000  0.4792470000000 1.0
C      1  0.4971250000000  0.3660950000000  0.5043830000000 1.0
C      1  0.4636850000000  0.4102360000000  0.5294720000000 1.0
C      1  0.5419760000000  0.5509330000000  0.4771600000000 1.0
C      1  0.4813470000000  0.4505880000000  0.4711710000000 1.0
C      1  0.6014590000000  0.4594970000000  0.5123380000000 1.0
C      1  0.5334940000000  0.4100270000000  0.5590970000000 1.0
C      1  0.6108310000000  0.3996120000000  0.4029820000000 1.0
C      1  0.4718020000000  0.5976030000000  0.4747490000000 1.0
C      1  0.5526280000000  0.5304140000000  0.5866540000000 1.0
C      1  0.5683930000000  0.4117040000000  0.4315350000000 1.0
C      1  0.5647200000000  0.4806500000000  0.5925040000000 1.0
C      1  0.5763570000000  0.4941140000000  0.5324570000000 1.0
C      1  0.4614870000000  0.5812070000000  0.5265640000000 1.0
C      1  0.4185050000000  0.4284350000000  0.4420980000000 1.0
C      1  0.5170330000000  0.4939940000000  0.5917500000000 1.0
C      1  0.4862090000000  0.4791480000000  0.4714090000000 1.0
C      1  0.5668960000000  0.5566270000000  0.4884870000000 1.0
C      1  0.5896990000000  0.4053370000000  0.4171330000000 1.0
C      1  0.5263630000000  0.6024050000000  0.4180170000000 1.0
C      1  0.4538570000000  0.5404960000000  0.4271260000000 1.0
C      1  0.3918700000000  0.5453530000000  0.4819800000000 1.0
C      1  0.4973670000000  0.5604160000000  0.4362010000000 1.0
C      1  0.5130370000000  0.5087760000000  0.5217130000000 1.0
C      1  0.4933780000000  0.4431640000000  0.4156040000000 1.0
C      1  0.4857430000000  0.5437790000000  0.5230340000000 1.0
C      1  0.4087410000000  0.4854110000000  0.4927350000000 1.0
C      1  0.5135530000000  0.4665070000000  0.5464980000000 1.0
C      1  0.4810170000000  0.6015470000000  0.5236540000000 1.0
C      1  0.5525060000000  0.4841630000000  0.5216830000000 1.0
C      1  0.5400570000000  0.4103130000000  0.5312090000000 1.0
C      1  0.4583940000000  0.5024700000000  0.5542510000000 1.0
C      1  0.5064750000000  0.6285940000000  0.4931400000000 1.0
C      1  0.4513080000000  0.5228100000000  0.4851480000000 1.0
C      1  0.4460370000000  0.4858970000000  0.4479280000000 1.0
C      1  0.5900460000000  0.4392100000000  0.5303990000000 1.0
C      1  0.5234500000000  0.5389130000000  0.5549360000000 1.0
C      1  0.5761730000000  0.6117690000000  0.5467690000000 1.0
C      1  0.5038300000000  0.5897280000000  0.5695800000000 1.0
C      1  0.5035040000000  0.6027830000000  0.5436600000000 1.0
C      1  0.4655670000000  0.4478880000000  0.4228530000000 1.0
C      1  0.5152460000000  0.4794140000000  0.4709050000000 1.0
C      1  0.4470530000000  0.4290370000000  0.4359380000000 1.0
C      1  0.5022510000000  0.4015190000000  0.4652900000000 1.0
C      1  0.5712730000000  0.4297890000000  0.4865840000000 1.0
C      1  0.4358870000000  0.5132130000000  0.5671350000000 1.0
C      1  0.4834320000000  0.4224550000000  0.4667220000000 1.0
C      1  0.3832660000000  0.5522410000000  0.5070820000000 1.0
C      1  0.4705520000000  0.4803520000000  0.6066980000000 1.0
C      1  0.5094850000000  0.5575600000000  0.5143490000000 1.0
C      1  0.4850520000000  0.3962540000000  0.5428240000000 1.0
C      1  0.5402400000000  0.4611560000000  0.5343550000000 1.0
C      1  0.5138480000000  0.4890440000000  0.5637210000000 1.0
C      1  0.5337100000000  0.5265960000000  0.4616270000000 1.0
C      1  0.4716580000000  0.5232220000000  0.4099780000000 1.0
C      1  0.4061390000000  0.5290000000000  0.4633210000000 1.0
C      1  0.5638110000000  0.3989310000000  0.5217520000000 1.0
C      1  0.4251120000000  0.5361830000000  0.4337020000000 1.0
C      1  0.5807010000000  0.4188500000000  0.5112730000000 1.0
C      1  0.4121750000000  0.5017860000000  0.5154720000000 1.0
C      1  0.5569100000000  0.4239510000000  0.5703200000000 1.0
C      1  0.5055790000000  0.5656300000000  0.5858300000000 1.0
C      1  0.4385560000000  0.4132720000000  0.4824400000000 1.0
C      1  0.4488560000000  0.4230320000000  0.5084230000000 1.0
C      1  0.4221620000000  0.4741590000000  0.5870580000000 1.0
C      1  0.5231960000000  0.4035340000000  0.4471240000000 1.0
C      1  0.5467900000000  0.4181500000000  0.4479500000000 1.0
C      1  0.5538890000000  0.5698580000000  0.5359580000000 1.0
C      1  0.4954710000000  0.4571250000000  0.5238020000000 1.0
C      1  0.5157930000000  0.4614120000000  0.4158150000000 1.0
C      1  0.5742900000000  0.5486780000000  0.5366030000000 1.0
C      1  0.4844070000000  0.6112360000000  0.4963240000000 1.0
C      1  0.4914280000000  0.3718190000000  0.5298900000000 1.0
C      1  0.5093630000000  0.5379680000000  0.4480140000000 1.0
C      1  0.4692250000000  0.5615190000000  0.4397660000000 1.0
C      1  0.4541550000000  0.5537960000000  0.4835170000000 1.0
C      1  0.5857250000000  0.4951440000000  0.4743250000000 1.0
END
