TITL C-599892-9790-925 -106.289978428582 125000 -913.483049860047 0 0 149 (C1) n - 1
REM
REM in /home/nfs/bkarasulu/CARBON/AIRSS/Generating-Clusters/TERSOFF/Only-C1/FIRE-HFTN
REM
REM
REM
REM
REM
REM ./C.cell (11c1c37f851c82e70ff6c80c92926a4b)
REM AIRSS Version 0.9.1 bugfix July 2018 build 013d7b7c2542+ Fri, 06 Jul 2018 19:26:36 +0100
REM compiler GCC version 9.2.1 20190827 (Red Hat 9.2.1-1)
REM options -cpp -mtune=generic -march=x86-64 -g -O0 -fpre-include=/usr/include/finclude/math-vector-fortran.h
REM seed -1660278036 -649486423 1556186853 394779632 1636388895 -1127091840 1477276359 -1940174274 -1435236249 -944761060 1832154776 -876191251 -1600572348 1321018383 -1157818149 -1829428358 912268928 1130321155 863717431 136315923 108445185 1139592814 -1413911985 154927224 -1412963495 -2132266523 -1477635446 737557708 1574819683 1090824167 366254296 -1847733188 1523112600
REM
CELL 1.54180   50.00000   50.00000   50.00000   90.00000   90.00000   90.00000
LATT -1
SFAC C  
C      1  0.3867760000000  0.4841820000000  0.4395520000000 1.0
C      1  0.3680570000000  0.4675220000000  0.4324060000000 1.0
C      1  0.4890430000000  0.5069800000000  0.5013760000000 1.0
C      1  0.5021080000000  0.4574870000000  0.4831500000000 1.0
C      1  0.4615600000000  0.4116330000000  0.5130110000000 1.0
C      1  0.5619260000000  0.4422680000000  0.5432870000000 1.0
C      1  0.4220060000000  0.4164840000000  0.4822550000000 1.0
C      1  0.5101700000000  0.5317880000000  0.6554870000000 1.0
C      1  0.5239580000000  0.5991790000000  0.5343740000000 1.0
C      1  0.4857090000000  0.4729840000000  0.5266000000000 1.0
C      1  0.4224590000000  0.4078800000000  0.4327940000000 1.0
C      1  0.5497580000000  0.4607910000000  0.5265500000000 1.0
C      1  0.5025740000000  0.5392250000000  0.6316860000000 1.0
C      1  0.4485210000000  0.5882660000000  0.5741960000000 1.0
C      1  0.4052100000000  0.5420410000000  0.4677300000000 1.0
C      1  0.3899360000000  0.5458490000000  0.5924450000000 1.0
C      1  0.4020950000000  0.5877090000000  0.4846590000000 1.0
C      1  0.4918280000000  0.4572400000000  0.6009180000000 1.0
C      1  0.4507600000000  0.5123860000000  0.5799750000000 1.0
C      1  0.4458490000000  0.5607230000000  0.4293020000000 1.0
C      1  0.4625010000000  0.4574600000000  0.4598610000000 1.0
C      1  0.5705150000000  0.4938140000000  0.5940490000000 1.0
C      1  0.4384100000000  0.5624630000000  0.5792360000000 1.0
C      1  0.4809130000000  0.3978320000000  0.4508940000000 1.0
C      1  0.3975650000000  0.5235290000000  0.4908590000000 1.0
C      1  0.5489890000000  0.4965980000000  0.4405270000000 1.0
C      1  0.5923000000000  0.4784520000000  0.4401540000000 1.0
C      1  0.4007510000000  0.5007820000000  0.5076830000000 1.0
C      1  0.5217010000000  0.5863110000000  0.5601830000000 1.0
C      1  0.5234500000000  0.4747530000000  0.4880770000000 1.0
C      1  0.5640190000000  0.4392840000000  0.4389980000000 1.0
C      1  0.5767540000000  0.4207090000000  0.5370100000000 1.0
C      1  0.3863870000000  0.5199520000000  0.5981680000000 1.0
C      1  0.4845350000000  0.5873220000000  0.4436420000000 1.0
C      1  0.4424060000000  0.5110680000000  0.4819350000000 1.0
C      1  0.6042090000000  0.4327080000000  0.4987800000000 1.0
C      1  0.5347920000000  0.5828570000000  0.4420530000000 1.0
C      1  0.4964510000000  0.5455980000000  0.6067310000000 1.0
C      1  0.4487850000000  0.4783600000000  0.4476690000000 1.0
C      1  0.5726810000000  0.5405010000000  0.4001420000000 1.0
C      1  0.5108840000000  0.5649560000000  0.5058160000000 1.0
C      1  0.5965190000000  0.4749790000000  0.4688650000000 1.0
C      1  0.5512410000000  0.4936500000000  0.3878960000000 1.0
C      1  0.5105120000000  0.4114910000000  0.5157940000000 1.0
C      1  0.5960550000000  0.5487940000000  0.6860850000000 1.0
C      1  0.5307290000000  0.5358600000000  0.5523790000000 1.0
C      1  0.4817480000000  0.4472850000000  0.3940660000000 1.0
C      1  0.4416900000000  0.5150970000000  0.5096420000000 1.0
C      1  0.4910790000000  0.4587540000000  0.4571870000000 1.0
C      1  0.5450370000000  0.5823390000000  0.5767100000000 1.0
C      1  0.5418020000000  0.5324470000000  0.5262990000000 1.0
C      1  0.5552190000000  0.5074990000000  0.5234820000000 1.0
C      1  0.5771980000000  0.5551120000000  0.6374190000000 1.0
C      1  0.5431790000000  0.5164550000000  0.4593910000000 1.0
C      1  0.4761930000000  0.5218470000000  0.3948880000000 1.0
C      1  0.5256970000000  0.5695020000000  0.3764310000000 1.0
C      1  0.4112470000000  0.5599250000000  0.5849020000000 1.0
C      1  0.4300720000000  0.4935010000000  0.5908900000000 1.0
C      1  0.5039400000000  0.5293850000000  0.5602290000000 1.0
C      1  0.4627880000000  0.4810200000000  0.5420780000000 1.0
C      1  0.4382640000000  0.5303000000000  0.5305920000000 1.0
C      1  0.4993350000000  0.5271350000000  0.4354550000000 1.0
C      1  0.4916200000000  0.5441580000000  0.4111470000000 1.0
C      1  0.4799570000000  0.5462830000000  0.4754840000000 1.0
C      1  0.4733170000000  0.4102300000000  0.4265820000000 1.0
C      1  0.5769110000000  0.5015900000000  0.4351290000000 1.0
C      1  0.5360310000000  0.4034240000000  0.5008410000000 1.0
C      1  0.4858660000000  0.4018810000000  0.5010460000000 1.0
C      1  0.4910540000000  0.4274930000000  0.4121890000000 1.0
C      1  0.5154960000000  0.6039550000000  0.4813330000000 1.0
C      1  0.4664000000000  0.4246340000000  0.5393380000000 1.0
C      1  0.5457000000000  0.5049790000000  0.5870080000000 1.0
C      1  0.4076460000000  0.5002460000000  0.4478960000000 1.0
C      1  0.5129560000000  0.5558670000000  0.3946300000000 1.0
C      1  0.4149960000000  0.4811030000000  0.5223460000000 1.0
C      1  0.5920170000000  0.4996430000000  0.4855320000000 1.0
C      1  0.4514340000000  0.5157290000000  0.4114020000000 1.0
C      1  0.4813830000000  0.4724260000000  0.3844630000000 1.0
C      1  0.4883070000000  0.5484760000000  0.5776600000000 1.0
C      1  0.4956750000000  0.5773280000000  0.5688410000000 1.0
C      1  0.5663690000000  0.5572640000000  0.6133450000000 1.0
C      1  0.4593030000000  0.5949170000000  0.4571150000000 1.0
C      1  0.4111600000000  0.5280750000000  0.4422290000000 1.0
C      1  0.4892470000000  0.3882620000000  0.4759380000000 1.0
C      1  0.5186800000000  0.5921220000000  0.5073670000000 1.0
C      1  0.5835220000000  0.4163830000000  0.5100980000000 1.0
C      1  0.5528240000000  0.5572150000000  0.5889120000000 1.0
C      1  0.5856300000000  0.5277570000000  0.4439180000000 1.0
C      1  0.5707720000000  0.4323070000000  0.4662960000000 1.0
C      1  0.5137850000000  0.5016970000000  0.4907140000000 1.0
C      1  0.4575720000000  0.5406690000000  0.5786180000000 1.0
C      1  0.4812100000000  0.4581610000000  0.5029500000000 1.0
C      1  0.4377130000000  0.4675860000000  0.5359870000000 1.0
C      1  0.4836280000000  0.5611740000000  0.4990380000000 1.0
C      1  0.5655720000000  0.5183660000000  0.3865120000000 1.0
C      1  0.5147190000000  0.4586850000000  0.5839200000000 1.0
C      1  0.5009440000000  0.5000340000000  0.5637020000000 1.0
C      1  0.5942760000000  0.4478740000000  0.4768720000000 1.0
C      1  0.4459970000000  0.4084200000000  0.4200390000000 1.0
C      1  0.4720050000000  0.4923000000000  0.5694350000000 1.0
C      1  0.5822190000000  0.5015810000000  0.5130140000000 1.0
C      1  0.4617920000000  0.4955060000000  0.4293000000000 1.0
C      1  0.5941950000000  0.4888920000000  0.5826700000000 1.0
C      1  0.5249590000000  0.5266870000000  0.4789130000000 1.0
C      1  0.5330810000000  0.3767640000000  0.4901000000000 1.0
C      1  0.5226960000000  0.4875480000000  0.5822590000000 1.0
C      1  0.4301310000000  0.4921520000000  0.4634890000000 1.0
C      1  0.4744990000000  0.5661610000000  0.4241830000000 1.0
C      1  0.5373830000000  0.4460030000000  0.4321480000000 1.0
C      1  0.4365740000000  0.5773050000000  0.4517950000000 1.0
C      1  0.5111420000000  0.5930400000000  0.4545480000000 1.0
C      1  0.5612070000000  0.6042160000000  0.5811440000000 1.0
C      1  0.4334520000000  0.5353960000000  0.4239580000000 1.0
C      1  0.6060270000000  0.4904660000000  0.5587850000000 1.0
C      1  0.4144740000000  0.5694370000000  0.4684460000000 1.0
C      1  0.5949960000000  0.5245590000000  0.4706860000000 1.0
C      1  0.4979470000000  0.4248240000000  0.5413890000000 1.0
C      1  0.5106190000000  0.3695930000000  0.4767100000000 1.0
C      1  0.5180900000000  0.4293990000000  0.4203860000000 1.0
C      1  0.5606800000000  0.4159200000000  0.4907760000000 1.0
C      1  0.5125380000000  0.4391830000000  0.5621920000000 1.0
C      1  0.4428550000000  0.4410340000000  0.5493060000000 1.0
C      1  0.5385610000000  0.4856630000000  0.5337500000000 1.0
C      1  0.4693240000000  0.4706220000000  0.5916580000000 1.0
C      1  0.5573150000000  0.5690630000000  0.4367460000000 1.0
C      1  0.4407050000000  0.4660470000000  0.5923080000000 1.0
C      1  0.4933880000000  0.4985250000000  0.3850940000000 1.0
C      1  0.5095750000000  0.4855670000000  0.5378220000000 1.0
C      1  0.5868290000000  0.5519970000000  0.6619140000000 1.0
C      1  0.4131810000000  0.4103420000000  0.4577760000000 1.0
C      1  0.5313720000000  0.4740590000000  0.4360080000000 1.0
C      1  0.4739880000000  0.5953440000000  0.5696840000000 1.0
C      1  0.4896010000000  0.5001680000000  0.4344680000000 1.0
C      1  0.5462100000000  0.5325090000000  0.5764370000000 1.0
C      1  0.4635250000000  0.5736130000000  0.5125670000000 1.0
C      1  0.4445090000000  0.4261680000000  0.4954930000000 1.0
C      1  0.5225650000000  0.4969170000000  0.3840180000000 1.0
C      1  0.4572790000000  0.4500520000000  0.4874080000000 1.0
C      1  0.5459700000000  0.4614340000000  0.4983720000000 1.0
C      1  0.5665600000000  0.4704930000000  0.3986350000000 1.0
C      1  0.4571510000000  0.5316980000000  0.4701300000000 1.0
C      1  0.5801040000000  0.4582700000000  0.4229130000000 1.0
C      1  0.4337660000000  0.4432100000000  0.5766230000000 1.0
C      1  0.4037680000000  0.4997080000000  0.5974640000000 1.0
C      1  0.5745940000000  0.5485550000000  0.4274510000000 1.0
C      1  0.5030410000000  0.5379100000000  0.4614360000000 1.0
C      1  0.5039900000000  0.4775030000000  0.4405670000000 1.0
C      1  0.5296840000000  0.5439230000000  0.5031630000000 1.0
C      1  0.6013460000000  0.4959590000000  0.5331230000000 1.0
END
