TITL C-599895-9959-1036 294714.193814327 125000 -1019.92861559731 0 0 167 (C1) n - 1
REM
REM in /home/nfs/bkarasulu/CARBON/AIRSS/Generating-Clusters/TERSOFF/Only-C1/FIRE-HFTN
REM
REM
REM
REM
REM
REM ./C.cell (11c1c37f851c82e70ff6c80c92926a4b)
REM AIRSS Version 0.9.1 bugfix July 2018 build 013d7b7c2542+ Fri, 06 Jul 2018 19:26:36 +0100
REM compiler GCC version 9.2.1 20190827 (Red Hat 9.2.1-1)
REM options -cpp -mtune=generic -march=x86-64 -g -O0 -fpre-include=/usr/include/finclude/math-vector-fortran.h
REM seed 749193094 594582671 -191283841 -1102531821 1373477173 891886984 1571574184 1321524895 -544377984 -1477107191 -1449372943 -404800387 1370563692 141328886 1188365665 -1390055216 534280760 -14638001 -150195761 1935488045 -186557150 696423556 -552982661 1304378118 -198980200 -83702448 -929055260 -279614737 647634836 -280354604 1680578358 -1562316365 729540693
REM
CELL 1.54180   50.00000   50.00000   50.00000   90.00000   90.00000   90.00000
LATT -1
SFAC C  
C      1  0.5064740000000  0.5802720000000  0.5148220000000 1.0
C      1  0.4675670000000  0.5122130000000  0.4870480000000 1.0
C      1  0.3821760000000  0.5591220000000  0.5771850000000 1.0
C      1  0.6041780000000  0.5186520000000  0.4533860000000 1.0
C      1  0.3278870000000  0.4664600000000  0.4905950000000 1.0
C      1  0.5149850000000  0.5329010000000  0.6201840000000 1.0
C      1  0.5446450000000  0.4863300000000  0.5974270000000 1.0
C      1  0.5182060000000  0.4777750000000  0.5886280000000 1.0
C      1  0.5974620000000  0.5578170000000  0.5127690000000 1.0
C      1  0.3327080000000  0.4898410000000  0.5346330000000 1.0
C      1  0.5053250000000  0.4161650000000  0.4413880000000 1.0
C      1  0.4094120000000  0.5630840000000  0.4760770000000 1.0
C      1  0.3761060000000  0.4714470000000  0.5544530000000 1.0
C      1  0.4793580000000  0.4716060000000  0.3892140000000 1.0
C      1  0.6053500000000  0.4913840000000  0.5388420000000 1.0
C      1  0.5315740000000  0.5317390000000  0.5108510000000 1.0
C      1  0.5300460000000  0.4300080000000  0.5576450000000 1.0
C      1  0.5351210000000  0.5047770000000  0.5230020000000 1.0
C      1  0.5805900000000  0.4537030000000  0.5806150000000 1.0
C      1  0.5661690000000  0.5342890000000  0.5383410000000 1.0
C      1  0.5236660000000  0.4046200000000  0.4615830000000 1.0
C      1  0.4777140000000  0.4865380000000  0.4468000000000 1.0
C      1  0.5086910000000  0.3892540000000  0.4810610000000 1.0
C      1  0.6159070000000  0.5359340000000  0.4731760000000 1.0
C      1  0.5263860000000  0.3425980000000  0.5011410000000 1.0
C      1  0.4429800000000  0.4551070000000  0.5207180000000 1.0
C      1  0.4056850000000  0.3980640000000  0.5139360000000 1.0
C      1  0.5336200000000  0.4803930000000  0.4819100000000 1.0
C      1  0.4331250000000  0.4801820000000  0.5931280000000 1.0
C      1  0.5126450000000  0.4503820000000  0.5467420000000 1.0
C      1  0.4755500000000  0.4227900000000  0.4420440000000 1.0
C      1  0.6125600000000  0.5355480000000  0.5016120000000 1.0
C      1  0.5462300000000  0.4991480000000  0.3840100000000 1.0
C      1  0.4844120000000  0.5597150000000  0.5108570000000 1.0
C      1  0.5103360000000  0.5976480000000  0.4372720000000 1.0
C      1  0.5150280000000  0.5916170000000  0.4901450000000 1.0
C      1  0.4928060000000  0.4416130000000  0.5252190000000 1.0
C      1  0.5978380000000  0.4461290000000  0.5060700000000 1.0
C      1  0.5427900000000  0.4718870000000  0.4575290000000 1.0
C      1  0.5679050000000  0.5161670000000  0.4810110000000 1.0
C      1  0.5571970000000  0.5777280000000  0.4291630000000 1.0
C      1  0.4919740000000  0.5443790000000  0.3862020000000 1.0
C      1  0.5401040000000  0.5466880000000  0.5332430000000 1.0
C      1  0.5746170000000  0.5533820000000  0.5827820000000 1.0
C      1  0.4448000000000  0.5986270000000  0.4774650000000 1.0
C      1  0.5374080000000  0.5366110000000  0.6041380000000 1.0
C      1  0.3223660000000  0.4826870000000  0.5110700000000 1.0
C      1  0.5879440000000  0.5525740000000  0.5389150000000 1.0
C      1  0.5280460000000  0.5716500000000  0.5677250000000 1.0
C      1  0.6025880000000  0.4549070000000  0.4784890000000 1.0
C      1  0.4776220000000  0.4235250000000  0.3811100000000 1.0
C      1  0.5861580000000  0.5691760000000  0.5619290000000 1.0
C      1  0.5143160000000  0.4991610000000  0.5432480000000 1.0
C      1  0.5459230000000  0.5367750000000  0.4854330000000 1.0
C      1  0.5254110000000  0.5268250000000  0.4648550000000 1.0
C      1  0.4338440000000  0.5024770000000  0.5763510000000 1.0
C      1  0.5548500000000  0.4370490000000  0.5433310000000 1.0
C      1  0.3464180000000  0.4497330000000  0.4812580000000 1.0
C      1  0.4167000000000  0.5671700000000  0.5432630000000 1.0
C      1  0.4690200000000  0.5412150000000  0.4840800000000 1.0
C      1  0.6214760000000  0.4733960000000  0.4686520000000 1.0
C      1  0.4844950000000  0.4296070000000  0.5797840000000 1.0
C      1  0.5747620000000  0.5186130000000  0.4531550000000 1.0
C      1  0.4916910000000  0.5025510000000  0.4987120000000 1.0
C      1  0.5484200000000  0.4471400000000  0.5171610000000 1.0
C      1  0.4797640000000  0.5046000000000  0.4253400000000 1.0
C      1  0.6061880000000  0.5088330000000  0.5138880000000 1.0
C      1  0.5096880000000  0.5228720000000  0.5603050000000 1.0
C      1  0.5214750000000  0.5470540000000  0.5546060000000 1.0
C      1  0.5833620000000  0.4479390000000  0.4577680000000 1.0
C      1  0.5655470000000  0.4776200000000  0.4193970000000 1.0
C      1  0.4452710000000  0.4548030000000  0.5915770000000 1.0
C      1  0.5375550000000  0.4648830000000  0.4132930000000 1.0
C      1  0.4254030000000  0.5491480000000  0.4268280000000 1.0
C      1  0.4897400000000  0.4874560000000  0.6284710000000 1.0
C      1  0.4662270000000  0.5802570000000  0.4153120000000 1.0
C      1  0.5718800000000  0.5565380000000  0.4150620000000 1.0
C      1  0.5789780000000  0.5040710000000  0.5038420000000 1.0
C      1  0.5649320000000  0.4057530000000  0.4937660000000 1.0
C      1  0.3969050000000  0.5210870000000  0.5045270000000 1.0
C      1  0.5971580000000  0.4616130000000  0.5327570000000 1.0
C      1  0.3935370000000  0.5358660000000  0.5856230000000 1.0
C      1  0.5710000000000  0.4230150000000  0.4521520000000 1.0
C      1  0.4731640000000  0.4452150000000  0.3970540000000 1.0
C      1  0.5668890000000  0.5969950000000  0.5112690000000 1.0
C      1  0.4543510000000  0.5320220000000  0.5464100000000 1.0
C      1  0.4199900000000  0.4409040000000  0.5368710000000 1.0
C      1  0.4572740000000  0.4930950000000  0.4674320000000 1.0
C      1  0.5368950000000  0.5976410000000  0.4193540000000 1.0
C      1  0.4073230000000  0.4253270000000  0.5131360000000 1.0
C      1  0.4703700000000  0.4839840000000  0.5426490000000 1.0
C      1  0.4761300000000  0.5438630000000  0.4560850000000 1.0
C      1  0.5786010000000  0.5227130000000  0.5825710000000 1.0
C      1  0.4846220000000  0.4977170000000  0.3979850000000 1.0
C      1  0.4244020000000  0.5795180000000  0.5189950000000 1.0
C      1  0.4609170000000  0.4428840000000  0.4235300000000 1.0
C      1  0.4379850000000  0.4375460000000  0.5685210000000 1.0
C      1  0.5502860000000  0.5770410000000  0.4577930000000 1.0
C      1  0.4872030000000  0.6145120000000  0.4490150000000 1.0
C      1  0.5960280000000  0.5057700000000  0.5646560000000 1.0
C      1  0.3968030000000  0.4562340000000  0.5477970000000 1.0
C      1  0.4728750000000  0.5480190000000  0.5334460000000 1.0
C      1  0.4582590000000  0.4537590000000  0.4886660000000 1.0
C      1  0.5774320000000  0.5303540000000  0.4065420000000 1.0
C      1  0.5041600000000  0.5452860000000  0.4566480000000 1.0
C      1  0.5461320000000  0.5607880000000  0.5896070000000 1.0
C      1  0.4404860000000  0.4658490000000  0.4256800000000 1.0
C      1  0.4108980000000  0.5008820000000  0.5143940000000 1.0
C      1  0.4953250000000  0.4650630000000  0.4529250000000 1.0
C      1  0.5648860000000  0.4666160000000  0.5981190000000 1.0
C      1  0.4639960000000  0.4319270000000  0.5588960000000 1.0
C      1  0.4941720000000  0.5779430000000  0.4204270000000 1.0
C      1  0.4905320000000  0.4952470000000  0.5258630000000 1.0
C      1  0.3929700000000  0.5743230000000  0.5573370000000 1.0
C      1  0.5170390000000  0.3644790000000  0.4905130000000 1.0
C      1  0.5519160000000  0.4089350000000  0.4679850000000 1.0
C      1  0.5747980000000  0.5949870000000  0.5575280000000 1.0
C      1  0.4418720000000  0.5688020000000  0.4141550000000 1.0
C      1  0.4947690000000  0.4717100000000  0.6051700000000 1.0
C      1  0.3534060000000  0.4847700000000  0.5506530000000 1.0
C      1  0.5149940000000  0.5023700000000  0.4808390000000 1.0
C      1  0.4102370000000  0.5587120000000  0.4484090000000 1.0
C      1  0.4858420000000  0.4537480000000  0.4790490000000 1.0
C      1  0.5303820000000  0.4597610000000  0.5002360000000 1.0
C      1  0.5550390000000  0.5993760000000  0.5369770000000 1.0
C      1  0.5689430000000  0.4694970000000  0.4468000000000 1.0
C      1  0.4846310000000  0.4131710000000  0.5158850000000 1.0
C      1  0.3981740000000  0.4410940000000  0.4901700000000 1.0
C      1  0.5041120000000  0.4510800000000  0.5000470000000 1.0
C      1  0.5279390000000  0.5896340000000  0.5429680000000 1.0
C      1  0.5245720000000  0.5896200000000  0.4636110000000 1.0
C      1  0.5350430000000  0.4725020000000  0.3856310000000 1.0
C      1  0.5271140000000  0.5182660000000  0.3904140000000 1.0
C      1  0.4670040000000  0.4099790000000  0.4672370000000 1.0
C      1  0.5114640000000  0.4184700000000  0.5768380000000 1.0
C      1  0.5157450000000  0.4751230000000  0.5600960000000 1.0
C      1  0.5851570000000  0.4196740000000  0.5060440000000 1.0
C      1  0.4991660000000  0.5169120000000  0.3830540000000 1.0
C      1  0.5293090000000  0.5353970000000  0.4145190000000 1.0
C      1  0.5694650000000  0.5019850000000  0.4020840000000 1.0
C      1  0.5538050000000  0.5135000000000  0.5965250000000 1.0
C      1  0.4298760000000  0.4827460000000  0.5182200000000 1.0
C      1  0.5796320000000  0.4484170000000  0.5530370000000 1.0
C      1  0.5073120000000  0.5559240000000  0.4084320000000 1.0
C      1  0.4261510000000  0.5815710000000  0.4905820000000 1.0
C      1  0.4978220000000  0.5143060000000  0.6284700000000 1.0
C      1  0.4675980000000  0.4534900000000  0.5373150000000 1.0
C      1  0.5218030000000  0.4645330000000  0.4388520000000 1.0
C      1  0.6184170000000  0.4942300000000  0.4516460000000 1.0
C      1  0.4647010000000  0.6106580000000  0.4637460000000 1.0
C      1  0.3710400000000  0.4398190000000  0.4829500000000 1.0
C      1  0.4651060000000  0.5276500000000  0.4344710000000 1.0
C      1  0.5631240000000  0.5065620000000  0.5276000000000 1.0
C      1  0.3953980000000  0.5439180000000  0.4910920000000 1.0
C      1  0.4405030000000  0.4703050000000  0.4742540000000 1.0
C      1  0.4316840000000  0.4929680000000  0.4243900000000 1.0
C      1  0.4143050000000  0.4598100000000  0.4754980000000 1.0
C      1  0.4550240000000  0.5040960000000  0.5561440000000 1.0
C      1  0.4840090000000  0.4015360000000  0.4894690000000 1.0
C      1  0.4175310000000  0.5261720000000  0.5745450000000 1.0
C      1  0.4752920000000  0.4515480000000  0.5977380000000 1.0
C      1  0.5782230000000  0.5742350000000  0.4981200000000 1.0
C      1  0.5603780000000  0.5623550000000  0.4794140000000 1.0
C      1  0.4296030000000  0.5440520000000  0.5542930000000 1.0
C      1  0.4777750000000  0.4765020000000  0.6504920000000 1.0
C      1  0.5435250000000  0.5255230000000  0.4390710000000 1.0
C      1  0.4369090000000  0.5225130000000  0.4279470000000 1.0
END
