TITL C-599894-471-454 2.41349928643125e-05 125000 -446.565342542259 0 0 75 (C1) n - 1
REM
REM in /home/nfs/bkarasulu/CARBON/AIRSS/Generating-Clusters/TERSOFF/Only-C1/FIRE-HFTN
REM
REM
REM
REM
REM
REM ./C.cell (11c1c37f851c82e70ff6c80c92926a4b)
REM AIRSS Version 0.9.1 bugfix July 2018 build 013d7b7c2542+ Fri, 06 Jul 2018 19:26:36 +0100
REM compiler GCC version 9.2.1 20190827 (Red Hat 9.2.1-1)
REM options -cpp -mtune=generic -march=x86-64 -g -O0 -fpre-include=/usr/include/finclude/math-vector-fortran.h
REM seed 2003595552 -1337939315 102425237 -1323233373 274132574 -1577609073 1984002556 -1081373153 -1057493780 -333282769 1546631118 702900681 -828435740 1958225695 549110146 -892910051 557532100 1210177173 1257942295 -1854585203 106630003 156483381 419840041 668626306 -1193421810 -1475096214 645258056 1920267809 -1132607134 -958166788 140594790 -841500565 1896584268
REM
CELL 1.54180   50.00000   50.00000   50.00000   90.00000   90.00000   90.00000
LATT -1
SFAC C  
C      1  0.4619690000000  0.4460020000000  0.5620840000000 1.0
C      1  0.5066450000000  0.4424400000000  0.5441060000000 1.0
C      1  0.4788640000000  0.4861150000000  0.4830410000000 1.0
C      1  0.4956360000000  0.4386470000000  0.5014140000000 1.0
C      1  0.5535820000000  0.5377870000000  0.5323610000000 1.0
C      1  0.4266450000000  0.4845400000000  0.4880690000000 1.0
C      1  0.4428760000000  0.5397300000000  0.4740760000000 1.0
C      1  0.5118740000000  0.4403190000000  0.4540840000000 1.0
C      1  0.4788160000000  0.5056000000000  0.5350350000000 1.0
C      1  0.5367430000000  0.5308230000000  0.5558010000000 1.0
C      1  0.5680840000000  0.4832120000000  0.5128530000000 1.0
C      1  0.5317680000000  0.4990140000000  0.4081160000000 1.0
C      1  0.4551030000000  0.4992050000000  0.5220840000000 1.0
C      1  0.5021130000000  0.4669350000000  0.4936580000000 1.0
C      1  0.6144330000000  0.4907280000000  0.4867710000000 1.0
C      1  0.5572760000000  0.4369890000000  0.4410820000000 1.0
C      1  0.5438200000000  0.5044630000000  0.5654960000000 1.0
C      1  0.4528440000000  0.4323070000000  0.4902580000000 1.0
C      1  0.4843250000000  0.4575250000000  0.4209470000000 1.0
C      1  0.4844040000000  0.5496530000000  0.5575740000000 1.0
C      1  0.5084310000000  0.4152300000000  0.4922100000000 1.0
C      1  0.4700710000000  0.4334990000000  0.5135510000000 1.0
C      1  0.5362980000000  0.6257860000000  0.5376260000000 1.0
C      1  0.4857260000000  0.6145860000000  0.5357700000000 1.0
C      1  0.5180900000000  0.4901080000000  0.4554330000000 1.0
C      1  0.5311620000000  0.4293610000000  0.5376630000000 1.0
C      1  0.4059650000000  0.5010720000000  0.4940850000000 1.0
C      1  0.5151000000000  0.5328820000000  0.5043790000000 1.0
C      1  0.5711960000000  0.5874820000000  0.5342590000000 1.0
C      1  0.4289500000000  0.5408240000000  0.5498720000000 1.0
C      1  0.5428510000000  0.5251600000000  0.5089280000000 1.0
C      1  0.5206570000000  0.5746910000000  0.5435500000000 1.0
C      1  0.4938880000000  0.5035840000000  0.4639830000000 1.0
C      1  0.4129060000000  0.4678240000000  0.4349130000000 1.0
C      1  0.5388380000000  0.4404110000000  0.4199300000000 1.0
C      1  0.4562880000000  0.4380280000000  0.4634240000000 1.0
C      1  0.5588540000000  0.6112540000000  0.5362980000000 1.0
C      1  0.5102330000000  0.4439110000000  0.4260470000000 1.0
C      1  0.4477590000000  0.5023020000000  0.4333500000000 1.0
C      1  0.5440260000000  0.4964340000000  0.5073380000000 1.0
C      1  0.5348320000000  0.4988140000000  0.4348820000000 1.0
C      1  0.4666360000000  0.5029260000000  0.4121640000000 1.0
C      1  0.5163170000000  0.4843000000000  0.5146450000000 1.0
C      1  0.4680800000000  0.5637710000000  0.5362690000000 1.0
C      1  0.5606580000000  0.4338680000000  0.4958140000000 1.0
C      1  0.5138190000000  0.5501650000000  0.5571870000000 1.0
C      1  0.5922500000000  0.4872190000000  0.4999840000000 1.0
C      1  0.4682610000000  0.4714290000000  0.5698570000000 1.0
C      1  0.5176620000000  0.5789260000000  0.5168030000000 1.0
C      1  0.4428920000000  0.5240910000000  0.4515070000000 1.0
C      1  0.4714760000000  0.5919050000000  0.5337590000000 1.0
C      1  0.5100590000000  0.4906410000000  0.3944140000000 1.0
C      1  0.4409960000000  0.5348410000000  0.5735880000000 1.0
C      1  0.5085340000000  0.4714380000000  0.5420950000000 1.0
C      1  0.4777990000000  0.4341330000000  0.5416580000000 1.0
C      1  0.4677240000000  0.5382560000000  0.5776890000000 1.0
C      1  0.5627690000000  0.4348730000000  0.4682340000000 1.0
C      1  0.4432540000000  0.5508070000000  0.5267300000000 1.0
C      1  0.5542650000000  0.4396910000000  0.5241380000000 1.0
C      1  0.4603090000000  0.4547820000000  0.4399190000000 1.0
C      1  0.5094580000000  0.6270840000000  0.5374770000000 1.0
C      1  0.4321050000000  0.5426320000000  0.5007430000000 1.0
C      1  0.5555320000000  0.4804420000000  0.5583110000000 1.0
C      1  0.4392410000000  0.4750390000000  0.4370700000000 1.0
C      1  0.4906570000000  0.5298330000000  0.4573870000000 1.0
C      1  0.5134470000000  0.4150340000000  0.4658860000000 1.0
C      1  0.4999990000000  0.5121320000000  0.5169280000000 1.0
C      1  0.4079750000000  0.5268500000000  0.5024980000000 1.0
C      1  0.4534890000000  0.4881130000000  0.4961360000000 1.0
C      1  0.4869840000000  0.4866280000000  0.5549380000000 1.0
C      1  0.5108220000000  0.5599070000000  0.4989880000000 1.0
C      1  0.5699270000000  0.5606960000000  0.5325760000000 1.0
C      1  0.5174970000000  0.4644290000000  0.4679600000000 1.0
C      1  0.5637460000000  0.4653610000000  0.5346740000000 1.0
C      1  0.4854190000000  0.4824830000000  0.4055720000000 1.0
END
