TITL C-599894-471-1208 -705.821404029285 125000 -1178.24737018052 0 0 193 (C1) n - 1
REM
REM in /home/nfs/bkarasulu/CARBON/AIRSS/Generating-Clusters/TERSOFF/Only-C1/FIRE-HFTN
REM
REM
REM
REM
REM
REM ./C.cell (11c1c37f851c82e70ff6c80c92926a4b)
REM AIRSS Version 0.9.1 bugfix July 2018 build 013d7b7c2542+ Fri, 06 Jul 2018 19:26:36 +0100
REM compiler GCC version 9.2.1 20190827 (Red Hat 9.2.1-1)
REM options -cpp -mtune=generic -march=x86-64 -g -O0 -fpre-include=/usr/include/finclude/math-vector-fortran.h
REM seed 1224767996 2005822587 163027977 -36802120 -571050842 153782820 -815298026 -1317280030 1760618288 -574754648 1636326359 1963049867 525294445 2039145791 -398529359 1285881228 -1545156622 1227234234 1083109825 -747912944 1232452641 -2066730607 236122024 -73361950 -1745933004 -223875633 -1436155080 -1515190958 -770468852 -221090719 1513843991 1205675024 679437691
REM
CELL 1.54180   50.00000   50.00000   50.00000   90.00000   90.00000   90.00000
LATT -1
SFAC C  
C      1  0.5674110000000  0.3885450000000  0.5415640000000 1.0
C      1  0.4333010000000  0.5321390000000  0.5358450000000 1.0
C      1  0.5663200000000  0.4501780000000  0.5248170000000 1.0
C      1  0.4579640000000  0.4542880000000  0.5425690000000 1.0
C      1  0.5512000000000  0.5156630000000  0.5550770000000 1.0
C      1  0.5319980000000  0.5527420000000  0.4168110000000 1.0
C      1  0.4771880000000  0.5091390000000  0.4894020000000 1.0
C      1  0.4632650000000  0.3850420000000  0.4903320000000 1.0
C      1  0.5821530000000  0.4524100000000  0.5726830000000 1.0
C      1  0.3894730000000  0.4797730000000  0.5322240000000 1.0
C      1  0.4775560000000  0.4505900000000  0.4493510000000 1.0
C      1  0.4082980000000  0.4284790000000  0.4039370000000 1.0
C      1  0.4558400000000  0.5649210000000  0.4364770000000 1.0
C      1  0.4537580000000  0.4447120000000  0.4099210000000 1.0
C      1  0.5221030000000  0.5121020000000  0.5115350000000 1.0
C      1  0.5341230000000  0.5293020000000  0.5325400000000 1.0
C      1  0.4492740000000  0.5752860000000  0.5256230000000 1.0
C      1  0.5105740000000  0.5651510000000  0.4987120000000 1.0
C      1  0.5821070000000  0.4305430000000  0.4475780000000 1.0
C      1  0.4507350000000  0.5261120000000  0.5994150000000 1.0
C      1  0.4623860000000  0.5380630000000  0.3934200000000 1.0
C      1  0.4259950000000  0.5755760000000  0.5738650000000 1.0
C      1  0.4854030000000  0.4660300000000  0.5855900000000 1.0
C      1  0.5082180000000  0.4330370000000  0.6165970000000 1.0
C      1  0.4602690000000  0.5204920000000  0.5330560000000 1.0
C      1  0.5296310000000  0.6235280000000  0.5633570000000 1.0
C      1  0.5310720000000  0.4334160000000  0.6326910000000 1.0
C      1  0.5861110000000  0.5495890000000  0.6239340000000 1.0
C      1  0.4079810000000  0.4917760000000  0.4817130000000 1.0
C      1  0.4910180000000  0.4549200000000  0.6111400000000 1.0
C      1  0.4758520000000  0.5027800000000  0.4382270000000 1.0
C      1  0.5282690000000  0.5176700000000  0.5782600000000 1.0
C      1  0.6081250000000  0.4829460000000  0.6086450000000 1.0
C      1  0.4579460000000  0.5909320000000  0.4504710000000 1.0
C      1  0.4328060000000  0.6184470000000  0.4867900000000 1.0
C      1  0.5123890000000  0.4887320000000  0.4044530000000 1.0
C      1  0.5515750000000  0.3944210000000  0.4722680000000 1.0
C      1  0.4636890000000  0.3617860000000  0.4106830000000 1.0
C      1  0.4842900000000  0.4867190000000  0.3926380000000 1.0
C      1  0.4677590000000  0.4706690000000  0.5193160000000 1.0
C      1  0.4839150000000  0.6064830000000  0.5633030000000 1.0
C      1  0.5048320000000  0.4979400000000  0.4912290000000 1.0
C      1  0.5820280000000  0.5927860000000  0.4891550000000 1.0
C      1  0.4472690000000  0.5054840000000  0.4356030000000 1.0
C      1  0.4320130000000  0.4969610000000  0.5000160000000 1.0
C      1  0.4994050000000  0.5600670000000  0.5817550000000 1.0
C      1  0.4093030000000  0.5877950000000  0.4569670000000 1.0
C      1  0.5221580000000  0.4615450000000  0.4521630000000 1.0
C      1  0.4004900000000  0.4340530000000  0.5236780000000 1.0
C      1  0.5884490000000  0.5461390000000  0.5383520000000 1.0
C      1  0.5587280000000  0.5692510000000  0.4498690000000 1.0
C      1  0.4321470000000  0.6264720000000  0.5129320000000 1.0
C      1  0.5331540000000  0.5591430000000  0.5394270000000 1.0
C      1  0.5041430000000  0.6216670000000  0.5755510000000 1.0
C      1  0.4133210000000  0.5093710000000  0.4047500000000 1.0
C      1  0.4150410000000  0.4681630000000  0.5828370000000 1.0
C      1  0.4345110000000  0.5732430000000  0.6005290000000 1.0
C      1  0.5450340000000  0.6004080000000  0.5658790000000 1.0
C      1  0.4829940000000  0.5781190000000  0.5667480000000 1.0
C      1  0.4259440000000  0.5417560000000  0.5617150000000 1.0
C      1  0.5297240000000  0.6382580000000  0.5392710000000 1.0
C      1  0.5065410000000  0.4119680000000  0.5977040000000 1.0
C      1  0.6085330000000  0.4838830000000  0.4387510000000 1.0
C      1  0.5564900000000  0.4263530000000  0.6280350000000 1.0
C      1  0.5774440000000  0.4251420000000  0.5801090000000 1.0
C      1  0.5083360000000  0.4705530000000  0.4774150000000 1.0
C      1  0.4820510000000  0.4761630000000  0.4387080000000 1.0
C      1  0.5807570000000  0.4461240000000  0.4236550000000 1.0
C      1  0.4291850000000  0.5196840000000  0.5809800000000 1.0
C      1  0.6075910000000  0.5824010000000  0.4914040000000 1.0
C      1  0.4673310000000  0.5653780000000  0.5472530000000 1.0
C      1  0.4446830000000  0.5453210000000  0.4910100000000 1.0
C      1  0.5736280000000  0.5363500000000  0.5609970000000 1.0
C      1  0.3911340000000  0.4470450000000  0.4993570000000 1.0
C      1  0.6200490000000  0.4213930000000  0.4773530000000 1.0
C      1  0.6700500000000  0.3692970000000  0.5095060000000 1.0
C      1  0.5521550000000  0.5581080000000  0.4777910000000 1.0
C      1  0.4049400000000  0.5183260000000  0.4661870000000 1.0
C      1  0.5961010000000  0.4637470000000  0.4812680000000 1.0
C      1  0.5441200000000  0.4323050000000  0.5259870000000 1.0
C      1  0.6373190000000  0.4041390000000  0.4876230000000 1.0
C      1  0.5420340000000  0.4998500000000  0.4442260000000 1.0
C      1  0.4968350000000  0.4711800000000  0.5251550000000 1.0
C      1  0.4784460000000  0.5194670000000  0.5950650000000 1.0
C      1  0.6182540000000  0.5602010000000  0.5033770000000 1.0
C      1  0.5696530000000  0.4415540000000  0.3973960000000 1.0
C      1  0.5196550000000  0.4329330000000  0.5410890000000 1.0
C      1  0.4865860000000  0.5559640000000  0.5084390000000 1.0
C      1  0.4704000000000  0.4608760000000  0.3926390000000 1.0
C      1  0.4892310000000  0.4084800000000  0.5758890000000 1.0
C      1  0.5310520000000  0.5754540000000  0.5155770000000 1.0
C      1  0.4182450000000  0.4694890000000  0.4618130000000 1.0
C      1  0.5814600000000  0.4672770000000  0.5055720000000 1.0
C      1  0.4407600000000  0.4998670000000  0.4063880000000 1.0
C      1  0.5339470000000  0.5760480000000  0.4352000000000 1.0
C      1  0.5540750000000  0.3822820000000  0.5192420000000 1.0
C      1  0.5889000000000  0.4746150000000  0.4215850000000 1.0
C      1  0.6002050000000  0.5283110000000  0.6315270000000 1.0
C      1  0.3749990000000  0.5207460000000  0.5539800000000 1.0
C      1  0.3986330000000  0.5484080000000  0.5030720000000 1.0
C      1  0.3978780000000  0.5728720000000  0.5174570000000 1.0
C      1  0.4710100000000  0.6176220000000  0.5396530000000 1.0
C      1  0.5752160000000  0.4884550000000  0.3997480000000 1.0
C      1  0.4248030000000  0.5222000000000  0.4456460000000 1.0
C      1  0.5246550000000  0.4815730000000  0.4312930000000 1.0
C      1  0.4688510000000  0.4317490000000  0.4304920000000 1.0
C      1  0.4767790000000  0.4109290000000  0.5290720000000 1.0
C      1  0.5227520000000  0.5525830000000  0.4770150000000 1.0
C      1  0.5627960000000  0.4674750000000  0.3545760000000 1.0
C      1  0.5570310000000  0.4696830000000  0.3292580000000 1.0
C      1  0.4844900000000  0.4528810000000  0.4769280000000 1.0
C      1  0.5054760000000  0.5422710000000  0.4144660000000 1.0
C      1  0.3931680000000  0.5663530000000  0.4596490000000 1.0
C      1  0.4610610000000  0.4617990000000  0.5705730000000 1.0
C      1  0.5112360000000  0.6371880000000  0.5196810000000 1.0
C      1  0.5882550000000  0.5316010000000  0.4605190000000 1.0
C      1  0.4131310000000  0.4678210000000  0.4326660000000 1.0
C      1  0.4419980000000  0.4254810000000  0.5923780000000 1.0
C      1  0.4456160000000  0.5513110000000  0.6123150000000 1.0
C      1  0.5122160000000  0.4601390000000  0.5452730000000 1.0
C      1  0.5681900000000  0.4657950000000  0.3816700000000 1.0
C      1  0.3975470000000  0.4881420000000  0.4174620000000 1.0
C      1  0.5759400000000  0.4040890000000  0.5615620000000 1.0
C      1  0.5084400000000  0.4709890000000  0.5704410000000 1.0
C      1  0.4882810000000  0.5493730000000  0.3933310000000 1.0
C      1  0.4239600000000  0.5373410000000  0.5094780000000 1.0
C      1  0.5126150000000  0.5333330000000  0.4597820000000 1.0
C      1  0.4254840000000  0.4474110000000  0.4155390000000 1.0
C      1  0.4602900000000  0.5665390000000  0.5012950000000 1.0
C      1  0.5996930000000  0.4384820000000  0.4688520000000 1.0
C      1  0.6538790000000  0.3865890000000  0.4985920000000 1.0
C      1  0.4832450000000  0.3953770000000  0.5059660000000 1.0
C      1  0.4849930000000  0.4087020000000  0.4273730000000 1.0
C      1  0.5767750000000  0.5469300000000  0.4367260000000 1.0
C      1  0.4417650000000  0.6199620000000  0.5401110000000 1.0
C      1  0.4518060000000  0.3399640000000  0.4027950000000 1.0
C      1  0.4853060000000  0.5990440000000  0.4604740000000 1.0
C      1  0.5592070000000  0.5765390000000  0.5017600000000 1.0
C      1  0.5698530000000  0.4647000000000  0.5504810000000 1.0
C      1  0.4132550000000  0.4961470000000  0.5741370000000 1.0
C      1  0.3942130000000  0.4520870000000  0.5716900000000 1.0
C      1  0.4752520000000  0.3842330000000  0.4187000000000 1.0
C      1  0.5103040000000  0.3902680000000  0.4991120000000 1.0
C      1  0.5383750000000  0.3878800000000  0.4963930000000 1.0
C      1  0.5724280000000  0.4205940000000  0.6074060000000 1.0
C      1  0.5496320000000  0.5081380000000  0.4685140000000 1.0
C      1  0.4255200000000  0.4213400000000  0.5272030000000 1.0
C      1  0.4635740000000  0.5084220000000  0.3912820000000 1.0
C      1  0.5246610000000  0.4344600000000  0.4449620000000 1.0
C      1  0.5031520000000  0.5316250000000  0.5861790000000 1.0
C      1  0.3899860000000  0.4766480000000  0.5021240000000 1.0
C      1  0.4795050000000  0.5421170000000  0.5335930000000 1.0
C      1  0.6045950000000  0.5127350000000  0.4763740000000 1.0
C      1  0.4526610000000  0.4267860000000  0.5338060000000 1.0
C      1  0.4425060000000  0.5514290000000  0.4126740000000 1.0
C      1  0.6067060000000  0.4863350000000  0.4664990000000 1.0
C      1  0.4856810000000  0.6114950000000  0.4873130000000 1.0
C      1  0.4336450000000  0.6010110000000  0.4638080000000 1.0
C      1  0.5447460000000  0.5725480000000  0.5629670000000 1.0
C      1  0.4374020000000  0.4542230000000  0.4779130000000 1.0
C      1  0.5838840000000  0.4943280000000  0.5179600000000 1.0
C      1  0.5683160000000  0.4929160000000  0.5437020000000 1.0
C      1  0.4628940000000  0.5307630000000  0.4752240000000 1.0
C      1  0.6011960000000  0.5138580000000  0.5054140000000 1.0
C      1  0.3909970000000  0.4525770000000  0.5438580000000 1.0
C      1  0.5749430000000  0.5675470000000  0.5258570000000 1.0
C      1  0.3926740000000  0.4104590000000  0.3934370000000 1.0
C      1  0.4617690000000  0.4557040000000  0.4931130000000 1.0
C      1  0.4250140000000  0.5979570000000  0.5536700000000 1.0
C      1  0.3926270000000  0.5429880000000  0.4758600000000 1.0
C      1  0.5578780000000  0.5117650000000  0.3997510000000 1.0
C      1  0.5635960000000  0.5572580000000  0.5777910000000 1.0
C      1  0.6077580000000  0.5380020000000  0.5187110000000 1.0
C      1  0.4701740000000  0.5451620000000  0.4513980000000 1.0
C      1  0.3702840000000  0.4869140000000  0.4154420000000 1.0
C      1  0.5315900000000  0.5046130000000  0.3899060000000 1.0
C      1  0.4615080000000  0.4085560000000  0.5835680000000 1.0
C      1  0.4919810000000  0.5290870000000  0.4388290000000 1.0
C      1  0.5638740000000  0.5308220000000  0.4765290000000 1.0
C      1  0.3931080000000  0.5001230000000  0.5523100000000 1.0
C      1  0.5104210000000  0.5910530000000  0.4458680000000 1.0
C      1  0.5993030000000  0.4674030000000  0.5890430000000 1.0
C      1  0.4389640000000  0.4532810000000  0.5864050000000 1.0
C      1  0.5119300000000  0.4132930000000  0.4343770000000 1.0
C      1  0.4591630000000  0.4982540000000  0.5123720000000 1.0
C      1  0.4174500000000  0.5350020000000  0.4195470000000 1.0
C      1  0.5582330000000  0.5370120000000  0.4148870000000 1.0
C      1  0.6084480000000  0.5038740000000  0.6250010000000 1.0
C      1  0.5720650000000  0.5602860000000  0.6040100000000 1.0
C      1  0.5657850000000  0.4084440000000  0.4543500000000 1.0
C      1  0.4215110000000  0.5818910000000  0.5298190000000 1.0
C      1  0.4978610000000  0.4144700000000  0.5487730000000 1.0
C      1  0.4874760000000  0.6220950000000  0.5146370000000 1.0
END
