TITL C-599893-4344-230 88.9490444691185 125000 -277.397258035758 0 0 49 (C1) n - 1
REM
REM in /home/nfs/bkarasulu/CARBON/AIRSS/Generating-Clusters/TERSOFF/Only-C1/FIRE-HFTN
REM
REM
REM
REM
REM
REM ./C.cell (11c1c37f851c82e70ff6c80c92926a4b)
REM AIRSS Version 0.9.1 bugfix July 2018 build 013d7b7c2542+ Fri, 06 Jul 2018 19:26:36 +0100
REM compiler GCC version 9.2.1 20190827 (Red Hat 9.2.1-1)
REM options -cpp -mtune=generic -march=x86-64 -g -O0 -fpre-include=/usr/include/finclude/math-vector-fortran.h
REM seed -1793736813 -1852229742 -1543929112 -557075325 2102515457 -766923748 -778987310 1745574346 1060213913 475413165 1284924180 -1759855693 604866793 1124206258 -1375466948 1018223110 -1185392472 -1334859842 -2030660329 -90096369 823408146 1467637617 -277479772 -644512478 -667631867 -200860010 256711176 -1138015187 -233613142 -1102858540 1084442476 393331816 526302361
REM
CELL 1.54180   50.00000   50.00000   50.00000   90.00000   90.00000   90.00000
LATT -1
SFAC C  
C      1  0.5736570000000  0.4388050000000  0.4839170000000 1.0
C      1  0.5089850000000  0.5310730000000  0.5324480000000 1.0
C      1  0.4989410000000  0.3510960000000  0.5196210000000 1.0
C      1  0.4110880000000  0.6031840000000  0.4718540000000 1.0
C      1  0.5809480000000  0.4465400000000  0.5083270000000 1.0
C      1  0.5495940000000  0.5067990000000  0.4685740000000 1.0
C      1  0.5500300000000  0.4848730000000  0.4535980000000 1.0
C      1  0.5573360000000  0.5687520000000  0.5034910000000 1.0
C      1  0.4818040000000  0.4637350000000  0.5478310000000 1.0
C      1  0.5472100000000  0.4669670000000  0.5409220000000 1.0
C      1  0.4387280000000  0.6023990000000  0.4810910000000 1.0
C      1  0.5279380000000  0.4477310000000  0.5475670000000 1.0
C      1  0.5478390000000  0.5215530000000  0.4923180000000 1.0
C      1  0.4516640000000  0.5442120000000  0.5060500000000 1.0
C      1  0.5180480000000  0.4134410000000  0.4883810000000 1.0
C      1  0.5121510000000  0.5503720000000  0.5122520000000 1.0
C      1  0.5011650000000  0.3766430000000  0.5149790000000 1.0
C      1  0.5517270000000  0.4582420000000  0.4449630000000 1.0
C      1  0.4353900000000  0.5476800000000  0.5278040000000 1.0
C      1  0.4920110000000  0.4893730000000  0.5511790000000 1.0
C      1  0.4567700000000  0.4530990000000  0.5386680000000 1.0
C      1  0.4225300000000  0.3961950000000  0.5033270000000 1.0
C      1  0.5341590000000  0.4166930000000  0.4656770000000 1.0
C      1  0.5292340000000  0.3821820000000  0.4244220000000 1.0
C      1  0.4876210000000  0.6215450000000  0.5189580000000 1.0
C      1  0.4402600000000  0.4119410000000  0.5141350000000 1.0
C      1  0.5534760000000  0.5085350000000  0.5166120000000 1.0
C      1  0.4676660000000  0.5659010000000  0.4969700000000 1.0
C      1  0.5274920000000  0.5579800000000  0.4655750000000 1.0
C      1  0.4657540000000  0.6338800000000  0.5098840000000 1.0
C      1  0.5012000000000  0.4424870000000  0.5423760000000 1.0
C      1  0.5026180000000  0.4040610000000  0.5098400000000 1.0
C      1  0.4929460000000  0.5710640000000  0.5092270000000 1.0
C      1  0.4426420000000  0.6281170000000  0.4956720000000 1.0
C      1  0.3991440000000  0.6271200000000  0.4793460000000 1.0
C      1  0.5535540000000  0.4375100000000  0.4644320000000 1.0
C      1  0.5390090000000  0.4937540000000  0.5357470000000 1.0
C      1  0.4580180000000  0.5825760000000  0.4759360000000 1.0
C      1  0.5522460000000  0.4523760000000  0.4182450000000 1.0
C      1  0.5716750000000  0.4577200000000  0.5307160000000 1.0
C      1  0.5316030000000  0.3988380000000  0.4443250000000 1.0
C      1  0.4600250000000  0.4276540000000  0.5252870000000 1.0
C      1  0.4675850000000  0.5791340000000  0.4504940000000 1.0
C      1  0.4175220000000  0.6424170000000  0.4934430000000 1.0
C      1  0.4980570000000  0.5969880000000  0.5185700000000 1.0
C      1  0.4886660000000  0.4221620000000  0.5262450000000 1.0
C      1  0.5360560000000  0.5492960000000  0.4934990000000 1.0
C      1  0.4527880000000  0.5201840000000  0.4929530000000 1.0
C      1  0.5134300000000  0.5051220000000  0.5422510000000 1.0
END
