TITL C-599895-9959-850 -1.83301720781676e-07 125000 -135.739580197527 0 0 25 (C1) n - 1
REM
REM in /home/nfs/bkarasulu/CARBON/AIRSS/Generating-Clusters/TERSOFF/Only-C1/FIRE-HFTN
REM
REM
REM
REM
REM
REM ./C.cell (11c1c37f851c82e70ff6c80c92926a4b)
REM AIRSS Version 0.9.1 bugfix July 2018 build 013d7b7c2542+ Fri, 06 Jul 2018 19:26:36 +0100
REM compiler GCC version 9.2.1 20190827 (Red Hat 9.2.1-1)
REM options -cpp -mtune=generic -march=x86-64 -g -O0 -fpre-include=/usr/include/finclude/math-vector-fortran.h
REM seed -1074812634 -1354500682 199085835 475742655 1728269870 -2147126057 189452718 1620357942 -1513768626 -1217941082 194526468 824104540 1819344408 24138850 -1845520314 -1318679420 -2074002603 -911405635 1779312724 1528907837 1042847525 -2144471288 1201721877 -1572999229 -1251380399 1780038124 1692606001 1753533372 -1276511316 176723445 -782320809 -1616558426 -581600274
REM
CELL 1.54180   50.00000   50.00000   50.00000   90.00000   90.00000   90.00000
LATT -1
SFAC C  
C      1  0.5380020000000  0.5044460000000  0.4560340000000 1.0
C      1  0.5091150000000  0.5055170000000  0.4640770000000 1.0
C      1  0.4660650000000  0.4848250000000  0.4500000000000 1.0
C      1  0.5766080000000  0.4836900000000  0.5154370000000 1.0
C      1  0.5344640000000  0.5001650000000  0.5583080000000 1.0
C      1  0.4876410000000  0.5477550000000  0.4915780000000 1.0
C      1  0.5009700000000  0.5334260000000  0.4713820000000 1.0
C      1  0.4369110000000  0.5177640000000  0.5555570000000 1.0
C      1  0.4903530000000  0.4948370000000  0.4431950000000 1.0
C      1  0.4782880000000  0.5731000000000  0.4882270000000 1.0
C      1  0.5189250000000  0.4337690000000  0.4737550000000 1.0
C      1  0.4523430000000  0.5021180000000  0.5396960000000 1.0
C      1  0.5287470000000  0.4947950000000  0.5100530000000 1.0
C      1  0.5240530000000  0.5086120000000  0.5345480000000 1.0
C      1  0.5067330000000  0.4865030000000  0.4899890000000 1.0
C      1  0.5557670000000  0.4922830000000  0.5001270000000 1.0
C      1  0.5070020000000  0.5310120000000  0.5329360000000 1.0
C      1  0.4768290000000  0.4855000000000  0.4998070000000 1.0
C      1  0.4847350000000  0.5332830000000  0.5157950000000 1.0
C      1  0.4678040000000  0.5105950000000  0.5163930000000 1.0
C      1  0.4567690000000  0.4738450000000  0.5420670000000 1.0
C      1  0.4713320000000  0.4639120000000  0.5208160000000 1.0
C      1  0.4589930000000  0.4815250000000  0.4759190000000 1.0
C      1  0.5130840000000  0.4579200000000  0.4815340000000 1.0
C      1  0.5584670000000  0.4988020000000  0.4727700000000 1.0
END
