TITL C-599894-471-1032 1274.04291169074 125000 -1022.59737051682 0 0 168 (C1) n - 1
REM
REM in /home/nfs/bkarasulu/CARBON/AIRSS/Generating-Clusters/TERSOFF/Only-C1/FIRE-HFTN
REM
REM
REM
REM
REM
REM ./C.cell (11c1c37f851c82e70ff6c80c92926a4b)
REM AIRSS Version 0.9.1 bugfix July 2018 build 013d7b7c2542+ Fri, 06 Jul 2018 19:26:36 +0100
REM compiler GCC version 9.2.1 20190827 (Red Hat 9.2.1-1)
REM options -cpp -mtune=generic -march=x86-64 -g -O0 -fpre-include=/usr/include/finclude/math-vector-fortran.h
REM seed -39906323 -1274648340 -1368015947 197852613 -1150958262 657827813 -1417442841 -1436308324 1609730559 1654784730 2055671527 -1592064009 -1479291179 1373056945 -858804368 1214207100 979682910 -161919800 1079852813 -251840548 220989440 1646390374 253014737 1412236608 -2005494943 -1872534541 1475415357 -305657380 1488126787 -833499195 1953397560 -2103345375 718097916
REM
CELL 1.54180   50.00000   50.00000   50.00000   90.00000   90.00000   90.00000
LATT -1
SFAC C  
C      1  0.4261970000000  0.5238950000000  0.5690620000000 1.0
C      1  0.5567180000000  0.5469980000000  0.5080520000000 1.0
C      1  0.4606590000000  0.5491790000000  0.5202720000000 1.0
C      1  0.4657210000000  0.5563690000000  0.5710110000000 1.0
C      1  0.4227100000000  0.4411160000000  0.4622660000000 1.0
C      1  0.4436780000000  0.4172310000000  0.4195970000000 1.0
C      1  0.5170090000000  0.5884340000000  0.4077170000000 1.0
C      1  0.5870400000000  0.4477180000000  0.5422470000000 1.0
C      1  0.4992430000000  0.5655210000000  0.4084500000000 1.0
C      1  0.5757100000000  0.4906350000000  0.4637100000000 1.0
C      1  0.5271480000000  0.5962820000000  0.3828040000000 1.0
C      1  0.5147230000000  0.5043330000000  0.5858810000000 1.0
C      1  0.5932420000000  0.5032050000000  0.4821570000000 1.0
C      1  0.3536520000000  0.5254370000000  0.5757880000000 1.0
C      1  0.5264130000000  0.5496600000000  0.4564110000000 1.0
C      1  0.5485130000000  0.3954690000000  0.5025860000000 1.0
C      1  0.4054270000000  0.5635710000000  0.5141290000000 1.0
C      1  0.4616300000000  0.5149800000000  0.4351160000000 1.0
C      1  0.4684530000000  0.5009340000000  0.5828910000000 1.0
C      1  0.5977850000000  0.4575620000000  0.4428380000000 1.0
C      1  0.3980620000000  0.4063870000000  0.4876940000000 1.0
C      1  0.5704830000000  0.4156460000000  0.4990280000000 1.0
C      1  0.5790910000000  0.5376490000000  0.4318460000000 1.0
C      1  0.5825560000000  0.4192470000000  0.4723500000000 1.0
C      1  0.5244830000000  0.5247610000000  0.4449980000000 1.0
C      1  0.5034560000000  0.4756590000000  0.5289800000000 1.0
C      1  0.4860030000000  0.3935510000000  0.4357110000000 1.0
C      1  0.4623850000000  0.3827150000000  0.5146840000000 1.0
C      1  0.5118390000000  0.5365510000000  0.5168360000000 1.0
C      1  0.5081250000000  0.3673660000000  0.4991570000000 1.0
C      1  0.5102590000000  0.5681470000000  0.5150370000000 1.0
C      1  0.5513740000000  0.5686220000000  0.4909300000000 1.0
C      1  0.6388780000000  0.6224500000000  0.5881800000000 1.0
C      1  0.4625600000000  0.5704870000000  0.4463420000000 1.0
C      1  0.5693840000000  0.4937650000000  0.4139180000000 1.0
C      1  0.5851110000000  0.4381870000000  0.5150690000000 1.0
C      1  0.5328290000000  0.4747140000000  0.4539500000000 1.0
C      1  0.5078940000000  0.5633340000000  0.6006620000000 1.0
C      1  0.5400250000000  0.5273030000000  0.5179520000000 1.0
C      1  0.5475760000000  0.4720460000000  0.5899410000000 1.0
C      1  0.5518710000000  0.5575840000000  0.4651980000000 1.0
C      1  0.5315220000000  0.4896320000000  0.6053270000000 1.0
C      1  0.5441480000000  0.5005990000000  0.5267010000000 1.0
C      1  0.3975940000000  0.5205140000000  0.4954470000000 1.0
C      1  0.5289470000000  0.3873610000000  0.5525300000000 1.0
C      1  0.4096120000000  0.4604280000000  0.5333160000000 1.0
C      1  0.6236480000000  0.6108200000000  0.5705050000000 1.0
C      1  0.3930730000000  0.4697920000000  0.4896330000000 1.0
C      1  0.4733350000000  0.4470020000000  0.4508760000000 1.0
C      1  0.5311500000000  0.4888930000000  0.6325210000000 1.0
C      1  0.5124170000000  0.4290260000000  0.5107480000000 1.0
C      1  0.5273700000000  0.4063620000000  0.4306600000000 1.0
C      1  0.4547360000000  0.4990120000000  0.4786400000000 1.0
C      1  0.5263860000000  0.4809410000000  0.3895420000000 1.0
C      1  0.4851320000000  0.5727760000000  0.5861670000000 1.0
C      1  0.5376960000000  0.4300310000000  0.4399910000000 1.0
C      1  0.5924720000000  0.5214720000000  0.5685650000000 1.0
C      1  0.5433390000000  0.4674160000000  0.4971340000000 1.0
C      1  0.5082450000000  0.5391710000000  0.3993700000000 1.0
C      1  0.5016330000000  0.4083740000000  0.4166670000000 1.0
C      1  0.4925830000000  0.4315310000000  0.4917080000000 1.0
C      1  0.5558370000000  0.4831440000000  0.5459720000000 1.0
C      1  0.3936740000000  0.4493310000000  0.5111570000000 1.0
C      1  0.4743090000000  0.5152160000000  0.6078070000000 1.0
C      1  0.5521810000000  0.5308440000000  0.5981400000000 1.0
C      1  0.4969820000000  0.4417980000000  0.4662170000000 1.0
C      1  0.5909420000000  0.5856910000000  0.5351240000000 1.0
C      1  0.4425600000000  0.3734380000000  0.4408650000000 1.0
C      1  0.5754440000000  0.6003210000000  0.5160390000000 1.0
C      1  0.4773580000000  0.4740770000000  0.5215920000000 1.0
C      1  0.4663160000000  0.4306190000000  0.5024750000000 1.0
C      1  0.5131380000000  0.4262140000000  0.5370450000000 1.0
C      1  0.4873910000000  0.5998570000000  0.5783040000000 1.0
C      1  0.5084670000000  0.4712220000000  0.5560660000000 1.0
C      1  0.4815820000000  0.4540880000000  0.4246130000000 1.0
C      1  0.6079950000000  0.5989470000000  0.5527310000000 1.0
C      1  0.4551920000000  0.4581390000000  0.5113520000000 1.0
C      1  0.5279300000000  0.4988690000000  0.4419990000000 1.0
C      1  0.5911350000000  0.5319980000000  0.4833230000000 1.0
C      1  0.4848840000000  0.4996430000000  0.4449880000000 1.0
C      1  0.5206940000000  0.6244320000000  0.4729530000000 1.0
C      1  0.5973430000000  0.4438990000000  0.4681380000000 1.0
C      1  0.4480600000000  0.5066010000000  0.5343900000000 1.0
C      1  0.5634350000000  0.5226540000000  0.4132470000000 1.0
C      1  0.5032660000000  0.5616880000000  0.4663620000000 1.0
C      1  0.3944070000000  0.4947580000000  0.5059760000000 1.0
C      1  0.4747540000000  0.6036840000000  0.5313350000000 1.0
C      1  0.4404460000000  0.5295580000000  0.5187240000000 1.0
C      1  0.4970790000000  0.5244070000000  0.6205630000000 1.0
C      1  0.4021310000000  0.5101250000000  0.5569280000000 1.0
C      1  0.4455910000000  0.4222650000000  0.5423420000000 1.0
C      1  0.4914510000000  0.4329280000000  0.5958530000000 1.0
C      1  0.5371090000000  0.6026930000000  0.3595920000000 1.0
C      1  0.4144630000000  0.4149630000000  0.4681020000000 1.0
C      1  0.4870290000000  0.5853030000000  0.5134190000000 1.0
C      1  0.4359540000000  0.4491570000000  0.5341580000000 1.0
C      1  0.5205160000000  0.5402900000000  0.6122840000000 1.0
C      1  0.3878750000000  0.4222800000000  0.5069520000000 1.0
C      1  0.4204780000000  0.5310020000000  0.4563720000000 1.0
C      1  0.4601120000000  0.5121610000000  0.4063410000000 1.0
C      1  0.6098050000000  0.5085820000000  0.5498010000000 1.0
C      1  0.5835490000000  0.4820720000000  0.4368820000000 1.0
C      1  0.5205320000000  0.5261240000000  0.5655640000000 1.0
C      1  0.5850310000000  0.5437470000000  0.5100720000000 1.0
C      1  0.4871670000000  0.4141910000000  0.5751380000000 1.0
C      1  0.5219020000000  0.4490330000000  0.4535340000000 1.0
C      1  0.5262720000000  0.3841430000000  0.4842920000000 1.0
C      1  0.4485980000000  0.4523290000000  0.4638300000000 1.0
C      1  0.3766020000000  0.5149820000000  0.4497860000000 1.0
C      1  0.5155950000000  0.3879900000000  0.4577800000000 1.0
C      1  0.5019460000000  0.4907720000000  0.3993290000000 1.0
C      1  0.4553150000000  0.4093340000000  0.5181660000000 1.0
C      1  0.3769100000000  0.5174370000000  0.5671840000000 1.0
C      1  0.4837750000000  0.5043330000000  0.4746920000000 1.0
C      1  0.4019660000000  0.4747970000000  0.4357430000000 1.0
C      1  0.4464340000000  0.6040970000000  0.5344460000000 1.0
C      1  0.4027230000000  0.4621160000000  0.4622480000000 1.0
C      1  0.4915380000000  0.4802630000000  0.4238340000000 1.0
C      1  0.5793290000000  0.5085520000000  0.5911910000000 1.0
C      1  0.4144630000000  0.5380310000000  0.5102320000000 1.0
C      1  0.4885070000000  0.6120490000000  0.5544050000000 1.0
C      1  0.5449920000000  0.3863330000000  0.5302850000000 1.0
C      1  0.4363430000000  0.5518810000000  0.5728490000000 1.0
C      1  0.5799410000000  0.4711450000000  0.5572340000000 1.0
C      1  0.5475110000000  0.5390400000000  0.5697900000000 1.0
C      1  0.6131310000000  0.4953330000000  0.5263630000000 1.0
C      1  0.4973010000000  0.5201200000000  0.4945700000000 1.0
C      1  0.5093050000000  0.4075830000000  0.5579230000000 1.0
C      1  0.5756430000000  0.4799630000000  0.5861820000000 1.0
C      1  0.3819390000000  0.4945200000000  0.4329030000000 1.0
C      1  0.5358630000000  0.4691850000000  0.5630850000000 1.0
C      1  0.4754770000000  0.5660100000000  0.4711240000000 1.0
C      1  0.5529090000000  0.4770340000000  0.4731650000000 1.0
C      1  0.4488190000000  0.5062430000000  0.5632280000000 1.0
C      1  0.4927370000000  0.4835720000000  0.5782680000000 1.0
C      1  0.5993920000000  0.4562970000000  0.4953500000000 1.0
C      1  0.4896570000000  0.4597010000000  0.5969030000000 1.0
C      1  0.4432900000000  0.5153940000000  0.4569170000000 1.0
C      1  0.5076370000000  0.6190400000000  0.4489050000000 1.0
C      1  0.4760240000000  0.5469480000000  0.5458440000000 1.0
C      1  0.5768800000000  0.5441730000000  0.4593630000000 1.0
C      1  0.4742950000000  0.5689980000000  0.4218520000000 1.0
C      1  0.4237150000000  0.4693660000000  0.4158200000000 1.0
C      1  0.4575190000000  0.3949780000000  0.4325810000000 1.0
C      1  0.4034880000000  0.6176220000000  0.5518740000000 1.0
C      1  0.5243600000000  0.6035490000000  0.4306290000000 1.0
C      1  0.5378840000000  0.5329440000000  0.4014020000000 1.0
C      1  0.4392540000000  0.4910330000000  0.4026260000000 1.0
C      1  0.4324380000000  0.4414720000000  0.4130970000000 1.0
C      1  0.4023650000000  0.4894810000000  0.5349410000000 1.0
C      1  0.4492390000000  0.4718690000000  0.4851100000000 1.0
C      1  0.4913910000000  0.4331500000000  0.4080600000000 1.0
C      1  0.5523780000000  0.4789320000000  0.3966480000000 1.0
C      1  0.6044660000000  0.4846870000000  0.5013420000000 1.0
C      1  0.5501310000000  0.6039050000000  0.4451870000000 1.0
C      1  0.5753660000000  0.5425910000000  0.5577260000000 1.0
C      1  0.5014120000000  0.5335790000000  0.5451790000000 1.0
C      1  0.4218690000000  0.5751720000000  0.5657320000000 1.0
C      1  0.5575540000000  0.5959510000000  0.4945790000000 1.0
C      1  0.4236250000000  0.5991340000000  0.5506030000000 1.0
C      1  0.3953390000000  0.5258370000000  0.4677460000000 1.0
C      1  0.4831790000000  0.3670630000000  0.5087500000000 1.0
C      1  0.5886610000000  0.5569810000000  0.5358780000000 1.0
C      1  0.5261660000000  0.4817900000000  0.5137530000000 1.0
C      1  0.4603900000000  0.4145350000000  0.5650860000000 1.0
C      1  0.4886800000000  0.5166290000000  0.3953320000000 1.0
C      1  0.5472550000000  0.6123520000000  0.4737530000000 1.0
C      1  0.4683640000000  0.5677520000000  0.4989730000000 1.0
END
