TITL C-599891-72-543 0.291753604893369 125000 -927.153100365201 0 0 154 (C1) n - 1
REM
REM in /home/nfs/bkarasulu/CARBON/AIRSS/Generating-Clusters/TERSOFF/Only-C1/FIRE-HFTN
REM
REM
REM
REM
REM
REM ./C.cell (11c1c37f851c82e70ff6c80c92926a4b)
REM AIRSS Version 0.9.1 bugfix July 2018 build 013d7b7c2542+ Fri, 06 Jul 2018 19:26:36 +0100
REM compiler GCC version 9.2.1 20190827 (Red Hat 9.2.1-1)
REM options -cpp -mtune=generic -march=x86-64 -g -O0 -fpre-include=/usr/include/finclude/math-vector-fortran.h
REM seed 1196486877 1231414592 583545245 -1475401919 306439155 2060215741 156521749 -303184586 -1932842361 -622836627 1613541187 -1589376904 -649799608 401292131 1430770857 -742720317 1397254375 2091040306 422783008 -458105727 -391434192 1475394384 1580515391 -1253744379 966206625 476249280 1987190868 1399648294 1154754978 739796864 924361310 -2001478583 497177577
REM
CELL 1.54180   50.00000   50.00000   50.00000   90.00000   90.00000   90.00000
LATT -1
SFAC C  
C      1  0.5009880000000  0.4704390000000  0.5438080000000 1.0
C      1  0.5570090000000  0.4641230000000  0.4536160000000 1.0
C      1  0.4777570000000  0.5273440000000  0.4393600000000 1.0
C      1  0.5831680000000  0.5145040000000  0.5297540000000 1.0
C      1  0.5578490000000  0.4394060000000  0.5511650000000 1.0
C      1  0.5692050000000  0.4082020000000  0.4798430000000 1.0
C      1  0.5841310000000  0.4488430000000  0.5043490000000 1.0
C      1  0.5308960000000  0.5349120000000  0.4352590000000 1.0
C      1  0.4226240000000  0.4864540000000  0.4109530000000 1.0
C      1  0.4756520000000  0.5053490000000  0.5620710000000 1.0
C      1  0.5474480000000  0.5564570000000  0.4403090000000 1.0
C      1  0.5009020000000  0.4524090000000  0.4710010000000 1.0
C      1  0.4603110000000  0.5440290000000  0.4854600000000 1.0
C      1  0.5209170000000  0.3889300000000  0.4643170000000 1.0
C      1  0.4392130000000  0.5544140000000  0.5318630000000 1.0
C      1  0.4561370000000  0.5691650000000  0.6307460000000 1.0
C      1  0.4278600000000  0.5703810000000  0.5088030000000 1.0
C      1  0.5725260000000  0.4439280000000  0.4454120000000 1.0
C      1  0.3745640000000  0.5237590000000  0.5090880000000 1.0
C      1  0.5517120000000  0.5954580000000  0.4676620000000 1.0
C      1  0.4460390000000  0.5785970000000  0.4327120000000 1.0
C      1  0.5161000000000  0.5545130000000  0.4954290000000 1.0
C      1  0.4785900000000  0.4779360000000  0.5600130000000 1.0
C      1  0.4978180000000  0.3925750000000  0.5104200000000 1.0
C      1  0.6087410000000  0.5601270000000  0.4970540000000 1.0
C      1  0.4929350000000  0.4250760000000  0.4766250000000 1.0
C      1  0.5707410000000  0.5750690000000  0.4759410000000 1.0
C      1  0.4248880000000  0.4477100000000  0.4432750000000 1.0
C      1  0.4238030000000  0.5385290000000  0.5512420000000 1.0
C      1  0.5317510000000  0.5979240000000  0.4880040000000 1.0
C      1  0.5115210000000  0.4631290000000  0.6019840000000 1.0
C      1  0.5524950000000  0.4651920000000  0.5394080000000 1.0
C      1  0.5229860000000  0.5997990000000  0.5385280000000 1.0
C      1  0.5369840000000  0.4990790000000  0.4014120000000 1.0
C      1  0.4493240000000  0.5409950000000  0.5916420000000 1.0
C      1  0.5804960000000  0.4211360000000  0.4571630000000 1.0
C      1  0.5698350000000  0.5711800000000  0.5730380000000 1.0
C      1  0.4421050000000  0.5072380000000  0.4140590000000 1.0
C      1  0.4821200000000  0.5833250000000  0.4721320000000 1.0
C      1  0.5179860000000  0.4796520000000  0.4113080000000 1.0
C      1  0.3919750000000  0.5048850000000  0.5046330000000 1.0
C      1  0.5668510000000  0.4187700000000  0.5323140000000 1.0
C      1  0.4291000000000  0.4809470000000  0.5548730000000 1.0
C      1  0.4181040000000  0.5691600000000  0.4381920000000 1.0
C      1  0.5882720000000  0.5093890000000  0.4239600000000 1.0
C      1  0.4682930000000  0.5592190000000  0.5407640000000 1.0
C      1  0.5077650000000  0.3862080000000  0.4387250000000 1.0
C      1  0.4095160000000  0.5813550000000  0.4629620000000 1.0
C      1  0.5158830000000  0.5362860000000  0.5172810000000 1.0
C      1  0.4652910000000  0.5688620000000  0.4136370000000 1.0
C      1  0.4095040000000  0.4663520000000  0.5408460000000 1.0
C      1  0.4780760000000  0.4679060000000  0.4593400000000 1.0
C      1  0.4094000000000  0.4840190000000  0.4979400000000 1.0
C      1  0.6440600000000  0.5100710000000  0.5012710000000 1.0
C      1  0.5110340000000  0.5439730000000  0.5620450000000 1.0
C      1  0.4539890000000  0.4373090000000  0.5663720000000 1.0
C      1  0.5746400000000  0.5812510000000  0.5488400000000 1.0
C      1  0.4527440000000  0.4649780000000  0.5604850000000 1.0
C      1  0.4764440000000  0.5869580000000  0.5402070000000 1.0
C      1  0.5452550000000  0.4750210000000  0.4771500000000 1.0
C      1  0.5838510000000  0.5144720000000  0.5565350000000 1.0
C      1  0.4542530000000  0.5160820000000  0.5773680000000 1.0
C      1  0.5746450000000  0.4215660000000  0.5049530000000 1.0
C      1  0.4307470000000  0.5098250000000  0.5592530000000 1.0
C      1  0.6025830000000  0.4915240000000  0.4409380000000 1.0
C      1  0.5738360000000  0.5073650000000  0.5819510000000 1.0
C      1  0.6178630000000  0.5427720000000  0.4757940000000 1.0
C      1  0.5728850000000  0.4700600000000  0.5194170000000 1.0
C      1  0.5845490000000  0.5751440000000  0.5002960000000 1.0
C      1  0.6269770000000  0.5159150000000  0.4807870000000 1.0
C      1  0.5829660000000  0.4853730000000  0.5952960000000 1.0
C      1  0.5434820000000  0.5850490000000  0.4414260000000 1.0
C      1  0.5196910000000  0.3731540000000  0.4178640000000 1.0
C      1  0.4518600000000  0.4405960000000  0.4305260000000 1.0
C      1  0.4642190000000  0.3937390000000  0.5474810000000 1.0
C      1  0.5276690000000  0.4829020000000  0.5390260000000 1.0
C      1  0.4835920000000  0.5508470000000  0.4257790000000 1.0
C      1  0.5005650000000  0.5826930000000  0.5821500000000 1.0
C      1  0.5236670000000  0.4415340000000  0.5866170000000 1.0
C      1  0.4259740000000  0.5516010000000  0.5777440000000 1.0
C      1  0.4549370000000  0.4784370000000  0.4761850000000 1.0
C      1  0.4933570000000  0.5191670000000  0.4618350000000 1.0
C      1  0.4700570000000  0.4416730000000  0.5130210000000 1.0
C      1  0.4290750000000  0.5836300000000  0.4823580000000 1.0
C      1  0.4594160000000  0.4146440000000  0.4425350000000 1.0
C      1  0.4055710000000  0.5437010000000  0.4339680000000 1.0
C      1  0.4784970000000  0.4717020000000  0.3628800000000 1.0
C      1  0.4710950000000  0.5706160000000  0.3860340000000 1.0
C      1  0.4767260000000  0.4829070000000  0.3876530000000 1.0
C      1  0.5245880000000  0.4569800000000  0.4886920000000 1.0
C      1  0.5110050000000  0.5394700000000  0.6078310000000 1.0
C      1  0.4582270000000  0.5895880000000  0.4568740000000 1.0
C      1  0.5631020000000  0.5243300000000  0.4737450000000 1.0
C      1  0.4905490000000  0.5567450000000  0.3730200000000 1.0
C      1  0.4095660000000  0.4603370000000  0.5132750000000 1.0
C      1  0.5590580000000  0.4996280000000  0.4865500000000 1.0
C      1  0.4712870000000  0.3858790000000  0.5204520000000 1.0
C      1  0.4612140000000  0.5057550000000  0.3932180000000 1.0
C      1  0.4731450000000  0.4608710000000  0.4315350000000 1.0
C      1  0.4807640000000  0.5236920000000  0.4872950000000 1.0
C      1  0.5015790000000  0.4242860000000  0.5742500000000 1.0
C      1  0.4483940000000  0.4180810000000  0.4697510000000 1.0
C      1  0.4466420000000  0.5809050000000  0.6525140000000 1.0
C      1  0.4814040000000  0.3978500000000  0.4359000000000 1.0
C      1  0.5610190000000  0.5524440000000  0.5898730000000 1.0
C      1  0.4500170000000  0.5208240000000  0.4391380000000 1.0
C      1  0.5682580000000  0.5857710000000  0.5218250000000 1.0
C      1  0.4768410000000  0.5068610000000  0.5098530000000 1.0
C      1  0.4309620000000  0.4151370000000  0.5198910000000 1.0
C      1  0.4233920000000  0.4335940000000  0.4710050000000 1.0
C      1  0.4673090000000  0.4274560000000  0.4885630000000 1.0
C      1  0.5641650000000  0.5019520000000  0.4104860000000 1.0
C      1  0.4691260000000  0.5932170000000  0.5137840000000 1.0
C      1  0.4933970000000  0.5417030000000  0.5380970000000 1.0
C      1  0.5547370000000  0.5250880000000  0.5934280000000 1.0
C      1  0.4800880000000  0.5158340000000  0.5363270000000 1.0
C      1  0.4942000000000  0.4512140000000  0.5245110000000 1.0
C      1  0.4453960000000  0.3914750000000  0.5074780000000 1.0
C      1  0.4660810000000  0.5570750000000  0.6076210000000 1.0
C      1  0.4417570000000  0.5339770000000  0.4647100000000 1.0
C      1  0.5180410000000  0.4380990000000  0.5134540000000 1.0
C      1  0.4759890000000  0.4328580000000  0.5846020000000 1.0
C      1  0.4131120000000  0.4720260000000  0.4332650000000 1.0
C      1  0.6115990000000  0.5478300000000  0.4481510000000 1.0
C      1  0.5481050000000  0.3903700000000  0.4726220000000 1.0
C      1  0.5275580000000  0.5098750000000  0.5258360000000 1.0
C      1  0.5101900000000  0.5383200000000  0.3742320000000 1.0
C      1  0.5145960000000  0.4103710000000  0.5266060000000 1.0
C      1  0.4453440000000  0.4168190000000  0.5479730000000 1.0
C      1  0.5099140000000  0.5800690000000  0.4818730000000 1.0
C      1  0.4260850000000  0.4865040000000  0.4751920000000 1.0
C      1  0.5002480000000  0.5929950000000  0.5549160000000 1.0
C      1  0.4177900000000  0.4352530000000  0.5013790000000 1.0
C      1  0.5287490000000  0.5174040000000  0.6033360000000 1.0
C      1  0.5262580000000  0.5190230000000  0.3838760000000 1.0
C      1  0.5205750000000  0.4898920000000  0.6053520000000 1.0
C      1  0.4635870000000  0.4838610000000  0.5028040000000 1.0
C      1  0.5145810000000  0.4060480000000  0.5552560000000 1.0
C      1  0.5195880000000  0.5177450000000  0.4528130000000 1.0
C      1  0.4102900000000  0.4929560000000  0.4525790000000 1.0
C      1  0.6176420000000  0.4958720000000  0.4629450000000 1.0
C      1  0.4836780000000  0.4534160000000  0.6046830000000 1.0
C      1  0.4007590000000  0.5188200000000  0.4442340000000 1.0
C      1  0.5034520000000  0.3997390000000  0.4832390000000 1.0
C      1  0.4687940000000  0.5707340000000  0.4945540000000 1.0
C      1  0.5741640000000  0.4963510000000  0.5104140000000 1.0
C      1  0.4373070000000  0.5924840000000  0.6739240000000 1.0
C      1  0.5399770000000  0.4014240000000  0.5691260000000 1.0
C      1  0.4935970000000  0.5610530000000  0.6004110000000 1.0
C      1  0.4902020000000  0.4720890000000  0.4105990000000 1.0
C      1  0.5644050000000  0.5503020000000  0.4632000000000 1.0
C      1  0.5985890000000  0.5359620000000  0.4272680000000 1.0
C      1  0.5477560000000  0.4294500000000  0.5758010000000 1.0
C      1  0.5412850000000  0.5970690000000  0.5162550000000 1.0
END
