TITL C-599896-8500-1148 0.000127155928562148 125000 -526.025983793586 0 0 86 (C1) n - 1
REM
REM in /home/nfs/bkarasulu/CARBON/AIRSS/Generating-Clusters/TERSOFF/Only-C1/FIRE-HFTN
REM
REM
REM
REM
REM
REM ./C.cell (11c1c37f851c82e70ff6c80c92926a4b)
REM AIRSS Version 0.9.1 bugfix July 2018 build 013d7b7c2542+ Fri, 06 Jul 2018 19:26:36 +0100
REM compiler GCC version 9.2.1 20190827 (Red Hat 9.2.1-1)
REM options -cpp -mtune=generic -march=x86-64 -g -O0 -fpre-include=/usr/include/finclude/math-vector-fortran.h
REM seed -1897199743 -2067387733 -1224255646 -1429313145 1603877070 -2081266650 -1744074455 1456930334 2010253338 -539597727 -1742783518 660189418 -1872820898 -693748392 817740389 1041016538 258965972 1768585561 1169943885 1388208347 2120251214 1760273362 -1318056774 -1165366134 -864324183 77601747 -2114836639 1638218921 -815122205 159868993 -1041674267 -913779712 -1467853015
REM
CELL 1.54180   50.00000   50.00000   50.00000   90.00000   90.00000   90.00000
LATT -1
SFAC C  
C      1  0.3982140000000  0.4778660000000  0.4863840000000 1.0
C      1  0.4021990000000  0.5121200000000  0.5192040000000 1.0
C      1  0.5779010000000  0.5252530000000  0.4216220000000 1.0
C      1  0.4890100000000  0.5185710000000  0.5195870000000 1.0
C      1  0.5636230000000  0.5628280000000  0.5237200000000 1.0
C      1  0.5593180000000  0.4651460000000  0.4595780000000 1.0
C      1  0.4915390000000  0.4207810000000  0.4272520000000 1.0
C      1  0.6001170000000  0.5148470000000  0.4328220000000 1.0
C      1  0.5893710000000  0.5137000000000  0.4822070000000 1.0
C      1  0.4959670000000  0.5254960000000  0.4543780000000 1.0
C      1  0.4995320000000  0.5845260000000  0.5531870000000 1.0
C      1  0.5521200000000  0.5001030000000  0.5312840000000 1.0
C      1  0.5590970000000  0.5402260000000  0.5077500000000 1.0
C      1  0.4497810000000  0.5519820000000  0.4508630000000 1.0
C      1  0.5122540000000  0.5769830000000  0.5047080000000 1.0
C      1  0.4699130000000  0.5281770000000  0.5390930000000 1.0
C      1  0.5073550000000  0.4013130000000  0.4403910000000 1.0
C      1  0.5088440000000  0.4522410000000  0.4778110000000 1.0
C      1  0.4553920000000  0.5805620000000  0.5366410000000 1.0
C      1  0.4983740000000  0.5336120000000  0.5746730000000 1.0
C      1  0.5361880000000  0.3732380000000  0.5019340000000 1.0
C      1  0.5844970000000  0.4813900000000  0.5817960000000 1.0
C      1  0.4801110000000  0.4549680000000  0.5524060000000 1.0
C      1  0.5901910000000  0.4829260000000  0.5542440000000 1.0
C      1  0.5418330000000  0.5540500000000  0.5668080000000 1.0
C      1  0.5268400000000  0.4633470000000  0.4972540000000 1.0
C      1  0.6046870000000  0.5102140000000  0.4589480000000 1.0
C      1  0.5168960000000  0.4036590000000  0.4666340000000 1.0
C      1  0.4400560000000  0.4805970000000  0.4630720000000 1.0
C      1  0.4886240000000  0.4887820000000  0.5215290000000 1.0
C      1  0.4155500000000  0.5487810000000  0.4858090000000 1.0
C      1  0.4992420000000  0.3955220000000  0.5231070000000 1.0
C      1  0.5043790000000  0.4240460000000  0.4826950000000 1.0
C      1  0.4647560000000  0.4290980000000  0.5112250000000 1.0
C      1  0.4017610000000  0.5040100000000  0.4448470000000 1.0
C      1  0.4802120000000  0.5124310000000  0.5632100000000 1.0
C      1  0.5267220000000  0.5328770000000  0.5787790000000 1.0
C      1  0.4765470000000  0.6239670000000  0.4567480000000 1.0
C      1  0.4517190000000  0.5997030000000  0.4905520000000 1.0
C      1  0.4520410000000  0.4386260000000  0.4869340000000 1.0
C      1  0.4656620000000  0.4237780000000  0.4383190000000 1.0
C      1  0.5350040000000  0.3854120000000  0.4779370000000 1.0
C      1  0.5442500000000  0.5697800000000  0.5431800000000 1.0
C      1  0.5003500000000  0.4727650000000  0.4598150000000 1.0
C      1  0.5072140000000  0.4505320000000  0.5423660000000 1.0
C      1  0.5187380000000  0.5383620000000  0.4673000000000 1.0
C      1  0.5132610000000  0.4696200000000  0.5210250000000 1.0
C      1  0.5131640000000  0.5504030000000  0.4932640000000 1.0
C      1  0.4071950000000  0.5302710000000  0.4426380000000 1.0
C      1  0.5613450000000  0.4945170000000  0.5909930000000 1.0
C      1  0.4320640000000  0.4502540000000  0.5409140000000 1.0
C      1  0.5930440000000  0.4988700000000  0.5062530000000 1.0
C      1  0.5521990000000  0.4670360000000  0.4856050000000 1.0
C      1  0.4526100000000  0.4253760000000  0.4618830000000 1.0
C      1  0.4666230000000  0.4808960000000  0.5033630000000 1.0
C      1  0.4884440000000  0.5597030000000  0.5650720000000 1.0
C      1  0.4119560000000  0.4847860000000  0.4626240000000 1.0
C      1  0.4596850000000  0.4933120000000  0.4472810000000 1.0
C      1  0.5466990000000  0.5349350000000  0.4606840000000 1.0
C      1  0.5668010000000  0.5319180000000  0.4818220000000 1.0
C      1  0.5407340000000  0.5113690000000  0.5898920000000 1.0
C      1  0.6007920000000  0.4677030000000  0.5988960000000 1.0
C      1  0.4994590000000  0.5971130000000  0.4899300000000 1.0
C      1  0.5193480000000  0.3776660000000  0.5225500000000 1.0
C      1  0.5068570000000  0.4406650000000  0.4143020000000 1.0
C      1  0.5196950000000  0.5807580000000  0.5331020000000 1.0
C      1  0.4120740000000  0.4656390000000  0.5319050000000 1.0
C      1  0.5793990000000  0.4922320000000  0.5302280000000 1.0
C      1  0.4893120000000  0.4156790000000  0.5062220000000 1.0
C      1  0.5397700000000  0.5220860000000  0.5194830000000 1.0
C      1  0.4233860000000  0.5468240000000  0.4588380000000 1.0
C      1  0.4428560000000  0.5877570000000  0.5128600000000 1.0
C      1  0.4506880000000  0.4668490000000  0.4854370000000 1.0
C      1  0.5501450000000  0.4605960000000  0.4347410000000 1.0
C      1  0.4757670000000  0.5991550000000  0.5461380000000 1.0
C      1  0.4797540000000  0.4849070000000  0.5521610000000 1.0
C      1  0.4749870000000  0.5437090000000  0.4479040000000 1.0
C      1  0.4017980000000  0.4844770000000  0.5137430000000 1.0
C      1  0.4877030000000  0.4972970000000  0.4524720000000 1.0
C      1  0.5303890000000  0.4531950000000  0.4181450000000 1.0
C      1  0.4646360000000  0.5550930000000  0.5467940000000 1.0
C      1  0.4759330000000  0.6074660000000  0.4784500000000 1.0
C      1  0.4588110000000  0.4416820000000  0.5371820000000 1.0
C      1  0.4077170000000  0.5356310000000  0.5077130000000 1.0
C      1  0.5134360000000  0.5298100000000  0.5129390000000 1.0
C      1  0.5554720000000  0.5335550000000  0.4339520000000 1.0
END
