TITL C-599897-7526-177 -110.155579989441 125000 -869.034918602673 0 0 142 (C1) n - 1
REM
REM in /home/nfs/bkarasulu/CARBON/AIRSS/Generating-Clusters/TERSOFF/Only-C1/FIRE-HFTN
REM
REM
REM
REM
REM
REM ./C.cell (11c1c37f851c82e70ff6c80c92926a4b)
REM AIRSS Version 0.9.1 bugfix July 2018 build 013d7b7c2542+ Fri, 06 Jul 2018 19:26:36 +0100
REM compiler GCC version 9.2.1 20190827 (Red Hat 9.2.1-1)
REM options -cpp -mtune=generic -march=x86-64 -g -O0 -fpre-include=/usr/include/finclude/math-vector-fortran.h
REM seed -747593728 -1022110992 550050211 1514252805 1767405114 864817344 -370508024 -1608365029 1313760304 2132374205 -1709616534 306050921 1789568169 -191888260 1062820246 -281707423 1506377266 -273447417 -1302318135 636510428 -11148779 296435203 1116771538 875060150 -1170640380 -602789709 1949917205 -1221705013 -448405590 -837884915 -381009724 -505600604 1054476718
REM
CELL 1.54180   50.00000   50.00000   50.00000   90.00000   90.00000   90.00000
LATT -1
SFAC C  
C      1  0.4549010000000  0.4581340000000  0.6063340000000 1.0
C      1  0.4914480000000  0.6139660000000  0.4781600000000 1.0
C      1  0.5648380000000  0.4485920000000  0.4961130000000 1.0
C      1  0.3952380000000  0.5503270000000  0.5851280000000 1.0
C      1  0.4277360000000  0.5130140000000  0.3853460000000 1.0
C      1  0.5586110000000  0.5676440000000  0.5342070000000 1.0
C      1  0.4696590000000  0.5853720000000  0.5342610000000 1.0
C      1  0.6117930000000  0.4119130000000  0.5169940000000 1.0
C      1  0.6032050000000  0.5141220000000  0.5244370000000 1.0
C      1  0.6132630000000  0.5362610000000  0.4822360000000 1.0
C      1  0.5317690000000  0.5015210000000  0.5221150000000 1.0
C      1  0.4793860000000  0.6123820000000  0.5293440000000 1.0
C      1  0.4736840000000  0.6211500000000  0.5016080000000 1.0
C      1  0.4937190000000  0.5066500000000  0.3920470000000 1.0
C      1  0.4620030000000  0.5020800000000  0.5831020000000 1.0
C      1  0.5036370000000  0.5179060000000  0.6082710000000 1.0
C      1  0.4545760000000  0.4060910000000  0.4820380000000 1.0
C      1  0.5205520000000  0.5436780000000  0.5011040000000 1.0
C      1  0.5250760000000  0.4147870000000  0.4573390000000 1.0
C      1  0.5889930000000  0.5445820000000  0.4703760000000 1.0
C      1  0.5437250000000  0.4233850000000  0.5835620000000 1.0
C      1  0.5393710000000  0.5937530000000  0.4316160000000 1.0
C      1  0.5401600000000  0.5896920000000  0.5274910000000 1.0
C      1  0.4781290000000  0.5696740000000  0.5120040000000 1.0
C      1  0.4476210000000  0.6157770000000  0.4898980000000 1.0
C      1  0.4678270000000  0.4968230000000  0.5377470000000 1.0
C      1  0.5236850000000  0.5686580000000  0.5654350000000 1.0
C      1  0.5752090000000  0.5052340000000  0.4041650000000 1.0
C      1  0.5814610000000  0.4669810000000  0.5589140000000 1.0
C      1  0.3951960000000  0.4923930000000  0.5306960000000 1.0
C      1  0.4697150000000  0.4331440000000  0.5177820000000 1.0
C      1  0.5759720000000  0.5207460000000  0.5282870000000 1.0
C      1  0.4567390000000  0.5560800000000  0.4994910000000 1.0
C      1  0.5956430000000  0.4863700000000  0.3988130000000 1.0
C      1  0.5092760000000  0.3875110000000  0.4976940000000 1.0
C      1  0.4626390000000  0.5067050000000  0.4545600000000 1.0
C      1  0.5686690000000  0.5470650000000  0.5171500000000 1.0
C      1  0.4127350000000  0.5113310000000  0.4907410000000 1.0
C      1  0.5393840000000  0.4506460000000  0.5895750000000 1.0
C      1  0.4816310000000  0.5030320000000  0.4344620000000 1.0
C      1  0.4133240000000  0.4792530000000  0.4380200000000 1.0
C      1  0.4493280000000  0.5938320000000  0.4705520000000 1.0
C      1  0.4127090000000  0.5599600000000  0.4791270000000 1.0
C      1  0.5304570000000  0.4945680000000  0.4527750000000 1.0
C      1  0.5563160000000  0.5009820000000  0.5358810000000 1.0
C      1  0.3913980000000  0.4681890000000  0.4896530000000 1.0
C      1  0.5040880000000  0.4739960000000  0.5631790000000 1.0
C      1  0.4447920000000  0.4830790000000  0.5251290000000 1.0
C      1  0.4951100000000  0.4390940000000  0.5044260000000 1.0
C      1  0.4749100000000  0.5217240000000  0.5269190000000 1.0
C      1  0.4841670000000  0.5238850000000  0.4138570000000 1.0
C      1  0.5678280000000  0.5489970000000  0.5810040000000 1.0
C      1  0.5799670000000  0.5275330000000  0.4204160000000 1.0
C      1  0.4992470000000  0.4043370000000  0.5721900000000 1.0
C      1  0.4928350000000  0.3916960000000  0.5467440000000 1.0
C      1  0.5714860000000  0.4439560000000  0.3959170000000 1.0
C      1  0.5000500000000  0.4929570000000  0.6185750000000 1.0
C      1  0.5058000000000  0.4342620000000  0.4560420000000 1.0
C      1  0.5320710000000  0.4738820000000  0.3957500000000 1.0
C      1  0.5197270000000  0.4518700000000  0.5118430000000 1.0
C      1  0.5546800000000  0.3834850000000  0.4789830000000 1.0
C      1  0.4600950000000  0.4535690000000  0.4175760000000 1.0
C      1  0.5015290000000  0.4642660000000  0.6169220000000 1.0
C      1  0.4651720000000  0.4057610000000  0.5088400000000 1.0
C      1  0.5427530000000  0.5127440000000  0.4677660000000 1.0
C      1  0.5516980000000  0.5606040000000  0.5617810000000 1.0
C      1  0.5808930000000  0.5335760000000  0.5981340000000 1.0
C      1  0.4612200000000  0.4279510000000  0.4645200000000 1.0
C      1  0.4513290000000  0.4539650000000  0.5219800000000 1.0
C      1  0.5665870000000  0.5484610000000  0.4880510000000 1.0
C      1  0.3932470000000  0.4934250000000  0.5024750000000 1.0
C      1  0.4927660000000  0.4479500000000  0.5598120000000 1.0
C      1  0.4480690000000  0.5519400000000  0.5740790000000 1.0
C      1  0.5804630000000  0.3849910000000  0.4856030000000 1.0
C      1  0.5195630000000  0.5780710000000  0.4412820000000 1.0
C      1  0.5246320000000  0.5901530000000  0.5037630000000 1.0
C      1  0.5443520000000  0.4478600000000  0.4022390000000 1.0
C      1  0.4644030000000  0.5308890000000  0.5847890000000 1.0
C      1  0.4312900000000  0.4655540000000  0.4573480000000 1.0
C      1  0.5570220000000  0.3937370000000  0.5381600000000 1.0
C      1  0.4196410000000  0.4867880000000  0.5409950000000 1.0
C      1  0.4620020000000  0.5269010000000  0.4990690000000 1.0
C      1  0.4393920000000  0.5691970000000  0.4812030000000 1.0
C      1  0.5280770000000  0.4550570000000  0.6149920000000 1.0
C      1  0.5302040000000  0.4311720000000  0.4202910000000 1.0
C      1  0.6002030000000  0.4498760000000  0.5508170000000 1.0
C      1  0.4971290000000  0.4870280000000  0.4918850000000 1.0
C      1  0.6010050000000  0.3955100000000  0.4989590000000 1.0
C      1  0.5221030000000  0.5946880000000  0.5507600000000 1.0
C      1  0.4982990000000  0.5331270000000  0.5402840000000 1.0
C      1  0.5182070000000  0.4802990000000  0.5093020000000 1.0
C      1  0.5926000000000  0.5163760000000  0.6138400000000 1.0
C      1  0.5494740000000  0.4167830000000  0.5285030000000 1.0
C      1  0.4762320000000  0.5966020000000  0.4571630000000 1.0
C      1  0.5493400000000  0.4964910000000  0.3966090000000 1.0
C      1  0.4208220000000  0.5520800000000  0.5804890000000 1.0
C      1  0.5287390000000  0.3943640000000  0.4771570000000 1.0
C      1  0.4110190000000  0.4545490000000  0.4768580000000 1.0
C      1  0.4754550000000  0.5260030000000  0.4716810000000 1.0
C      1  0.4024640000000  0.5271010000000  0.4447270000000 1.0
C      1  0.5185490000000  0.6101620000000  0.4852180000000 1.0
C      1  0.5334480000000  0.4714810000000  0.5696010000000 1.0
C      1  0.5029790000000  0.4782610000000  0.3964650000000 1.0
C      1  0.5573290000000  0.4813100000000  0.5562710000000 1.0
C      1  0.3970550000000  0.5003700000000  0.4381310000000 1.0
C      1  0.4898240000000  0.5804310000000  0.4357800000000 1.0
C      1  0.4944790000000  0.5409090000000  0.4569740000000 1.0
C      1  0.4515530000000  0.4845860000000  0.4712990000000 1.0
C      1  0.4871640000000  0.4297500000000  0.5810640000000 1.0
C      1  0.5390380000000  0.5409010000000  0.4776820000000 1.0
C      1  0.5852970000000  0.5412390000000  0.4426910000000 1.0
C      1  0.4926830000000  0.5359490000000  0.5889370000000 1.0
C      1  0.4809060000000  0.4464190000000  0.6051220000000 1.0
C      1  0.4432050000000  0.4651200000000  0.3980530000000 1.0
C      1  0.5064470000000  0.4914330000000  0.4417320000000 1.0
C      1  0.3912480000000  0.5769740000000  0.4844350000000 1.0
C      1  0.4342560000000  0.4871000000000  0.3857460000000 1.0
C      1  0.6111850000000  0.4309230000000  0.5356600000000 1.0
C      1  0.4414000000000  0.5014870000000  0.4963330000000 1.0
C      1  0.5932400000000  0.4597670000000  0.3950860000000 1.0
C      1  0.4839960000000  0.5506210000000  0.4302240000000 1.0
C      1  0.4491080000000  0.4446450000000  0.4437840000000 1.0
C      1  0.4080550000000  0.5328070000000  0.4721130000000 1.0
C      1  0.4105330000000  0.5426310000000  0.4226110000000 1.0
C      1  0.4201610000000  0.5349770000000  0.3986670000000 1.0
C      1  0.6193000000000  0.5220330000000  0.5042840000000 1.0
C      1  0.4885680000000  0.3905450000000  0.5179320000000 1.0
C      1  0.5060160000000  0.5680260000000  0.5036380000000 1.0
C      1  0.4857770000000  0.4429910000000  0.4753190000000 1.0
C      1  0.5048700000000  0.5468660000000  0.5653820000000 1.0
C      1  0.4884550000000  0.4573360000000  0.4125610000000 1.0
C      1  0.3716430000000  0.5933520000000  0.4895800000000 1.0
C      1  0.4579160000000  0.5725280000000  0.5566460000000 1.0
C      1  0.4778050000000  0.4715160000000  0.4781250000000 1.0
C      1  0.5193010000000  0.5264780000000  0.5225440000000 1.0
C      1  0.5025670000000  0.6150320000000  0.5461720000000 1.0
C      1  0.5264200000000  0.4027430000000  0.5806130000000 1.0
C      1  0.4480460000000  0.4832020000000  0.5986210000000 1.0
C      1  0.5212770000000  0.5537050000000  0.4570820000000 1.0
C      1  0.5054860000000  0.4410680000000  0.4283360000000 1.0
C      1  0.4798490000000  0.4910210000000  0.5627280000000 1.0
C      1  0.5449110000000  0.4391300000000  0.5124290000000 1.0
END
