TITL C-599893-4344-1251 -456.124144458959 125000 -927.654989661546 0 0 152 (C1) n - 1
REM
REM in /home/nfs/bkarasulu/CARBON/AIRSS/Generating-Clusters/TERSOFF/Only-C1/FIRE-HFTN
REM
REM
REM
REM
REM
REM ./C.cell (11c1c37f851c82e70ff6c80c92926a4b)
REM AIRSS Version 0.9.1 bugfix July 2018 build 013d7b7c2542+ Fri, 06 Jul 2018 19:26:36 +0100
REM compiler GCC version 9.2.1 20190827 (Red Hat 9.2.1-1)
REM options -cpp -mtune=generic -march=x86-64 -g -O0 -fpre-include=/usr/include/finclude/math-vector-fortran.h
REM seed 1433511101 1446073718 929713627 17963850 201155256 -1984701785 872061922 810052120 1897681233 235002877 132711239 -1434781546 1405112222 -1853620211 -103381285 -467002911 -1185761880 1278624558 1805632912 -1926782572 -1123392325 1294989974 1756877775 1591136878 -1062395180 -1666847984 -1546861816 -1583587511 -1520215552 -147733472 1450132329 -411750498 937832566
REM
CELL 1.54180   50.00000   50.00000   50.00000   90.00000   90.00000   90.00000
LATT -1
SFAC C  
C      1  0.5121740000000  0.4243780000000  0.5824930000000 1.0
C      1  0.5979920000000  0.5189660000000  0.4979310000000 1.0
C      1  0.4057280000000  0.4456740000000  0.5355570000000 1.0
C      1  0.6705690000000  0.4202460000000  0.4358300000000 1.0
C      1  0.5218580000000  0.5309810000000  0.5413010000000 1.0
C      1  0.5139320000000  0.5407380000000  0.3895090000000 1.0
C      1  0.4827000000000  0.4239260000000  0.4144330000000 1.0
C      1  0.4086980000000  0.5396000000000  0.4322600000000 1.0
C      1  0.5005360000000  0.5203050000000  0.4319260000000 1.0
C      1  0.4410090000000  0.5067450000000  0.4897930000000 1.0
C      1  0.6010410000000  0.4392960000000  0.4473900000000 1.0
C      1  0.4230420000000  0.5699310000000  0.3983510000000 1.0
C      1  0.4251900000000  0.4550730000000  0.4713130000000 1.0
C      1  0.4999640000000  0.4257950000000  0.4371980000000 1.0
C      1  0.6658930000000  0.4138890000000  0.5073770000000 1.0
C      1  0.4258730000000  0.5108190000000  0.5749670000000 1.0
C      1  0.5308740000000  0.6445240000000  0.4696100000000 1.0
C      1  0.6595310000000  0.4184150000000  0.4825110000000 1.0
C      1  0.5682910000000  0.4593310000000  0.4956240000000 1.0
C      1  0.6130570000000  0.4599740000000  0.5202230000000 1.0
C      1  0.4785940000000  0.5645100000000  0.5800810000000 1.0
C      1  0.5393550000000  0.5458930000000  0.5876710000000 1.0
C      1  0.5146300000000  0.4769070000000  0.4506010000000 1.0
C      1  0.4650590000000  0.4051760000000  0.4691140000000 1.0
C      1  0.4404150000000  0.4831530000000  0.5067020000000 1.0
C      1  0.4930490000000  0.4042700000000  0.5900830000000 1.0
C      1  0.4009160000000  0.5214020000000  0.4529880000000 1.0
C      1  0.5939110000000  0.4548550000000  0.5020000000000 1.0
C      1  0.4609010000000  0.6215800000000  0.4574360000000 1.0
C      1  0.4643610000000  0.5325260000000  0.5270170000000 1.0
C      1  0.4655820000000  0.5731090000000  0.5536960000000 1.0
C      1  0.5279040000000  0.4659590000000  0.4279920000000 1.0
C      1  0.4977730000000  0.5514050000000  0.4987830000000 1.0
C      1  0.4635350000000  0.5095580000000  0.4706440000000 1.0
C      1  0.4750020000000  0.5932170000000  0.5351420000000 1.0
C      1  0.5545250000000  0.4888610000000  0.5437440000000 1.0
C      1  0.4971910000000  0.4688490000000  0.4933010000000 1.0
C      1  0.4324090000000  0.4901250000000  0.4126000000000 1.0
C      1  0.5158810000000  0.4458110000000  0.6022350000000 1.0
C      1  0.5646430000000  0.5672830000000  0.5023010000000 1.0
C      1  0.4953420000000  0.5715690000000  0.4377140000000 1.0
C      1  0.5261100000000  0.5165930000000  0.5169080000000 1.0
C      1  0.4799770000000  0.4348600000000  0.5207040000000 1.0
C      1  0.5157570000000  0.4243380000000  0.5543250000000 1.0
C      1  0.5880460000000  0.4570290000000  0.5601090000000 1.0
C      1  0.4866100000000  0.6277130000000  0.4619870000000 1.0
C      1  0.5162540000000  0.5767550000000  0.5553090000000 1.0
C      1  0.4091800000000  0.4915910000000  0.5608950000000 1.0
C      1  0.4554340000000  0.3960980000000  0.4954870000000 1.0
C      1  0.4221430000000  0.5645500000000  0.4263020000000 1.0
C      1  0.5447910000000  0.5173450000000  0.4555950000000 1.0
C      1  0.5051610000000  0.5205520000000  0.5629130000000 1.0
C      1  0.4475700000000  0.4490810000000  0.6028530000000 1.0
C      1  0.5576750000000  0.5036700000000  0.4049520000000 1.0
C      1  0.4402900000000  0.4581550000000  0.4948200000000 1.0
C      1  0.5271930000000  0.4371120000000  0.4330720000000 1.0
C      1  0.5880410000000  0.5748440000000  0.5446900000000 1.0
C      1  0.4855670000000  0.4749240000000  0.4490450000000 1.0
C      1  0.5472260000000  0.4929060000000  0.5979840000000 1.0
C      1  0.4920370000000  0.5111080000000  0.5870290000000 1.0
C      1  0.4343040000000  0.4428580000000  0.4149970000000 1.0
C      1  0.4437790000000  0.5023040000000  0.5965950000000 1.0
C      1  0.5656880000000  0.5118820000000  0.5578400000000 1.0
C      1  0.5602080000000  0.5321600000000  0.4058780000000 1.0
C      1  0.4582730000000  0.6027990000000  0.5136890000000 1.0
C      1  0.4471290000000  0.5902420000000  0.4902930000000 1.0
C      1  0.4426770000000  0.5787060000000  0.4418720000000 1.0
C      1  0.5597350000000  0.5658390000000  0.5867040000000 1.0
C      1  0.5183220000000  0.5608980000000  0.4499050000000 1.0
C      1  0.5128960000000  0.6238990000000  0.4713370000000 1.0
C      1  0.6261340000000  0.4313290000000  0.4501840000000 1.0
C      1  0.5683050000000  0.5001840000000  0.4582010000000 1.0
C      1  0.4505440000000  0.5626230000000  0.4918760000000 1.0
C      1  0.4677400000000  0.4454120000000  0.6202350000000 1.0
C      1  0.4125430000000  0.4702620000000  0.4508730000000 1.0
C      1  0.4725890000000  0.5045060000000  0.5277120000000 1.0
C      1  0.4504570000000  0.5486010000000  0.5461500000000 1.0
C      1  0.4227170000000  0.4667750000000  0.4245780000000 1.0
C      1  0.4505840000000  0.4859510000000  0.5334790000000 1.0
C      1  0.5081200000000  0.5646070000000  0.5796140000000 1.0
C      1  0.5857430000000  0.5600030000000  0.5205270000000 1.0
C      1  0.5337800000000  0.5780520000000  0.4665960000000 1.0
C      1  0.4589490000000  0.5452330000000  0.5901230000000 1.0
C      1  0.6522870000000  0.4232950000000  0.4559440000000 1.0
C      1  0.5213340000000  0.5991380000000  0.4825300000000 1.0
C      1  0.5428090000000  0.4937400000000  0.5183350000000 1.0
C      1  0.4556180000000  0.5045160000000  0.4175380000000 1.0
C      1  0.3920020000000  0.4911400000000  0.5151830000000 1.0
C      1  0.4691510000000  0.5723220000000  0.4334160000000 1.0
C      1  0.4811660000000  0.4553960000000  0.4712030000000 1.0
C      1  0.4197920000000  0.4196400000000  0.5330980000000 1.0
C      1  0.5624090000000  0.4638850000000  0.5544210000000 1.0
C      1  0.4536740000000  0.5363230000000  0.3793010000000 1.0
C      1  0.5510470000000  0.5179020000000  0.5828910000000 1.0
C      1  0.4571470000000  0.4302340000000  0.4087200000000 1.0
C      1  0.5607540000000  0.5690300000000  0.4734400000000 1.0
C      1  0.5888700000000  0.5078240000000  0.4755570000000 1.0
C      1  0.4386620000000  0.4144310000000  0.5112010000000 1.0
C      1  0.5511980000000  0.4803670000000  0.4193040000000 1.0
C      1  0.4716160000000  0.5007970000000  0.4424370000000 1.0
C      1  0.4376640000000  0.5378320000000  0.5693820000000 1.0
C      1  0.5213670000000  0.5934850000000  0.5104750000000 1.0
C      1  0.5229630000000  0.4736910000000  0.4790670000000 1.0
C      1  0.4949170000000  0.5273900000000  0.4050480000000 1.0
C      1  0.4196540000000  0.5249960000000  0.4972160000000 1.0
C      1  0.4683050000000  0.3951210000000  0.5850780000000 1.0
C      1  0.4000260000000  0.4745030000000  0.5380730000000 1.0
C      1  0.5738270000000  0.5467120000000  0.4265420000000 1.0
C      1  0.4443950000000  0.5992000000000  0.4631110000000 1.0
C      1  0.4672930000000  0.5190750000000  0.5980580000000 1.0
C      1  0.4835440000000  0.4275630000000  0.4624420000000 1.0
C      1  0.6116410000000  0.4978520000000  0.5512760000000 1.0
C      1  0.4741220000000  0.3805470000000  0.5102790000000 1.0
C      1  0.4947870000000  0.3900770000000  0.5250170000000 1.0
C      1  0.4707010000000  0.5491210000000  0.5049210000000 1.0
C      1  0.6095790000000  0.4698350000000  0.5464990000000 1.0
C      1  0.5918300000000  0.5180440000000  0.5467860000000 1.0
C      1  0.4932450000000  0.4842010000000  0.5180530000000 1.0
C      1  0.4681300000000  0.5213690000000  0.3979710000000 1.0
C      1  0.4441910000000  0.3958000000000  0.5734720000000 1.0
C      1  0.5453010000000  0.4754380000000  0.4964710000000 1.0
C      1  0.4543390000000  0.4383700000000  0.5089490000000 1.0
C      1  0.5403900000000  0.5453180000000  0.3905870000000 1.0
C      1  0.4061910000000  0.5371410000000  0.4762620000000 1.0
C      1  0.5529960000000  0.4281690000000  0.4423540000000 1.0
C      1  0.3964790000000  0.4926080000000  0.4604700000000 1.0
C      1  0.4840600000000  0.4645640000000  0.5599000000000 1.0
C      1  0.4560740000000  0.4686650000000  0.5565120000000 1.0
C      1  0.5745390000000  0.4479930000000  0.4452400000000 1.0
C      1  0.4254050000000  0.4046400000000  0.5565180000000 1.0
C      1  0.4989990000000  0.4171330000000  0.5324980000000 1.0
C      1  0.4898670000000  0.5119390000000  0.4823050000000 1.0
C      1  0.3851450000000  0.4866780000000  0.4873260000000 1.0
C      1  0.4560280000000  0.3896180000000  0.4479870000000 1.0
C      1  0.3902130000000  0.5366840000000  0.5347550000000 1.0
C      1  0.5937870000000  0.5327510000000  0.5220190000000 1.0
C      1  0.5101770000000  0.5261100000000  0.4957020000000 1.0
C      1  0.5571990000000  0.4018420000000  0.4487100000000 1.0
C      1  0.5217400000000  0.5321790000000  0.4466400000000 1.0
C      1  0.5313710000000  0.5578430000000  0.5395660000000 1.0
C      1  0.4362560000000  0.5567050000000  0.3789870000000 1.0
C      1  0.5778580000000  0.5759400000000  0.5695650000000 1.0
C      1  0.5037890000000  0.5943930000000  0.5345150000000 1.0
C      1  0.5027810000000  0.4715030000000  0.5418180000000 1.0
C      1  0.4946600000000  0.4439860000000  0.6219630000000 1.0
C      1  0.5691300000000  0.4761890000000  0.4418620000000 1.0
C      1  0.5406460000000  0.5722130000000  0.5168580000000 1.0
C      1  0.4415930000000  0.4570020000000  0.5777710000000 1.0
C      1  0.5258470000000  0.4733430000000  0.6005360000000 1.0
C      1  0.4017280000000  0.5182430000000  0.5183010000000 1.0
C      1  0.5033590000000  0.4904430000000  0.6012560000000 1.0
C      1  0.5751290000000  0.5589980000000  0.4508270000000 1.0
END
