TITL C-599891-72-1124 4.55979915592884 125000 -303.575907257214 0 0 53 (C1) n - 1
REM
REM in /home/nfs/bkarasulu/CARBON/AIRSS/Generating-Clusters/TERSOFF/Only-C1/FIRE-HFTN
REM
REM
REM
REM
REM
REM ./C.cell (11c1c37f851c82e70ff6c80c92926a4b)
REM AIRSS Version 0.9.1 bugfix July 2018 build 013d7b7c2542+ Fri, 06 Jul 2018 19:26:36 +0100
REM compiler GCC version 9.2.1 20190827 (Red Hat 9.2.1-1)
REM options -cpp -mtune=generic -march=x86-64 -g -O0 -fpre-include=/usr/include/finclude/math-vector-fortran.h
REM seed 1321204192 -368183982 -1652896469 901495710 10385069 2116904368 -1922441724 670980828 1234087106 655996499 1215638074 1480340082 -689254075 -160477082 1150853106 -1588222098 1364751047 -1388126053 1074601105 -853343522 -1051962005 674423948 1783422003 1350357340 687713088 556835136 -459837136 237449050 1354999912 2140994144 1279038446 1575367294 -1819129467
REM
CELL 1.54180   50.00000   50.00000   50.00000   90.00000   90.00000   90.00000
LATT -1
SFAC C  
C      1  0.4532000000000  0.4411430000000  0.6129030000000 1.0
C      1  0.4575690000000  0.4284590000000  0.5661210000000 1.0
C      1  0.5329750000000  0.5316510000000  0.4832460000000 1.0
C      1  0.4655610000000  0.5046160000000  0.4977400000000 1.0
C      1  0.4475680000000  0.4833700000000  0.4923020000000 1.0
C      1  0.5365780000000  0.5087530000000  0.4992670000000 1.0
C      1  0.4652490000000  0.4237810000000  0.4607950000000 1.0
C      1  0.4563430000000  0.4282320000000  0.5392850000000 1.0
C      1  0.4267970000000  0.4807400000000  0.5534650000000 1.0
C      1  0.5021180000000  0.4484890000000  0.4790710000000 1.0
C      1  0.5310280000000  0.5867880000000  0.4348510000000 1.0
C      1  0.4874160000000  0.6016050000000  0.5064510000000 1.0
C      1  0.6168750000000  0.4159580000000  0.4611260000000 1.0
C      1  0.6403460000000  0.4427490000000  0.4205180000000 1.0
C      1  0.4460730000000  0.4459350000000  0.5203470000000 1.0
C      1  0.6292600000000  0.4298470000000  0.4402630000000 1.0
C      1  0.4725190000000  0.5780670000000  0.5088440000000 1.0
C      1  0.5689470000000  0.4238020000000  0.4654010000000 1.0
C      1  0.4573800000000  0.4559660000000  0.4956520000000 1.0
C      1  0.5158740000000  0.6002210000000  0.5064160000000 1.0
C      1  0.5282840000000  0.5746800000000  0.5062980000000 1.0
C      1  0.5361700000000  0.5625090000000  0.5304450000000 1.0
C      1  0.4351360000000  0.4688960000000  0.5772460000000 1.0
C      1  0.5900490000000  0.4071510000000  0.4578430000000 1.0
C      1  0.4488050000000  0.4459760000000  0.5864580000000 1.0
C      1  0.4503950000000  0.6726750000000  0.4989850000000 1.0
C      1  0.4743710000000  0.6261630000000  0.5039480000000 1.0
C      1  0.5492970000000  0.4399940000000  0.4726540000000 1.0
C      1  0.5315520000000  0.5727460000000  0.4573100000000 1.0
C      1  0.4718670000000  0.5088300000000  0.5263350000000 1.0
C      1  0.4215810000000  0.4850390000000  0.5064750000000 1.0
C      1  0.4659360000000  0.5320290000000  0.4882430000000 1.0
C      1  0.5849450000000  0.3819100000000  0.4470470000000 1.0
C      1  0.6302910000000  0.4108610000000  0.4844190000000 1.0
C      1  0.4222290000000  0.5082970000000  0.5463840000000 1.0
C      1  0.4019980000000  0.5358350000000  0.5145470000000 1.0
C      1  0.5414460000000  0.5140970000000  0.5265610000000 1.0
C      1  0.5344840000000  0.4829500000000  0.4892350000000 1.0
C      1  0.5805840000000  0.3579130000000  0.4367030000000 1.0
C      1  0.4618790000000  0.5350660000000  0.5349000000000 1.0
C      1  0.5309220000000  0.5597090000000  0.4819640000000 1.0
C      1  0.5763350000000  0.3342930000000  0.4265200000000 1.0
C      1  0.4622300000000  0.6495780000000  0.5014480000000 1.0
C      1  0.4748220000000  0.4424940000000  0.4782970000000 1.0
C      1  0.4160300000000  0.5516950000000  0.5325150000000 1.0
C      1  0.4092400000000  0.5082160000000  0.5183140000000 1.0
C      1  0.5311680000000  0.6229210000000  0.5065440000000 1.0
C      1  0.4262010000000  0.4651720000000  0.5287730000000 1.0
C      1  0.4356950000000  0.5350710000000  0.5465490000000 1.0
C      1  0.4661700000000  0.5512090000000  0.5102200000000 1.0
C      1  0.5286340000000  0.4571450000000  0.4803190000000 1.0
C      1  0.5303300000000  0.6009750000000  0.4129910000000 1.0
C      1  0.5412460000000  0.5377330000000  0.5394470000000 1.0
END
