TITL C-599893-4344-172 0.17650426399649 125000 -530.001183083986 0 0 88 (C1) n - 1
REM
REM in /home/nfs/bkarasulu/CARBON/AIRSS/Generating-Clusters/TERSOFF/Only-C1/FIRE-HFTN
REM
REM
REM
REM
REM
REM ./C.cell (11c1c37f851c82e70ff6c80c92926a4b)
REM AIRSS Version 0.9.1 bugfix July 2018 build 013d7b7c2542+ Fri, 06 Jul 2018 19:26:36 +0100
REM compiler GCC version 9.2.1 20190827 (Red Hat 9.2.1-1)
REM options -cpp -mtune=generic -march=x86-64 -g -O0 -fpre-include=/usr/include/finclude/math-vector-fortran.h
REM seed 1173158134 -706118847 -796422444 -96176851 1097176811 -778519189 -1292492280 -1910146129 420673438 1076903573 545400631 1904667974 -1074087704 437694187 2084012666 -468230290 647947651 587675949 -54394543 688834998 -634711677 -1974336239 746051241 140224648 1731368627 -102478081 -1032498468 -1492163122 -110059805 787087814 -2034900684 -750962559 -259480271
REM
CELL 1.54180   50.00000   50.00000   50.00000   90.00000   90.00000   90.00000
LATT -1
SFAC C  
C      1  0.5007160000000  0.4552190000000  0.4303610000000 1.0
C      1  0.5460650000000  0.5124430000000  0.5746090000000 1.0
C      1  0.5113470000000  0.4800710000000  0.5769830000000 1.0
C      1  0.5233120000000  0.5669310000000  0.5722840000000 1.0
C      1  0.5144110000000  0.5967350000000  0.4715650000000 1.0
C      1  0.4548430000000  0.4191530000000  0.5032980000000 1.0
C      1  0.4758470000000  0.6122960000000  0.4954820000000 1.0
C      1  0.4803930000000  0.4133620000000  0.4465640000000 1.0
C      1  0.5170820000000  0.5044830000000  0.4380970000000 1.0
C      1  0.6519820000000  0.5172400000000  0.5359020000000 1.0
C      1  0.5488750000000  0.5733820000000  0.5763700000000 1.0
C      1  0.5746730000000  0.5684980000000  0.5720080000000 1.0
C      1  0.5202520000000  0.4678660000000  0.5135430000000 1.0
C      1  0.4293750000000  0.5608120000000  0.5507400000000 1.0
C      1  0.5025700000000  0.4184260000000  0.4918710000000 1.0
C      1  0.5217830000000  0.5804880000000  0.4501560000000 1.0
C      1  0.4995430000000  0.4967390000000  0.4846910000000 1.0
C      1  0.5656300000000  0.4997680000000  0.4605910000000 1.0
C      1  0.4325230000000  0.4392030000000  0.4582900000000 1.0
C      1  0.4742230000000  0.4893690000000  0.4946510000000 1.0
C      1  0.5310400000000  0.4228170000000  0.4845140000000 1.0
C      1  0.4619020000000  0.5973630000000  0.5397050000000 1.0
C      1  0.5955160000000  0.5551070000000  0.5623690000000 1.0
C      1  0.5300370000000  0.4685000000000  0.5583160000000 1.0
C      1  0.5180320000000  0.4740600000000  0.4859840000000 1.0
C      1  0.4725800000000  0.4575960000000  0.5538720000000 1.0
C      1  0.6105440000000  0.4697490000000  0.5281240000000 1.0
C      1  0.4380870000000  0.5408080000000  0.5699160000000 1.0
C      1  0.4724170000000  0.4615960000000  0.4980980000000 1.0
C      1  0.4415930000000  0.5047890000000  0.4492620000000 1.0
C      1  0.4519200000000  0.5190830000000  0.5567240000000 1.0
C      1  0.5487910000000  0.5004690000000  0.5495150000000 1.0
C      1  0.5095910000000  0.5316800000000  0.4543910000000 1.0
C      1  0.4238500000000  0.4640300000000  0.5333270000000 1.0
C      1  0.4108820000000  0.4899800000000  0.4898850000000 1.0
C      1  0.3741030000000  0.4663080000000  0.4259390000000 1.0
C      1  0.5567180000000  0.5464870000000  0.4465130000000 1.0
C      1  0.4911200000000  0.6127680000000  0.4729860000000 1.0
C      1  0.4386410000000  0.4248590000000  0.4821500000000 1.0
C      1  0.5110960000000  0.5238170000000  0.4849940000000 1.0
C      1  0.4810670000000  0.4337110000000  0.5091600000000 1.0
C      1  0.5321600000000  0.4228950000000  0.4553840000000 1.0
C      1  0.4800400000000  0.5393150000000  0.4512210000000 1.0
C      1  0.4832920000000  0.4798240000000  0.5685910000000 1.0
C      1  0.4524950000000  0.4532090000000  0.4429200000000 1.0
C      1  0.4719870000000  0.4910560000000  0.4165900000000 1.0
C      1  0.4755610000000  0.5079650000000  0.5662020000000 1.0
C      1  0.6246060000000  0.5172040000000  0.5361040000000 1.0
C      1  0.5037990000000  0.5796360000000  0.5174970000000 1.0
C      1  0.4910790000000  0.4416110000000  0.5375040000000 1.0
C      1  0.4117530000000  0.4756840000000  0.5124970000000 1.0
C      1  0.4296630000000  0.5455540000000  0.5258260000000 1.0
C      1  0.6104030000000  0.4973780000000  0.5219260000000 1.0
C      1  0.4515210000000  0.4806350000000  0.4355920000000 1.0
C      1  0.4985380000000  0.5252370000000  0.5712870000000 1.0
C      1  0.4457860000000  0.5217590000000  0.5282190000000 1.0
C      1  0.5935810000000  0.5026550000000  0.4998330000000 1.0
C      1  0.5727850000000  0.5260420000000  0.4533240000000 1.0
C      1  0.6106710000000  0.5369990000000  0.5502310000000 1.0
C      1  0.4579780000000  0.5075820000000  0.5078960000000 1.0
C      1  0.4573540000000  0.5278710000000  0.4386770000000 1.0
C      1  0.5765500000000  0.4857830000000  0.4837570000000 1.0
C      1  0.4217110000000  0.5023600000000  0.4687570000000 1.0
C      1  0.5737260000000  0.4580150000000  0.4955330000000 1.0
C      1  0.4893080000000  0.4039920000000  0.4703490000000 1.0
C      1  0.3603240000000  0.4257040000000  0.4466270000000 1.0
C      1  0.5069270000000  0.5492560000000  0.5574200000000 1.0
C      1  0.5312710000000  0.4684260000000  0.4621380000000 1.0
C      1  0.5239500000000  0.4475560000000  0.4447070000000 1.0
C      1  0.4984950000000  0.4842360000000  0.4246820000000 1.0
C      1  0.5193080000000  0.5082230000000  0.5838120000000 1.0
C      1  0.5294040000000  0.5535660000000  0.4477250000000 1.0
C      1  0.4646230000000  0.5184510000000  0.4117630000000 1.0
C      1  0.4061160000000  0.4393610000000  0.4491150000000 1.0
C      1  0.5130150000000  0.4928240000000  0.5254770000000 1.0
C      1  0.5410270000000  0.4914880000000  0.4495230000000 1.0
C      1  0.3798950000000  0.4438250000000  0.4404550000000 1.0
C      1  0.5189870000000  0.4512890000000  0.5371860000000 1.0
C      1  0.5213000000000  0.5336450000000  0.5117980000000 1.0
C      1  0.5082070000000  0.5537400000000  0.5285090000000 1.0
C      1  0.4401340000000  0.5864900000000  0.5506980000000 1.0
C      1  0.4449120000000  0.4570110000000  0.5482780000000 1.0
C      1  0.4803830000000  0.5965390000000  0.5188940000000 1.0
C      1  0.5224180000000  0.5880040000000  0.4974940000000 1.0
C      1  0.5944820000000  0.4525010000000  0.5147290000000 1.0
C      1  0.5332290000000  0.5122920000000  0.5280730000000 1.0
C      1  0.5532500000000  0.4376510000000  0.4949700000000 1.0
C      1  0.4770230000000  0.4396010000000  0.4364040000000 1.0
END
