TITL C-599891-72-121 0.404952851320835 125000 -122.346484516678 0 0 23 (C1) n - 1
REM
REM in /home/nfs/bkarasulu/CARBON/AIRSS/Generating-Clusters/TERSOFF/Only-C1/FIRE-HFTN
REM
REM
REM
REM
REM
REM ./C.cell (11c1c37f851c82e70ff6c80c92926a4b)
REM AIRSS Version 0.9.1 bugfix July 2018 build 013d7b7c2542+ Fri, 06 Jul 2018 19:26:36 +0100
REM compiler GCC version 9.2.1 20190827 (Red Hat 9.2.1-1)
REM options -cpp -mtune=generic -march=x86-64 -g -O0 -fpre-include=/usr/include/finclude/math-vector-fortran.h
REM seed 1389907915 1324123971 1718985718 1257609743 -1804492797 1749136575 -680357413 1825442447 -182392930 -1310616260 880719035 187569734 -1729930959 -2005072342 -1337326976 -2099426054 150434786 -1836498407 -503513067 -1017099273 1444826752 165880666 -214595623 -460742139 1178956453 -1861184191 807017549 -1311903181 1008657012 -2144029564 1868010004 -787262006 723973978
REM
CELL 1.54180   50.00000   50.00000   50.00000   90.00000   90.00000   90.00000
LATT -1
SFAC C  
C      1  0.4688180000000  0.4659040000000  0.5030810000000 1.0
C      1  0.4864940000000  0.4775300000000  0.5463370000000 1.0
C      1  0.5258350000000  0.5035550000000  0.4695780000000 1.0
C      1  0.5573180000000  0.5294420000000  0.5758930000000 1.0
C      1  0.5320570000000  0.4569140000000  0.4672640000000 1.0
C      1  0.4841800000000  0.4315020000000  0.5328630000000 1.0
C      1  0.5425980000000  0.5486100000000  0.4710760000000 1.0
C      1  0.4800460000000  0.5069020000000  0.5838340000000 1.0
C      1  0.4798550000000  0.4579640000000  0.5275170000000 1.0
C      1  0.5067990000000  0.5306120000000  0.5242400000000 1.0
C      1  0.5232650000000  0.4653120000000  0.4421960000000 1.0
C      1  0.4601550000000  0.4770410000000  0.4806660000000 1.0
C      1  0.5243310000000  0.5298310000000  0.4789850000000 1.0
C      1  0.4537890000000  0.4904590000000  0.4587230000000 1.0
C      1  0.5116160000000  0.5189510000000  0.5491430000000 1.0
C      1  0.5194230000000  0.4930170000000  0.4428740000000 1.0
C      1  0.4809380000000  0.5492230000000  0.4882320000000 1.0
C      1  0.4499290000000  0.5052950000000  0.4371020000000 1.0
C      1  0.4925150000000  0.5010330000000  0.5602060000000 1.0
C      1  0.5036160000000  0.5368260000000  0.4971860000000 1.0
C      1  0.4473050000000  0.5203850000000  0.4160070000000 1.0
C      1  0.5338650000000  0.4792250000000  0.4840500000000 1.0
C      1  0.5352530000000  0.5244670000000  0.5629480000000 1.0
END
