TITL C-599895-9959-568 -0.0873522222581893 125000 -935.755612906523 0 0 153 (C1) n - 1
REM
REM in /home/nfs/bkarasulu/CARBON/AIRSS/Generating-Clusters/TERSOFF/Only-C1/FIRE-HFTN
REM
REM
REM
REM
REM
REM ./C.cell (11c1c37f851c82e70ff6c80c92926a4b)
REM AIRSS Version 0.9.1 bugfix July 2018 build 013d7b7c2542+ Fri, 06 Jul 2018 19:26:36 +0100
REM compiler GCC version 9.2.1 20190827 (Red Hat 9.2.1-1)
REM options -cpp -mtune=generic -march=x86-64 -g -O0 -fpre-include=/usr/include/finclude/math-vector-fortran.h
REM seed 1742404268 -86290448 1318033497 851202103 -200268358 -1433883046 -806855207 1484759487 1402482134 -402034766 -1646544991 -1904777448 -1496295516 272898929 1932247420 -1738225310 -1152096103 -2090788324 168810096 995257222 2100395274 2078920281 1780227672 1439207313 -1562228151 83650097 -1540980238 785916360 1252776511 -1160644441 -1585238084 -1540614618 1515646670
REM
CELL 1.54180   50.00000   50.00000   50.00000   90.00000   90.00000   90.00000
LATT -1
SFAC C  
C      1  0.4610870000000  0.4941510000000  0.3864020000000 1.0
C      1  0.3947490000000  0.4844640000000  0.3993780000000 1.0
C      1  0.5599740000000  0.5413680000000  0.4162400000000 1.0
C      1  0.5251510000000  0.5914200000000  0.5573520000000 1.0
C      1  0.5609830000000  0.5232850000000  0.5212340000000 1.0
C      1  0.4006050000000  0.4783090000000  0.5291300000000 1.0
C      1  0.4290820000000  0.5183480000000  0.5507450000000 1.0
C      1  0.5837040000000  0.5486820000000  0.5647720000000 1.0
C      1  0.5739000000000  0.4024820000000  0.4797870000000 1.0
C      1  0.4101270000000  0.4669500000000  0.4110390000000 1.0
C      1  0.4730460000000  0.5445940000000  0.5361040000000 1.0
C      1  0.4988850000000  0.4881710000000  0.4439180000000 1.0
C      1  0.4850040000000  0.5707460000000  0.5273320000000 1.0
C      1  0.5806120000000  0.5231180000000  0.6523600000000 1.0
C      1  0.5613830000000  0.4474790000000  0.4798700000000 1.0
C      1  0.4338580000000  0.5678350000000  0.4495970000000 1.0
C      1  0.4095150000000  0.5356790000000  0.4992750000000 1.0
C      1  0.5076690000000  0.5685530000000  0.5088770000000 1.0
C      1  0.3951480000000  0.4405780000000  0.4690980000000 1.0
C      1  0.5915990000000  0.4439970000000  0.5356650000000 1.0
C      1  0.4310420000000  0.5987920000000  0.5400490000000 1.0
C      1  0.5068170000000  0.4713710000000  0.5178070000000 1.0
C      1  0.5873970000000  0.5661900000000  0.4694120000000 1.0
C      1  0.4964740000000  0.4279790000000  0.4608410000000 1.0
C      1  0.4821910000000  0.4498950000000  0.4709920000000 1.0
C      1  0.6077550000000  0.5109620000000  0.4979860000000 1.0
C      1  0.5131990000000  0.4260750000000  0.4378150000000 1.0
C      1  0.5516500000000  0.4222740000000  0.5539240000000 1.0
C      1  0.5957620000000  0.4572560000000  0.5600770000000 1.0
C      1  0.4483510000000  0.4331680000000  0.4168660000000 1.0
C      1  0.5666700000000  0.5496580000000  0.5106460000000 1.0
C      1  0.4074630000000  0.4521600000000  0.5215670000000 1.0
C      1  0.4230930000000  0.4051540000000  0.4447040000000 1.0
C      1  0.4945660000000  0.5941100000000  0.5468020000000 1.0
C      1  0.5666650000000  0.5873290000000  0.4292720000000 1.0
C      1  0.5645840000000  0.5215310000000  0.4381840000000 1.0
C      1  0.4257230000000  0.4884600000000  0.5907960000000 1.0
C      1  0.5085430000000  0.4334310000000  0.5733770000000 1.0
C      1  0.6126180000000  0.5546750000000  0.4736560000000 1.0
C      1  0.5531070000000  0.5087750000000  0.5686930000000 1.0
C      1  0.5239140000000  0.4136670000000  0.5035080000000 1.0
C      1  0.4716410000000  0.3484520000000  0.4593420000000 1.0
C      1  0.4458120000000  0.3920380000000  0.5218450000000 1.0
C      1  0.5068630000000  0.4153670000000  0.5259290000000 1.0
C      1  0.5206850000000  0.5747530000000  0.4845420000000 1.0
C      1  0.4832210000000  0.4582350000000  0.5225130000000 1.0
C      1  0.5337870000000  0.5707980000000  0.5773530000000 1.0
C      1  0.4618010000000  0.4701140000000  0.5350320000000 1.0
C      1  0.5072580000000  0.4892130000000  0.4941260000000 1.0
C      1  0.5193100000000  0.5985250000000  0.4702190000000 1.0
C      1  0.4096350000000  0.5017200000000  0.5383530000000 1.0
C      1  0.5243750000000  0.4923960000000  0.4319440000000 1.0
C      1  0.5385670000000  0.5287980000000  0.6213800000000 1.0
C      1  0.4227780000000  0.4463460000000  0.4247430000000 1.0
C      1  0.5336700000000  0.4844630000000  0.4061050000000 1.0
C      1  0.5414640000000  0.5051730000000  0.3884310000000 1.0
C      1  0.4623750000000  0.3618210000000  0.4797140000000 1.0
C      1  0.4326840000000  0.5132840000000  0.5785760000000 1.0
C      1  0.5542790000000  0.4771260000000  0.5263940000000 1.0
C      1  0.4724180000000  0.4448520000000  0.4068320000000 1.0
C      1  0.5583830000000  0.4850340000000  0.5822260000000 1.0
C      1  0.4947400000000  0.5870300000000  0.4308820000000 1.0
C      1  0.5648310000000  0.5546430000000  0.4825970000000 1.0
C      1  0.4952310000000  0.6030780000000  0.4557350000000 1.0
C      1  0.4414970000000  0.4745920000000  0.4677590000000 1.0
C      1  0.5756840000000  0.4071420000000  0.5090430000000 1.0
C      1  0.4962410000000  0.4748820000000  0.4694210000000 1.0
C      1  0.4749160000000  0.5889150000000  0.5695040000000 1.0
C      1  0.4867860000000  0.5707640000000  0.5887040000000 1.0
C      1  0.4909920000000  0.6179620000000  0.5277890000000 1.0
C      1  0.4537330000000  0.5670280000000  0.4712600000000 1.0
C      1  0.5417580000000  0.4223380000000  0.4428740000000 1.0
C      1  0.5471820000000  0.5941110000000  0.5384550000000 1.0
C      1  0.5649650000000  0.3764590000000  0.4725110000000 1.0
C      1  0.5919940000000  0.4932140000000  0.4791520000000 1.0
C      1  0.5373820000000  0.5544300000000  0.4733300000000 1.0
C      1  0.4556720000000  0.5140730000000  0.4383660000000 1.0
C      1  0.4452970000000  0.4065890000000  0.4282030000000 1.0
C      1  0.4527800000000  0.5261410000000  0.5929930000000 1.0
C      1  0.5158700000000  0.4154430000000  0.5518850000000 1.0
C      1  0.6216480000000  0.5316500000000  0.4840340000000 1.0
C      1  0.4483210000000  0.5320670000000  0.4174170000000 1.0
C      1  0.5122340000000  0.5568640000000  0.5908380000000 1.0
C      1  0.4915890000000  0.5131780000000  0.5046980000000 1.0
C      1  0.5364130000000  0.4422700000000  0.5794020000000 1.0
C      1  0.5263780000000  0.5567730000000  0.5262940000000 1.0
C      1  0.4095550000000  0.4308390000000  0.4464210000000 1.0
C      1  0.5232910000000  0.5342720000000  0.4591470000000 1.0
C      1  0.4841300000000  0.4304320000000  0.5212230000000 1.0
C      1  0.5990430000000  0.5327130000000  0.5482680000000 1.0
C      1  0.5076290000000  0.4791130000000  0.5909930000000 1.0
C      1  0.5833440000000  0.4725240000000  0.5782950000000 1.0
C      1  0.4479930000000  0.5942940000000  0.5609010000000 1.0
C      1  0.5376180000000  0.5144650000000  0.4445810000000 1.0
C      1  0.3890360000000  0.5470120000000  0.4861910000000 1.0
C      1  0.4539250000000  0.5943210000000  0.4803000000000 1.0
C      1  0.4213670000000  0.6013850000000  0.5147370000000 1.0
C      1  0.4811210000000  0.5308590000000  0.4852470000000 1.0
C      1  0.5727110000000  0.4219710000000  0.5342290000000 1.0
C      1  0.4283750000000  0.4379630000000  0.5377740000000 1.0
C      1  0.5201440000000  0.5759790000000  0.4211350000000 1.0
C      1  0.4543840000000  0.4509240000000  0.4770040000000 1.0
C      1  0.4833390000000  0.5120210000000  0.4430630000000 1.0
C      1  0.5445850000000  0.5212560000000  0.5455600000000 1.0
C      1  0.4394570000000  0.4966760000000  0.4529600000000 1.0
C      1  0.4443420000000  0.3810890000000  0.5468880000000 1.0
C      1  0.5833240000000  0.5861420000000  0.4502260000000 1.0
C      1  0.5558560000000  0.4988150000000  0.5083470000000 1.0
C      1  0.4704900000000  0.5763760000000  0.4201290000000 1.0
C      1  0.4597330000000  0.4546410000000  0.5790840000000 1.0
C      1  0.5614760000000  0.5609490000000  0.5756380000000 1.0
C      1  0.5839890000000  0.4654890000000  0.4873280000000 1.0
C      1  0.4567530000000  0.5445390000000  0.4874240000000 1.0
C      1  0.4853590000000  0.6228250000000  0.5015940000000 1.0
C      1  0.5480500000000  0.5680070000000  0.4203410000000 1.0
C      1  0.4398570000000  0.4192070000000  0.5177610000000 1.0
C      1  0.5231480000000  0.3889190000000  0.4898870000000 1.0
C      1  0.5389560000000  0.3707820000000  0.4777660000000 1.0
C      1  0.6057690000000  0.5168020000000  0.5266770000000 1.0
C      1  0.5387790000000  0.4376420000000  0.4960860000000 1.0
C      1  0.5593390000000  0.5262350000000  0.6376210000000 1.0
C      1  0.5357610000000  0.4692710000000  0.5883670000000 1.0
C      1  0.4893910000000  0.4551530000000  0.5820760000000 1.0
C      1  0.5640930000000  0.4245230000000  0.4619100000000 1.0
C      1  0.4935690000000  0.5240620000000  0.5314240000000 1.0
C      1  0.4476660000000  0.4532650000000  0.5526970000000 1.0
C      1  0.4949710000000  0.5310360000000  0.4607040000000 1.0
C      1  0.4415520000000  0.4671830000000  0.5969280000000 1.0
C      1  0.5013310000000  0.5070030000000  0.5982430000000 1.0
C      1  0.3686930000000  0.4471290000000  0.4672880000000 1.0
C      1  0.5396730000000  0.4587880000000  0.3991400000000 1.0
C      1  0.4257030000000  0.5987270000000  0.4866390000000 1.0
C      1  0.4762850000000  0.6107050000000  0.4770800000000 1.0
C      1  0.3887930000000  0.5688000000000  0.4702340000000 1.0
C      1  0.4514700000000  0.5188680000000  0.3924100000000 1.0
C      1  0.5834410000000  0.5065900000000  0.4542620000000 1.0
C      1  0.4745820000000  0.5141030000000  0.6024810000000 1.0
C      1  0.5979230000000  0.4559070000000  0.5106900000000 1.0
C      1  0.5544270000000  0.5285860000000  0.3914910000000 1.0
C      1  0.4123070000000  0.5832390000000  0.4640160000000 1.0
C      1  0.4699230000000  0.4694260000000  0.3926120000000 1.0
C      1  0.5354670000000  0.4975330000000  0.4891130000000 1.0
C      1  0.4533870000000  0.3761730000000  0.5000870000000 1.0
C      1  0.4365450000000  0.5376340000000  0.5064480000000 1.0
C      1  0.4979060000000  0.4334100000000  0.4144480000000 1.0
C      1  0.4376760000000  0.4335150000000  0.4923050000000 1.0
C      1  0.4472090000000  0.5601140000000  0.4251410000000 1.0
C      1  0.4094440000000  0.4432180000000  0.4935540000000 1.0
C      1  0.5524970000000  0.5694450000000  0.5253770000000 1.0
C      1  0.5300060000000  0.4676640000000  0.5328030000000 1.0
C      1  0.4456720000000  0.5351720000000  0.5336360000000 1.0
C      1  0.5180470000000  0.5305050000000  0.6023060000000 1.0
C      1  0.5195140000000  0.5325080000000  0.5393710000000 1.0
END
