TITL C-599893-4344-813 0.169757544760406 125000 -74.7230907050353 0 0 14 (Cs) n - 1
REM
REM in /home/nfs/bkarasulu/CARBON/AIRSS/Generating-Clusters/TERSOFF/Only-C1/FIRE-HFTN
REM
REM
REM
REM
REM
REM ./C.cell (11c1c37f851c82e70ff6c80c92926a4b)
REM AIRSS Version 0.9.1 bugfix July 2018 build 013d7b7c2542+ Fri, 06 Jul 2018 19:26:36 +0100
REM compiler GCC version 9.2.1 20190827 (Red Hat 9.2.1-1)
REM options -cpp -mtune=generic -march=x86-64 -g -O0 -fpre-include=/usr/include/finclude/math-vector-fortran.h
REM seed 834112258 1098959669 1237166962 -155450661 453800715 663932227 1707846084 463856308 -1956746098 1072114871 48005012 -307439218 -1764320753 -693160035 908014151 -773800007 -2078757285 867781800 556527782 575569187 759915669 1891576191 -1732275223 486079564 1445365892 -1256825336 -1622936650 1154670678 -255201507 -2097428743 -25232306 1503139778 -760275690
REM
CELL 1.54180   50.00000   50.00000   50.00000   90.00000   90.00000   90.00000
LATT -1
SFAC C  
C      1  0.5529510000000  0.4387330000000  0.5935730000000 1.0
C      1  0.5548520000000  0.5201840000000  0.4244970000000 1.0
C      1  0.5030780000000  0.5300590000000  0.4363710000000 1.0
C      1  0.4465430000000  0.5085170000000  0.5152300000000 1.0
C      1  0.5057470000000  0.4772920000000  0.5431950000000 1.0
C      1  0.5298670000000  0.5249880000000  0.4301480000000 1.0
C      1  0.4832870000000  0.5127570000000  0.4840410000000 1.0
C      1  0.5373890000000  0.4514450000000  0.5769640000000 1.0
C      1  0.5215650000000  0.4643700000000  0.5600770000000 1.0
C      1  0.4928210000000  0.5212120000000  0.4608320000000 1.0
C      1  0.4216250000000  0.5128860000000  0.5214920000000 1.0
C      1  0.4899330000000  0.4902070000000  0.5263210000000 1.0
C      1  0.4732550000000  0.5038270000000  0.5085300000000 1.0
C      1  0.4870880000000  0.5435230000000  0.4187290000000 1.0
END
