TITL C-599894-471-1411 0.102582856028125 125000 -760.718044282068 0 0 125 (C1) n - 1
REM
REM in /home/nfs/bkarasulu/CARBON/AIRSS/Generating-Clusters/TERSOFF/Only-C1/FIRE-HFTN
REM
REM
REM
REM
REM
REM ./C.cell (11c1c37f851c82e70ff6c80c92926a4b)
REM AIRSS Version 0.9.1 bugfix July 2018 build 013d7b7c2542+ Fri, 06 Jul 2018 19:26:36 +0100
REM compiler GCC version 9.2.1 20190827 (Red Hat 9.2.1-1)
REM options -cpp -mtune=generic -march=x86-64 -g -O0 -fpre-include=/usr/include/finclude/math-vector-fortran.h
REM seed -1679959955 716184275 -749150433 1205154005 1996394768 -1179657516 97656398 -808652936 -127443202 -1592912360 657233619 1227821702 -303991129 -1843910516 3572677 1425772861 -980946515 1291390929 1130816080 -847104186 1784072185 -896909176 -1827808550 -2088148269 -421547780 1568371362 -1436011966 811676877 463219811 321773384 -1982993224 1421907902 190290261
REM
CELL 1.54180   50.00000   50.00000   50.00000   90.00000   90.00000   90.00000
LATT -1
SFAC C  
C      1  0.4947220000000  0.4253630000000  0.4407290000000 1.0
C      1  0.5159020000000  0.5495390000000  0.5086900000000 1.0
C      1  0.5618340000000  0.5003820000000  0.4349040000000 1.0
C      1  0.4134640000000  0.5566530000000  0.4707350000000 1.0
C      1  0.4927020000000  0.5943050000000  0.5339360000000 1.0
C      1  0.4751000000000  0.5362520000000  0.5741950000000 1.0
C      1  0.5395180000000  0.4886860000000  0.6283000000000 1.0
C      1  0.5163290000000  0.5721630000000  0.4296130000000 1.0
C      1  0.4481570000000  0.5074880000000  0.4152500000000 1.0
C      1  0.5260470000000  0.5418760000000  0.4839650000000 1.0
C      1  0.5740030000000  0.4952500000000  0.5693870000000 1.0
C      1  0.4522790000000  0.3985260000000  0.4359370000000 1.0
C      1  0.5693910000000  0.5437160000000  0.4658390000000 1.0
C      1  0.5742920000000  0.5107170000000  0.5454170000000 1.0
C      1  0.4355080000000  0.4631610000000  0.4321220000000 1.0
C      1  0.4342920000000  0.3922080000000  0.4163490000000 1.0
C      1  0.4433640000000  0.5828910000000  0.5300970000000 1.0
C      1  0.5301520000000  0.4651550000000  0.6157510000000 1.0
C      1  0.5997300000000  0.5094360000000  0.5323000000000 1.0
C      1  0.5538700000000  0.4508660000000  0.5747790000000 1.0
C      1  0.5320410000000  0.5018220000000  0.4278190000000 1.0
C      1  0.4241300000000  0.6033540000000  0.6243700000000 1.0
C      1  0.5876110000000  0.4624000000000  0.5361040000000 1.0
C      1  0.5526840000000  0.5942530000000  0.5109440000000 1.0
C      1  0.4652490000000  0.5509680000000  0.4994290000000 1.0
C      1  0.5040500000000  0.4651530000000  0.6032760000000 1.0
C      1  0.5092130000000  0.5144330000000  0.5457840000000 1.0
C      1  0.4193450000000  0.5814540000000  0.4570830000000 1.0
C      1  0.5206720000000  0.4255830000000  0.4870930000000 1.0
C      1  0.4928640000000  0.4833020000000  0.4015330000000 1.0
C      1  0.4834590000000  0.4807120000000  0.6141460000000 1.0
C      1  0.5747660000000  0.4669850000000  0.5625680000000 1.0
C      1  0.4161130000000  0.3990020000000  0.4963750000000 1.0
C      1  0.4579530000000  0.4483020000000  0.4220700000000 1.0
C      1  0.4534590000000  0.5771010000000  0.5888920000000 1.0
C      1  0.5285270000000  0.4359710000000  0.4050550000000 1.0
C      1  0.5711180000000  0.5062810000000  0.5947990000000 1.0
C      1  0.4387160000000  0.5903360000000  0.6064750000000 1.0
C      1  0.5248340000000  0.4632240000000  0.5230490000000 1.0
C      1  0.5576740000000  0.5057060000000  0.6179530000000 1.0
C      1  0.5009850000000  0.6038890000000  0.4812950000000 1.0
C      1  0.4206660000000  0.5126830000000  0.5329400000000 1.0
C      1  0.5082420000000  0.3582720000000  0.4949340000000 1.0
C      1  0.4587850000000  0.3733470000000  0.4835070000000 1.0
C      1  0.4619950000000  0.5322520000000  0.4186280000000 1.0
C      1  0.4022000000000  0.4348080000000  0.4616700000000 1.0
C      1  0.5268890000000  0.4474940000000  0.5647740000000 1.0
C      1  0.4605440000000  0.5384840000000  0.5215890000000 1.0
C      1  0.4945600000000  0.6076440000000  0.5087070000000 1.0
C      1  0.5489250000000  0.3871060000000  0.4834180000000 1.0
C      1  0.4790320000000  0.5311940000000  0.6023740000000 1.0
C      1  0.5150470000000  0.5393190000000  0.5334100000000 1.0
C      1  0.5450960000000  0.4832170000000  0.4880010000000 1.0
C      1  0.4643710000000  0.5955280000000  0.4440700000000 1.0
C      1  0.4134610000000  0.5233220000000  0.5066560000000 1.0
C      1  0.4034620000000  0.4174350000000  0.4818350000000 1.0
C      1  0.5509980000000  0.5908310000000  0.4829330000000 1.0
C      1  0.5733810000000  0.5258920000000  0.4435990000000 1.0
C      1  0.4659870000000  0.4914760000000  0.4565080000000 1.0
C      1  0.4906970000000  0.5499750000000  0.6185830000000 1.0
C      1  0.5265350000000  0.4921840000000  0.5363340000000 1.0
C      1  0.5899800000000  0.4399420000000  0.4735460000000 1.0
C      1  0.4368900000000  0.3823210000000  0.4986200000000 1.0
C      1  0.4726370000000  0.4681720000000  0.4708190000000 1.0
C      1  0.5216220000000  0.4827270000000  0.4711360000000 1.0
C      1  0.5523120000000  0.4413050000000  0.4156870000000 1.0
C      1  0.5074620000000  0.5061420000000  0.4105080000000 1.0
C      1  0.5057930000000  0.5471970000000  0.4363750000000 1.0
C      1  0.5613330000000  0.4491020000000  0.4407490000000 1.0
C      1  0.5143650000000  0.5330610000000  0.4598310000000 1.0
C      1  0.5508960000000  0.4497740000000  0.6032980000000 1.0
C      1  0.5738900000000  0.4756000000000  0.4464690000000 1.0
C      1  0.6029070000000  0.4831870000000  0.5211780000000 1.0
C      1  0.5686420000000  0.5723400000000  0.4689130000000 1.0
C      1  0.4355530000000  0.4806630000000  0.5031560000000 1.0
C      1  0.5127880000000  0.4380860000000  0.5132040000000 1.0
C      1  0.6177210000000  0.5297020000000  0.5307800000000 1.0
C      1  0.4746150000000  0.5134150000000  0.4715200000000 1.0
C      1  0.4795420000000  0.4661360000000  0.5595780000000 1.0
C      1  0.5201100000000  0.5053120000000  0.4542900000000 1.0
C      1  0.5331490000000  0.3666060000000  0.4902620000000 1.0
C      1  0.4828840000000  0.4579310000000  0.4086790000000 1.0
C      1  0.4831600000000  0.4915210000000  0.5163320000000 1.0
C      1  0.5934220000000  0.4689950000000  0.4695610000000 1.0
C      1  0.5518920000000  0.5065110000000  0.5282210000000 1.0
C      1  0.5182840000000  0.5919830000000  0.5458990000000 1.0
C      1  0.4131520000000  0.5511510000000  0.4988340000000 1.0
C      1  0.4818020000000  0.3614220000000  0.4939200000000 1.0
C      1  0.4447220000000  0.5500520000000  0.4336950000000 1.0
C      1  0.5462190000000  0.4146610000000  0.4785990000000 1.0
C      1  0.4684080000000  0.4894640000000  0.5430140000000 1.0
C      1  0.4419990000000  0.5789850000000  0.4386950000000 1.0
C      1  0.4739780000000  0.5055640000000  0.6125250000000 1.0
C      1  0.4530400000000  0.4619950000000  0.4904920000000 1.0
C      1  0.5261610000000  0.5940150000000  0.4416780000000 1.0
C      1  0.5020820000000  0.4574680000000  0.5753470000000 1.0
C      1  0.4581030000000  0.3802980000000  0.4563370000000 1.0
C      1  0.5456370000000  0.5929930000000  0.5383680000000 1.0
C      1  0.5543420000000  0.5078690000000  0.4995880000000 1.0
C      1  0.4211050000000  0.5017520000000  0.4872320000000 1.0
C      1  0.4821400000000  0.5139610000000  0.5571710000000 1.0
C      1  0.5271850000000  0.6001640000000  0.4693670000000 1.0
C      1  0.4226850000000  0.5713710000000  0.5168200000000 1.0
C      1  0.4658060000000  0.4231890000000  0.4358940000000 1.0
C      1  0.4913300000000  0.5304630000000  0.4179320000000 1.0
C      1  0.5492360000000  0.4623750000000  0.5065740000000 1.0
C      1  0.4250290000000  0.5365900000000  0.4526010000000 1.0
C      1  0.5649180000000  0.4303200000000  0.4631720000000 1.0
C      1  0.4719420000000  0.5674460000000  0.4802660000000 1.0
C      1  0.4130350000000  0.4502090000000  0.4428100000000 1.0
C      1  0.4412040000000  0.4915740000000  0.4397590000000 1.0
C      1  0.5003440000000  0.4628050000000  0.4694770000000 1.0
C      1  0.5055260000000  0.4353450000000  0.4651410000000 1.0
C      1  0.5651490000000  0.5924220000000  0.5575350000000 1.0
C      1  0.4796940000000  0.5909270000000  0.4672880000000 1.0
C      1  0.4392940000000  0.4901180000000  0.5318650000000 1.0
C      1  0.6047300000000  0.4814830000000  0.4924420000000 1.0
C      1  0.4673470000000  0.5640200000000  0.5678570000000 1.0
C      1  0.4849240000000  0.5084900000000  0.4958860000000 1.0
C      1  0.5528740000000  0.5319090000000  0.4857040000000 1.0
C      1  0.5032390000000  0.4383190000000  0.4159570000000 1.0
C      1  0.4098070000000  0.6161290000000  0.6420140000000 1.0
C      1  0.5706090000000  0.4486360000000  0.5181480000000 1.0
C      1  0.4235990000000  0.5084100000000  0.4587970000000 1.0
C      1  0.4687620000000  0.5805750000000  0.5437130000000 1.0
END
