TITL C-599892-9790-1076 1804.11557270656 125000 -1162.4918287305 0 0 189 (C1) n - 1
REM
REM in /home/nfs/bkarasulu/CARBON/AIRSS/Generating-Clusters/TERSOFF/Only-C1/FIRE-HFTN
REM
REM
REM
REM
REM
REM ./C.cell (11c1c37f851c82e70ff6c80c92926a4b)
REM AIRSS Version 0.9.1 bugfix July 2018 build 013d7b7c2542+ Fri, 06 Jul 2018 19:26:36 +0100
REM compiler GCC version 9.2.1 20190827 (Red Hat 9.2.1-1)
REM options -cpp -mtune=generic -march=x86-64 -g -O0 -fpre-include=/usr/include/finclude/math-vector-fortran.h
REM seed -1525491328 -254057110 1419154400 1467461085 373837739 -705151556 1147564610 1998033419 728474239 -727032721 841384390 -885631739 1643836825 -677371897 -518261453 1802019823 113749600 1741920028 194127045 2003078144 -1158774009 -101173252 1472215855 1327183615 1949376509 -1411071193 1168178758 -1025019369 -2002339939 -1612322685 -1312394967 737094498 -462320824
REM
CELL 1.54180   50.00000   50.00000   50.00000   90.00000   90.00000   90.00000
LATT -1
SFAC C  
C      1  0.3962480000000  0.5365460000000  0.4458430000000 1.0
C      1  0.4714640000000  0.5352190000000  0.3885110000000 1.0
C      1  0.5453070000000  0.4166000000000  0.5151750000000 1.0
C      1  0.4067580000000  0.5454460000000  0.5746310000000 1.0
C      1  0.5107500000000  0.5203140000000  0.5447470000000 1.0
C      1  0.5560070000000  0.5297450000000  0.4307280000000 1.0
C      1  0.4782850000000  0.5002040000000  0.5814600000000 1.0
C      1  0.4354340000000  0.5474320000000  0.5073510000000 1.0
C      1  0.4949270000000  0.5677480000000  0.4864350000000 1.0
C      1  0.4371030000000  0.4938150000000  0.4698720000000 1.0
C      1  0.5835010000000  0.4828910000000  0.5192290000000 1.0
C      1  0.4518730000000  0.4062580000000  0.4684050000000 1.0
C      1  0.4952510000000  0.4442380000000  0.5639960000000 1.0
C      1  0.4728330000000  0.4669610000000  0.4311700000000 1.0
C      1  0.5429030000000  0.6207140000000  0.5084020000000 1.0
C      1  0.5486460000000  0.3904620000000  0.4725200000000 1.0
C      1  0.3970660000000  0.4207110000000  0.5531590000000 1.0
C      1  0.4575420000000  0.4540790000000  0.4108810000000 1.0
C      1  0.4895350000000  0.4064520000000  0.4133770000000 1.0
C      1  0.3808350000000  0.4107710000000  0.5736450000000 1.0
C      1  0.3890750000000  0.5337940000000  0.5909710000000 1.0
C      1  0.5062380000000  0.5398830000000  0.4507790000000 1.0
C      1  0.5414490000000  0.5703780000000  0.5677670000000 1.0
C      1  0.5108470000000  0.3981350000000  0.4311280000000 1.0
C      1  0.5571160000000  0.5439800000000  0.4569050000000 1.0
C      1  0.5143600000000  0.4951670000000  0.5323170000000 1.0
C      1  0.4950670000000  0.5522390000000  0.3904280000000 1.0
C      1  0.4625290000000  0.4799410000000  0.5676360000000 1.0
C      1  0.4024150000000  0.5825330000000  0.4821250000000 1.0
C      1  0.5117160000000  0.3916740000000  0.5515120000000 1.0
C      1  0.5640800000000  0.4634650000000  0.5708500000000 1.0
C      1  0.5189830000000  0.4749610000000  0.4460470000000 1.0
C      1  0.5057180000000  0.4433810000000  0.5113910000000 1.0
C      1  0.5158790000000  0.6175250000000  0.4980960000000 1.0
C      1  0.4696260000000  0.3938140000000  0.5285790000000 1.0
C      1  0.5215400000000  0.4868750000000  0.3675120000000 1.0
C      1  0.4222900000000  0.4351370000000  0.4409000000000 1.0
C      1  0.5412260000000  0.4607350000000  0.5537070000000 1.0
C      1  0.3565940000000  0.4417580000000  0.5511500000000 1.0
C      1  0.5914490000000  0.4574840000000  0.5315040000000 1.0
C      1  0.5114850000000  0.4617710000000  0.3652620000000 1.0
C      1  0.3561450000000  0.4236000000000  0.5724250000000 1.0
C      1  0.4593500000000  0.5560120000000  0.5230880000000 1.0
C      1  0.4621400000000  0.5911280000000  0.5258120000000 1.0
C      1  0.3906710000000  0.4555070000000  0.5159770000000 1.0
C      1  0.4141260000000  0.4832460000000  0.5646900000000 1.0
C      1  0.4694870000000  0.5908700000000  0.5617740000000 1.0
C      1  0.4540970000000  0.5948350000000  0.4900370000000 1.0
C      1  0.4553490000000  0.4437220000000  0.5318970000000 1.0
C      1  0.4874120000000  0.4636100000000  0.5079270000000 1.0
C      1  0.5526800000000  0.4999600000000  0.4827290000000 1.0
C      1  0.5140580000000  0.4505720000000  0.4605460000000 1.0
C      1  0.5614590000000  0.5013670000000  0.4344720000000 1.0
C      1  0.5902000000000  0.5320920000000  0.5348490000000 1.0
C      1  0.4259220000000  0.5402060000000  0.4508160000000 1.0
C      1  0.5908210000000  0.4909460000000  0.4283800000000 1.0
C      1  0.3824430000000  0.5078910000000  0.5937730000000 1.0
C      1  0.6273470000000  0.4623860000000  0.4876740000000 1.0
C      1  0.3832890000000  0.4695410000000  0.4275620000000 1.0
C      1  0.5382360000000  0.3759430000000  0.4964010000000 1.0
C      1  0.3915500000000  0.5040030000000  0.4977890000000 1.0
C      1  0.5275580000000  0.5295530000000  0.6252180000000 1.0
C      1  0.4850470000000  0.4897040000000  0.6286710000000 1.0
C      1  0.4682440000000  0.4587860000000  0.4577510000000 1.0
C      1  0.4458450000000  0.4997000000000  0.5289870000000 1.0
C      1  0.6125230000000  0.4572090000000  0.5757830000000 1.0
C      1  0.5121520000000  0.5615070000000  0.5087960000000 1.0
C      1  0.5156130000000  0.5071950000000  0.3860970000000 1.0
C      1  0.5218600000000  0.3949260000000  0.4573020000000 1.0
C      1  0.4236780000000  0.5418850000000  0.5528970000000 1.0
C      1  0.4177450000000  0.5034420000000  0.4874960000000 1.0
C      1  0.4921570000000  0.4892550000000  0.5160680000000 1.0
C      1  0.5820860000000  0.4105150000000  0.5411910000000 1.0
C      1  0.6082710000000  0.5467610000000  0.4577780000000 1.0
C      1  0.5901510000000  0.4592350000000  0.5602720000000 1.0
C      1  0.4973400000000  0.4195390000000  0.3892500000000 1.0
C      1  0.4483840000000  0.5516190000000  0.3892520000000 1.0
C      1  0.4369670000000  0.5627640000000  0.4337330000000 1.0
C      1  0.6117870000000  0.4881360000000  0.4513370000000 1.0
C      1  0.5172780000000  0.5766950000000  0.5538670000000 1.0
C      1  0.3729600000000  0.4944150000000  0.4282730000000 1.0
C      1  0.4149810000000  0.5377110000000  0.5260220000000 1.0
C      1  0.5762510000000  0.5807830000000  0.5074680000000 1.0
C      1  0.4896980000000  0.6040840000000  0.4563110000000 1.0
C      1  0.4986430000000  0.4794530000000  0.4262560000000 1.0
C      1  0.4517230000000  0.5703620000000  0.4109600000000 1.0
C      1  0.5858390000000  0.4558410000000  0.4679110000000 1.0
C      1  0.4970470000000  0.4983090000000  0.4057770000000 1.0
C      1  0.5682500000000  0.5202760000000  0.6030850000000 1.0
C      1  0.4702340000000  0.4546110000000  0.5560370000000 1.0
C      1  0.5294870000000  0.4338050000000  0.5012930000000 1.0
C      1  0.5151490000000  0.5705520000000  0.6105170000000 1.0
C      1  0.4094210000000  0.4359860000000  0.4873950000000 1.0
C      1  0.4272160000000  0.5945980000000  0.4811450000000 1.0
C      1  0.3997720000000  0.4542310000000  0.4442950000000 1.0
C      1  0.4270910000000  0.5958410000000  0.5321270000000 1.0
C      1  0.4915080000000  0.5211570000000  0.5663660000000 1.0
C      1  0.5779690000000  0.5591630000000  0.5296190000000 1.0
C      1  0.5939450000000  0.4204260000000  0.4935080000000 1.0
C      1  0.4186880000000  0.4955830000000  0.3951670000000 1.0
C      1  0.6074100000000  0.4434460000000  0.4812410000000 1.0
C      1  0.4737260000000  0.5144170000000  0.4078190000000 1.0
C      1  0.5755400000000  0.4053020000000  0.4713530000000 1.0
C      1  0.4280820000000  0.4233440000000  0.4686770000000 1.0
C      1  0.4609610000000  0.4068030000000  0.4215550000000 1.0
C      1  0.4536770000000  0.4153300000000  0.5307600000000 1.0
C      1  0.5394770000000  0.5645950000000  0.5953030000000 1.0
C      1  0.6114510000000  0.5375520000000  0.4309570000000 1.0
C      1  0.5100100000000  0.3819640000000  0.5027440000000 1.0
C      1  0.6031080000000  0.5162880000000  0.4156880000000 1.0
C      1  0.3935750000000  0.4868830000000  0.5813170000000 1.0
C      1  0.3848470000000  0.4749880000000  0.4961120000000 1.0
C      1  0.4535070000000  0.3908000000000  0.4440400000000 1.0
C      1  0.6388150000000  0.5182690000000  0.6194210000000 1.0
C      1  0.4391530000000  0.4893420000000  0.5542290000000 1.0
C      1  0.4756570000000  0.5081530000000  0.6094200000000 1.0
C      1  0.5202170000000  0.5356850000000  0.3904730000000 1.0
C      1  0.5375190000000  0.4796110000000  0.5314740000000 1.0
C      1  0.4517610000000  0.5476020000000  0.5517030000000 1.0
C      1  0.5678570000000  0.5256480000000  0.4768680000000 1.0
C      1  0.6166640000000  0.5214950000000  0.6052510000000 1.0
C      1  0.5363710000000  0.5407950000000  0.4134020000000 1.0
C      1  0.5494750000000  0.5410490000000  0.6083310000000 1.0
C      1  0.4379930000000  0.5114100000000  0.4441970000000 1.0
C      1  0.6219580000000  0.4887390000000  0.4781140000000 1.0
C      1  0.4518780000000  0.4699920000000  0.4784310000000 1.0
C      1  0.5605890000000  0.4723330000000  0.5971190000000 1.0
C      1  0.4244120000000  0.4994470000000  0.4203740000000 1.0
C      1  0.5227360000000  0.4391570000000  0.5606360000000 1.0
C      1  0.5862030000000  0.4351100000000  0.4256790000000 1.0
C      1  0.5429210000000  0.4902470000000  0.4548690000000 1.0
C      1  0.4035320000000  0.5855210000000  0.5274700000000 1.0
C      1  0.5356990000000  0.5918480000000  0.4565830000000 1.0
C      1  0.4915270000000  0.5721450000000  0.5631120000000 1.0
C      1  0.4654370000000  0.5173970000000  0.4349540000000 1.0
C      1  0.4763620000000  0.5465270000000  0.5692070000000 1.0
C      1  0.4794090000000  0.4141990000000  0.4747950000000 1.0
C      1  0.5601310000000  0.4508050000000  0.4675400000000 1.0
C      1  0.5887260000000  0.4615100000000  0.4187160000000 1.0
C      1  0.4879210000000  0.4400680000000  0.4653720000000 1.0
C      1  0.5158700000000  0.6101620000000  0.4700480000000 1.0
C      1  0.4671390000000  0.4551320000000  0.3843720000000 1.0
C      1  0.5561950000000  0.4952710000000  0.6121110000000 1.0
C      1  0.5039840000000  0.5464840000000  0.6231650000000 1.0
C      1  0.5926410000000  0.4290370000000  0.5220220000000 1.0
C      1  0.4841800000000  0.5256730000000  0.4537350000000 1.0
C      1  0.5561760000000  0.4859840000000  0.5098190000000 1.0
C      1  0.5542450000000  0.4088640000000  0.5407670000000 1.0
C      1  0.5980310000000  0.5081210000000  0.5184230000000 1.0
C      1  0.5004760000000  0.3951100000000  0.4784540000000 1.0
C      1  0.3827070000000  0.4410710000000  0.5376040000000 1.0
C      1  0.4700050000000  0.5072580000000  0.5163780000000 1.0
C      1  0.5652450000000  0.6062920000000  0.5183430000000 1.0
C      1  0.5794910000000  0.5798180000000  0.4794080000000 1.0
C      1  0.5657110000000  0.5744890000000  0.5534080000000 1.0
C      1  0.6111670000000  0.5107390000000  0.4931720000000 1.0
C      1  0.5967940000000  0.5283290000000  0.4767000000000 1.0
C      1  0.4337260000000  0.5455110000000  0.4794880000000 1.0
C      1  0.6039220000000  0.5735180000000  0.4661850000000 1.0
C      1  0.4946490000000  0.5932990000000  0.4295750000000 1.0
C      1  0.5108750000000  0.4852820000000  0.6352790000000 1.0
C      1  0.5562520000000  0.5727490000000  0.4642120000000 1.0
C      1  0.3776980000000  0.5194680000000  0.4366780000000 1.0
C      1  0.4779060000000  0.5373020000000  0.6149610000000 1.0
C      1  0.5355810000000  0.4424910000000  0.4758390000000 1.0
C      1  0.4922430000000  0.4442830000000  0.3764210000000 1.0
C      1  0.4642420000000  0.5556220000000  0.5965780000000 1.0
C      1  0.5141220000000  0.5831050000000  0.5267320000000 1.0
C      1  0.4779240000000  0.5340980000000  0.5157250000000 1.0
C      1  0.5203750000000  0.5548270000000  0.4320830000000 1.0
C      1  0.4558190000000  0.5833870000000  0.5877500000000 1.0
C      1  0.4800360000000  0.5785290000000  0.4103390000000 1.0
C      1  0.4967900000000  0.3858260000000  0.5279040000000 1.0
C      1  0.3908080000000  0.5689910000000  0.5052900000000 1.0
C      1  0.5692780000000  0.6025990000000  0.5464850000000 1.0
C      1  0.5931130000000  0.5231250000000  0.5903280000000 1.0
C      1  0.4435760000000  0.4310190000000  0.4205450000000 1.0
C      1  0.4968660000000  0.6042030000000  0.5176380000000 1.0
C      1  0.4591270000000  0.4580750000000  0.5056790000000 1.0
C      1  0.5823820000000  0.4146660000000  0.4436140000000 1.0
C      1  0.5943960000000  0.5275070000000  0.5627270000000 1.0
C      1  0.3908280000000  0.5386860000000  0.5106480000000 1.0
C      1  0.6605850000000  0.5148460000000  0.6333490000000 1.0
C      1  0.4765140000000  0.5871920000000  0.4754540000000 1.0
C      1  0.5052870000000  0.5381450000000  0.5223710000000 1.0
C      1  0.5312690000000  0.4115360000000  0.5573260000000 1.0
C      1  0.3945030000000  0.4585040000000  0.4724630000000 1.0
C      1  0.5325890000000  0.5012320000000  0.6277440000000 1.0
C      1  0.5210820000000  0.5824380000000  0.4333580000000 1.0
END
