TITL C-599893-4344-365 36.5530628832715 125000 -1020.6541987092 0 0 168 (C1) n - 1
REM
REM in /home/nfs/bkarasulu/CARBON/AIRSS/Generating-Clusters/TERSOFF/Only-C1/FIRE-HFTN
REM
REM
REM
REM
REM
REM ./C.cell (11c1c37f851c82e70ff6c80c92926a4b)
REM AIRSS Version 0.9.1 bugfix July 2018 build 013d7b7c2542+ Fri, 06 Jul 2018 19:26:36 +0100
REM compiler GCC version 9.2.1 20190827 (Red Hat 9.2.1-1)
REM options -cpp -mtune=generic -march=x86-64 -g -O0 -fpre-include=/usr/include/finclude/math-vector-fortran.h
REM seed -128745451 614708484 -1946846520 1671447236 -1055559024 1267781162 976510692 -2076530592 -693999061 1390795473 -148033051 1253132122 -2015607673 -1592904221 1661735149 -77381329 382407463 -1998760713 -1104981190 -1983769142 161909213 -1444087654 1740473270 983076735 422130414 -915275828 704056871 1947693235 -1959095259 981774319 -932810082 -563500484 -1341739985
REM
CELL 1.54180   50.00000   50.00000   50.00000   90.00000   90.00000   90.00000
LATT -1
SFAC C  
C      1  0.5891540000000  0.4339280000000  0.5024590000000 1.0
C      1  0.4458340000000  0.4492720000000  0.4596090000000 1.0
C      1  0.5356450000000  0.4211210000000  0.5824860000000 1.0
C      1  0.4326680000000  0.4567050000000  0.5821730000000 1.0
C      1  0.4409550000000  0.4776960000000  0.4649960000000 1.0
C      1  0.5788650000000  0.3903480000000  0.5268440000000 1.0
C      1  0.5033630000000  0.5284380000000  0.5558260000000 1.0
C      1  0.5424430000000  0.4313910000000  0.5085250000000 1.0
C      1  0.4713980000000  0.5216250000000  0.3777770000000 1.0
C      1  0.4468660000000  0.5726080000000  0.4536560000000 1.0
C      1  0.5106120000000  0.4087600000000  0.4262430000000 1.0
C      1  0.5332740000000  0.4034560000000  0.4437260000000 1.0
C      1  0.3808320000000  0.5201030000000  0.4194850000000 1.0
C      1  0.4744630000000  0.4897370000000  0.4369150000000 1.0
C      1  0.4518510000000  0.4365220000000  0.5800780000000 1.0
C      1  0.4815150000000  0.5718790000000  0.5280010000000 1.0
C      1  0.4770710000000  0.5372910000000  0.5910030000000 1.0
C      1  0.5469730000000  0.5157170000000  0.5315570000000 1.0
C      1  0.5263940000000  0.4026650000000  0.4710740000000 1.0
C      1  0.4058950000000  0.5167020000000  0.5695460000000 1.0
C      1  0.5164340000000  0.6045570000000  0.4472130000000 1.0
C      1  0.5175400000000  0.4454680000000  0.5775480000000 1.0
C      1  0.6088420000000  0.5782930000000  0.4819400000000 1.0
C      1  0.5664170000000  0.5847730000000  0.4383390000000 1.0
C      1  0.5425750000000  0.5974780000000  0.4428390000000 1.0
C      1  0.5383170000000  0.5395230000000  0.5186970000000 1.0
C      1  0.4903100000000  0.5097180000000  0.5371150000000 1.0
C      1  0.6077760000000  0.4981030000000  0.4622600000000 1.0
C      1  0.4896340000000  0.4289500000000  0.4307270000000 1.0
C      1  0.4430130000000  0.4150550000000  0.5627070000000 1.0
C      1  0.5553550000000  0.4981870000000  0.4229850000000 1.0
C      1  0.5648170000000  0.4483040000000  0.5087340000000 1.0
C      1  0.5055320000000  0.5758220000000  0.5669000000000 1.0
C      1  0.5881960000000  0.5680780000000  0.4413270000000 1.0
C      1  0.5903710000000  0.4168450000000  0.5278800000000 1.0
C      1  0.4434060000000  0.5123630000000  0.5365120000000 1.0
C      1  0.5213330000000  0.6048390000000  0.5273010000000 1.0
C      1  0.5543760000000  0.5335530000000  0.4541040000000 1.0
C      1  0.5640710000000  0.4814070000000  0.6061470000000 1.0
C      1  0.5819950000000  0.4278320000000  0.5551560000000 1.0
C      1  0.5240440000000  0.6413710000000  0.4942750000000 1.0
C      1  0.4805110000000  0.4346560000000  0.4967970000000 1.0
C      1  0.5475970000000  0.5053760000000  0.6096500000000 1.0
C      1  0.4663520000000  0.3977030000000  0.5582360000000 1.0
C      1  0.4937460000000  0.4577530000000  0.4873100000000 1.0
C      1  0.5620290000000  0.5497780000000  0.4750880000000 1.0
C      1  0.4317700000000  0.5494120000000  0.4514190000000 1.0
C      1  0.5504940000000  0.6027800000000  0.5316410000000 1.0
C      1  0.5373630000000  0.6601230000000  0.4820180000000 1.0
C      1  0.5189690000000  0.5406880000000  0.4968450000000 1.0
C      1  0.4401630000000  0.5871210000000  0.5456680000000 1.0
C      1  0.5859330000000  0.5882990000000  0.4967730000000 1.0
C      1  0.5569250000000  0.5326150000000  0.6070640000000 1.0
C      1  0.4953120000000  0.5503910000000  0.5730990000000 1.0
C      1  0.4335060000000  0.4847600000000  0.5372030000000 1.0
C      1  0.5592640000000  0.5546620000000  0.5912380000000 1.0
C      1  0.4967240000000  0.5332460000000  0.3858490000000 1.0
C      1  0.5180520000000  0.4502930000000  0.4741560000000 1.0
C      1  0.5198380000000  0.4740380000000  0.5388080000000 1.0
C      1  0.5192090000000  0.4703370000000  0.5943020000000 1.0
C      1  0.4290610000000  0.5180290000000  0.5873050000000 1.0
C      1  0.4618800000000  0.6082060000000  0.4859640000000 1.0
C      1  0.4656970000000  0.5946390000000  0.4612400000000 1.0
C      1  0.5579720000000  0.5772160000000  0.5443550000000 1.0
C      1  0.5568070000000  0.4540000000000  0.4408780000000 1.0
C      1  0.4810350000000  0.4828630000000  0.4899450000000 1.0
C      1  0.4212950000000  0.5799460000000  0.4964470000000 1.0
C      1  0.4460120000000  0.5260530000000  0.3891270000000 1.0
C      1  0.5360410000000  0.5175390000000  0.4128740000000 1.0
C      1  0.6058170000000  0.5560360000000  0.4618310000000 1.0
C      1  0.4891790000000  0.5039460000000  0.5085460000000 1.0
C      1  0.5911400000000  0.4881100000000  0.5240310000000 1.0
C      1  0.5724200000000  0.6090160000000  0.5123750000000 1.0
C      1  0.4948500000000  0.4849650000000  0.5505320000000 1.0
C      1  0.5301650000000  0.4251860000000  0.5323860000000 1.0
C      1  0.5037310000000  0.5856050000000  0.5401830000000 1.0
C      1  0.3917230000000  0.5094440000000  0.5153980000000 1.0
C      1  0.4638350000000  0.6273160000000  0.5281310000000 1.0
C      1  0.5068950000000  0.4620910000000  0.3945170000000 1.0
C      1  0.5617160000000  0.4089680000000  0.4414030000000 1.0
C      1  0.4883040000000  0.4510600000000  0.4126490000000 1.0
C      1  0.4284090000000  0.5541130000000  0.4977510000000 1.0
C      1  0.4399140000000  0.4626060000000  0.4091870000000 1.0
C      1  0.4083270000000  0.5177200000000  0.4238420000000 1.0
C      1  0.6129730000000  0.5244380000000  0.4996710000000 1.0
C      1  0.5081790000000  0.3792220000000  0.5203510000000 1.0
C      1  0.4262740000000  0.4243670000000  0.5402360000000 1.0
C      1  0.4080310000000  0.4915910000000  0.4983850000000 1.0
C      1  0.4368740000000  0.6028720000000  0.5007830000000 1.0
C      1  0.5168620000000  0.5131640000000  0.3928390000000 1.0
C      1  0.5113010000000  0.5547290000000  0.4733160000000 1.0
C      1  0.5373980000000  0.4639810000000  0.4592840000000 1.0
C      1  0.6080920000000  0.5106480000000  0.5236630000000 1.0
C      1  0.4665830000000  0.4938080000000  0.4654270000000 1.0
C      1  0.4820960000000  0.4421850000000  0.5441580000000 1.0
C      1  0.5705570000000  0.5683810000000  0.5687070000000 1.0
C      1  0.6096290000000  0.5268850000000  0.4711050000000 1.0
C      1  0.4667070000000  0.4688380000000  0.4185760000000 1.0
C      1  0.4758120000000  0.4269610000000  0.5228700000000 1.0
C      1  0.3398540000000  0.5557830000000  0.4752250000000 1.0
C      1  0.3951930000000  0.5137010000000  0.5442550000000 1.0
C      1  0.5584600000000  0.5057140000000  0.4514460000000 1.0
C      1  0.4217090000000  0.4700640000000  0.5144500000000 1.0
C      1  0.4794690000000  0.4748370000000  0.5744700000000 1.0
C      1  0.5103860000000  0.5486920000000  0.4450470000000 1.0
C      1  0.5986760000000  0.5652950000000  0.5671790000000 1.0
C      1  0.5270170000000  0.3950290000000  0.5402330000000 1.0
C      1  0.4895840000000  0.4049770000000  0.5732210000000 1.0
C      1  0.4188130000000  0.5221570000000  0.4506340000000 1.0
C      1  0.5243400000000  0.5157880000000  0.5713250000000 1.0
C      1  0.4648490000000  0.3908710000000  0.4873230000000 1.0
C      1  0.5447130000000  0.4890130000000  0.4695040000000 1.0
C      1  0.4407910000000  0.6100230000000  0.5289880000000 1.0
C      1  0.5415540000000  0.4884730000000  0.5209250000000 1.0
C      1  0.5088370000000  0.6224580000000  0.5080820000000 1.0
C      1  0.6044380000000  0.4707920000000  0.4675110000000 1.0
C      1  0.6156450000000  0.5455890000000  0.5610530000000 1.0
C      1  0.5232340000000  0.4479380000000  0.5480910000000 1.0
C      1  0.5565260000000  0.5597510000000  0.5216340000000 1.0
C      1  0.5284560000000  0.4263520000000  0.4854030000000 1.0
C      1  0.4907570000000  0.5559810000000  0.4264380000000 1.0
C      1  0.4189070000000  0.4970280000000  0.4707900000000 1.0
C      1  0.4805220000000  0.6220210000000  0.5046490000000 1.0
C      1  0.4219650000000  0.4331290000000  0.4645840000000 1.0
C      1  0.4217660000000  0.4391740000000  0.5149220000000 1.0
C      1  0.4882780000000  0.5990800000000  0.4431360000000 1.0
C      1  0.5744420000000  0.4333070000000  0.4511230000000 1.0
C      1  0.4563820000000  0.5642200000000  0.5397400000000 1.0
C      1  0.4113620000000  0.4293710000000  0.4384580000000 1.0
C      1  0.3551550000000  0.5214060000000  0.4152330000000 1.0
C      1  0.4808470000000  0.3821990000000  0.5107150000000 1.0
C      1  0.4234870000000  0.4405530000000  0.4167180000000 1.0
C      1  0.4705800000000  0.3999540000000  0.5303770000000 1.0
C      1  0.4617950000000  0.5218840000000  0.4740840000000 1.0
C      1  0.4693010000000  0.4305770000000  0.4522080000000 1.0
C      1  0.4816110000000  0.4434560000000  0.5738690000000 1.0
C      1  0.4268900000000  0.4734740000000  0.5621610000000 1.0
C      1  0.4424880000000  0.4971530000000  0.6018190000000 1.0
C      1  0.6173520000000  0.5229650000000  0.5470390000000 1.0
C      1  0.4502350000000  0.5356500000000  0.5784440000000 1.0
C      1  0.4700010000000  0.4905790000000  0.5964910000000 1.0
C      1  0.4803990000000  0.4950650000000  0.3696250000000 1.0
C      1  0.5685280000000  0.5655640000000  0.4971650000000 1.0
C      1  0.4497840000000  0.5380200000000  0.5494020000000 1.0
C      1  0.5056790000000  0.4876290000000  0.3825860000000 1.0
C      1  0.4257640000000  0.5110400000000  0.4021070000000 1.0
C      1  0.5339000000000  0.5378930000000  0.4341010000000 1.0
C      1  0.5671920000000  0.4739510000000  0.5193640000000 1.0
C      1  0.3711780000000  0.5238160000000  0.5027490000000 1.0
C      1  0.4480900000000  0.5371350000000  0.4913190000000 1.0
C      1  0.4266920000000  0.4835740000000  0.3961700000000 1.0
C      1  0.5492050000000  0.5159300000000  0.5591100000000 1.0
C      1  0.5326880000000  0.4956890000000  0.4934440000000 1.0
C      1  0.5180940000000  0.3999110000000  0.5699370000000 1.0
C      1  0.5608780000000  0.4709910000000  0.4186630000000 1.0
C      1  0.4747740000000  0.4155580000000  0.4761870000000 1.0
C      1  0.5934300000000  0.4429500000000  0.4728990000000 1.0
C      1  0.4223080000000  0.4216150000000  0.4907280000000 1.0
C      1  0.5690210000000  0.4570800000000  0.5944880000000 1.0
C      1  0.5545680000000  0.3827070000000  0.5363280000000 1.0
C      1  0.5640010000000  0.4328200000000  0.5785480000000 1.0
C      1  0.5115380000000  0.5139290000000  0.4948480000000 1.0
C      1  0.4846040000000  0.5816510000000  0.4208680000000 1.0
C      1  0.4360280000000  0.3957020000000  0.4915140000000 1.0
C      1  0.5191200000000  0.5016100000000  0.5975310000000 1.0
C      1  0.5082540000000  0.3931000000000  0.4036370000000 1.0
C      1  0.4889780000000  0.5118750000000  0.6026180000000 1.0
C      1  0.3548620000000  0.5394770000000  0.4889520000000 1.0
END
