TITL C-599897-7526-790 1.03430085949841 125000 -241.824561216621 0 0 43 (C1) n - 1
REM
REM in /home/nfs/bkarasulu/CARBON/AIRSS/Generating-Clusters/TERSOFF/Only-C1/FIRE-HFTN
REM
REM
REM
REM
REM
REM ./C.cell (11c1c37f851c82e70ff6c80c92926a4b)
REM AIRSS Version 0.9.1 bugfix July 2018 build 013d7b7c2542+ Fri, 06 Jul 2018 19:26:36 +0100
REM compiler GCC version 9.2.1 20190827 (Red Hat 9.2.1-1)
REM options -cpp -mtune=generic -march=x86-64 -g -O0 -fpre-include=/usr/include/finclude/math-vector-fortran.h
REM seed -1318681636 -1368595592 1730092082 -1539126741 1562202410 -283727822 -135426404 -1267476247 1221877020 -854794931 -643428823 276959760 1703261486 -1819028263 -1354027542 187185969 -1506811259 -2017266244 -1485499948 651676509 964337006 980190256 -848179566 1406762710 -781036203 13624542 797804472 -1646874716 1647316089 -1206086596 -522473869 -831835506 -931601854
REM
CELL 1.54180   50.00000   50.00000   50.00000   90.00000   90.00000   90.00000
LATT -1
SFAC C  
C      1  0.5308680000000  0.4468840000000  0.4747680000000 1.0
C      1  0.5952720000000  0.5352040000000  0.4925960000000 1.0
C      1  0.5180630000000  0.5300540000000  0.5788370000000 1.0
C      1  0.5332110000000  0.5520380000000  0.5847720000000 1.0
C      1  0.5584610000000  0.4511010000000  0.4742920000000 1.0
C      1  0.6219650000000  0.5015280000000  0.4694390000000 1.0
C      1  0.4913530000000  0.5329190000000  0.5710610000000 1.0
C      1  0.5050300000000  0.5448950000000  0.5037930000000 1.0
C      1  0.5291360000000  0.5043350000000  0.5801950000000 1.0
C      1  0.5511620000000  0.4425450000000  0.6152670000000 1.0
C      1  0.4920360000000  0.4785440000000  0.4621350000000 1.0
C      1  0.4150390000000  0.5124520000000  0.5047390000000 1.0
C      1  0.5476430000000  0.4632100000000  0.5692980000000 1.0
C      1  0.4462420000000  0.5281880000000  0.5442410000000 1.0
C      1  0.4894960000000  0.5017110000000  0.4781690000000 1.0
C      1  0.5395990000000  0.4778300000000  0.4429290000000 1.0
C      1  0.5388310000000  0.5311960000000  0.4646420000000 1.0
C      1  0.4921840000000  0.5244940000000  0.4919950000000 1.0
C      1  0.5540160000000  0.5608640000000  0.5111740000000 1.0
C      1  0.4007040000000  0.4865550000000  0.4593830000000 1.0
C      1  0.5650050000000  0.4747260000000  0.4582570000000 1.0
C      1  0.5731860000000  0.4985850000000  0.4711320000000 1.0
C      1  0.4286260000000  0.5216260000000  0.5255600000000 1.0
C      1  0.3682910000000  0.5063670000000  0.4290880000000 1.0
C      1  0.5447300000000  0.4624480000000  0.5981310000000 1.0
C      1  0.4674690000000  0.5320170000000  0.5596400000000 1.0
C      1  0.4691780000000  0.4678080000000  0.4501700000000 1.0
C      1  0.5387720000000  0.4951760000000  0.5311140000000 1.0
C      1  0.4449250000000  0.4598520000000  0.4387810000000 1.0
C      1  0.4443310000000  0.4403420000000  0.4196320000000 1.0
C      1  0.4212910000000  0.4721310000000  0.4472470000000 1.0
C      1  0.5503310000000  0.5126960000000  0.4812320000000 1.0
C      1  0.5169940000000  0.4661580000000  0.4577180000000 1.0
C      1  0.5415000000000  0.5047320000000  0.5065640000000 1.0
C      1  0.5787130000000  0.5526380000000  0.5045970000000 1.0
C      1  0.3627880000000  0.5249160000000  0.4116290000000 1.0
C      1  0.5273050000000  0.5581250000000  0.5108670000000 1.0
C      1  0.5331910000000  0.4883870000000  0.6039640000000 1.0
C      1  0.3563670000000  0.4677340000000  0.4550950000000 1.0
C      1  0.5978000000000  0.5113170000000  0.4773610000000 1.0
C      1  0.5385090000000  0.4881090000000  0.5578020000000 1.0
C      1  0.4056540000000  0.5008890000000  0.4828330000000 1.0
C      1  0.3747350000000  0.4866750000000  0.4478590000000 1.0
END
