TITL C-599897-7526-26 1.13675821346261 125000 -962.683380715239 0 0 155 (C1) n - 1
REM
REM in /home/nfs/bkarasulu/CARBON/AIRSS/Generating-Clusters/TERSOFF/Only-C1/FIRE-HFTN
REM
REM
REM
REM
REM
REM ./C.cell (11c1c37f851c82e70ff6c80c92926a4b)
REM AIRSS Version 0.9.1 bugfix July 2018 build 013d7b7c2542+ Fri, 06 Jul 2018 19:26:36 +0100
REM compiler GCC version 9.2.1 20190827 (Red Hat 9.2.1-1)
REM options -cpp -mtune=generic -march=x86-64 -g -O0 -fpre-include=/usr/include/finclude/math-vector-fortran.h
REM seed -1513817192 -74942160 -322723244 1878198656 -643106308 -2085325822 1975768792 1091211858 -2089534803 -820734616 2072142480 524353683 12853097 -1981656761 -815774879 -1076798626 -1287838869 1422197562 -2049775703 -122830223 702495063 -762739782 -905206113 -1879553375 270445585 -429726379 658854992 1868562574 54045466 1343273492 686437064 346876203 -1990466280
REM
CELL 1.54180   50.00000   50.00000   50.00000   90.00000   90.00000   90.00000
LATT -1
SFAC C  
C      1  0.4704520000000  0.5089440000000  0.5880590000000 1.0
C      1  0.4017560000000  0.4622690000000  0.5354480000000 1.0
C      1  0.4799180000000  0.4673070000000  0.5100220000000 1.0
C      1  0.5213990000000  0.4542730000000  0.5226640000000 1.0
C      1  0.3990210000000  0.4906490000000  0.5294220000000 1.0
C      1  0.5528570000000  0.5258660000000  0.4102710000000 1.0
C      1  0.4917170000000  0.4890690000000  0.4048880000000 1.0
C      1  0.4487990000000  0.5208970000000  0.4650370000000 1.0
C      1  0.4835980000000  0.4346230000000  0.4562360000000 1.0
C      1  0.6026600000000  0.4506070000000  0.4749310000000 1.0
C      1  0.4822540000000  0.5608380000000  0.5547720000000 1.0
C      1  0.5899860000000  0.5440750000000  0.4621150000000 1.0
C      1  0.5952750000000  0.4924100000000  0.4397400000000 1.0
C      1  0.4753990000000  0.5188200000000  0.4554850000000 1.0
C      1  0.5248600000000  0.6221440000000  0.6020200000000 1.0
C      1  0.5126200000000  0.5854630000000  0.4415230000000 1.0
C      1  0.4795520000000  0.4361350000000  0.4263230000000 1.0
C      1  0.4191490000000  0.4201020000000  0.4466280000000 1.0
C      1  0.5226840000000  0.3976880000000  0.5269140000000 1.0
C      1  0.4666810000000  0.5852230000000  0.5022970000000 1.0
C      1  0.4360560000000  0.5800720000000  0.4387600000000 1.0
C      1  0.4203880000000  0.5377830000000  0.5284050000000 1.0
C      1  0.5476460000000  0.5266100000000  0.5300240000000 1.0
C      1  0.5672960000000  0.5066920000000  0.4761700000000 1.0
C      1  0.5814470000000  0.5564960000000  0.4377660000000 1.0
C      1  0.5201880000000  0.4515490000000  0.4116050000000 1.0
C      1  0.5667690000000  0.5339420000000  0.4757520000000 1.0
C      1  0.4512100000000  0.5398960000000  0.5191490000000 1.0
C      1  0.4099700000000  0.4344330000000  0.5746830000000 1.0
C      1  0.5226590000000  0.5251250000000  0.5423490000000 1.0
C      1  0.3944940000000  0.4972110000000  0.5014330000000 1.0
C      1  0.4487810000000  0.4495600000000  0.5480420000000 1.0
C      1  0.5182470000000  0.3993210000000  0.4991810000000 1.0
C      1  0.5769290000000  0.4890150000000  0.5415410000000 1.0
C      1  0.5411640000000  0.5435710000000  0.4832340000000 1.0
C      1  0.4199420000000  0.4490440000000  0.5530090000000 1.0
C      1  0.5643210000000  0.4264780000000  0.4459530000000 1.0
C      1  0.5686670000000  0.4046410000000  0.5372240000000 1.0
C      1  0.4057130000000  0.5448570000000  0.5027660000000 1.0
C      1  0.6026730000000  0.5569110000000  0.5410980000000 1.0
C      1  0.4006510000000  0.6286260000000  0.5320720000000 1.0
C      1  0.5033710000000  0.4754520000000  0.4516270000000 1.0
C      1  0.4489260000000  0.5625410000000  0.4981350000000 1.0
C      1  0.4428010000000  0.5802400000000  0.5690960000000 1.0
C      1  0.4931840000000  0.4077520000000  0.4608960000000 1.0
C      1  0.4810510000000  0.4904720000000  0.4630590000000 1.0
C      1  0.3797950000000  0.3812880000000  0.6607450000000 1.0
C      1  0.4979970000000  0.5351990000000  0.4577850000000 1.0
C      1  0.6159310000000  0.4770920000000  0.4795680000000 1.0
C      1  0.5431990000000  0.5660260000000  0.5018910000000 1.0
C      1  0.5460250000000  0.4639510000000  0.4105160000000 1.0
C      1  0.6212390000000  0.5089790000000  0.5213660000000 1.0
C      1  0.4143000000000  0.4592740000000  0.4751670000000 1.0
C      1  0.5832390000000  0.4287740000000  0.4697460000000 1.0
C      1  0.3944980000000  0.4076990000000  0.6177270000000 1.0
C      1  0.4988700000000  0.4406050000000  0.6019930000000 1.0
C      1  0.4624510000000  0.4207470000000  0.5031710000000 1.0
C      1  0.5414850000000  0.4089940000000  0.4529050000000 1.0
C      1  0.6219540000000  0.4873590000000  0.5053690000000 1.0
C      1  0.4862900000000  0.4896500000000  0.5476960000000 1.0
C      1  0.5157540000000  0.5309330000000  0.4794290000000 1.0
C      1  0.5419950000000  0.4130420000000  0.5403170000000 1.0
C      1  0.5043290000000  0.4522470000000  0.4694200000000 1.0
C      1  0.4528790000000  0.5102330000000  0.5109350000000 1.0
C      1  0.5050140000000  0.4728320000000  0.4239400000000 1.0
C      1  0.6133430000000  0.5322120000000  0.5321840000000 1.0
C      1  0.5264920000000  0.4427550000000  0.6057790000000 1.0
C      1  0.4939170000000  0.5035150000000  0.5719240000000 1.0
C      1  0.5743980000000  0.4672660000000  0.5566940000000 1.0
C      1  0.5474100000000  0.4676330000000  0.4838450000000 1.0
C      1  0.5623320000000  0.5336400000000  0.5878710000000 1.0
C      1  0.4460920000000  0.5737750000000  0.4131140000000 1.0
C      1  0.6153310000000  0.4982720000000  0.4590030000000 1.0
C      1  0.4176360000000  0.5359680000000  0.4367900000000 1.0
C      1  0.5578600000000  0.4908780000000  0.4976730000000 1.0
C      1  0.4831060000000  0.5961380000000  0.4810620000000 1.0
C      1  0.4306720000000  0.4047580000000  0.4662210000000 1.0
C      1  0.5637370000000  0.5582950000000  0.5729400000000 1.0
C      1  0.5410420000000  0.4986450000000  0.4032330000000 1.0
C      1  0.3962260000000  0.4429580000000  0.5152790000000 1.0
C      1  0.4019740000000  0.4210200000000  0.5960740000000 1.0
C      1  0.5609410000000  0.5024600000000  0.5230650000000 1.0
C      1  0.5560150000000  0.5541320000000  0.5253640000000 1.0
C      1  0.4630110000000  0.4449840000000  0.5205360000000 1.0
C      1  0.5585110000000  0.4519380000000  0.4339820000000 1.0
C      1  0.5778810000000  0.5378410000000  0.4161560000000 1.0
C      1  0.5395300000000  0.6022870000000  0.5936480000000 1.0
C      1  0.4588630000000  0.4613190000000  0.5737650000000 1.0
C      1  0.5403780000000  0.4614430000000  0.5896900000000 1.0
C      1  0.4845390000000  0.5497120000000  0.3948930000000 1.0
C      1  0.4268830000000  0.5180090000000  0.4185160000000 1.0
C      1  0.5311430000000  0.5461560000000  0.4131790000000 1.0
C      1  0.5079410000000  0.5356380000000  0.4001150000000 1.0
C      1  0.5835880000000  0.4021910000000  0.5134810000000 1.0
C      1  0.5746850000000  0.5598610000000  0.5462280000000 1.0
C      1  0.4643670000000  0.4814420000000  0.4030010000000 1.0
C      1  0.4448490000000  0.6041100000000  0.4501660000000 1.0
C      1  0.5833700000000  0.5281400000000  0.6047940000000 1.0
C      1  0.4996150000000  0.4702240000000  0.5319020000000 1.0
C      1  0.4230620000000  0.5589600000000  0.4536430000000 1.0
C      1  0.4420460000000  0.4612170000000  0.4380780000000 1.0
C      1  0.4875190000000  0.4905580000000  0.4926310000000 1.0
C      1  0.4626840000000  0.5363200000000  0.5913480000000 1.0
C      1  0.4561560000000  0.4762110000000  0.4569760000000 1.0
C      1  0.5368440000000  0.4407970000000  0.5430290000000 1.0
C      1  0.4595430000000  0.4551860000000  0.4163960000000 1.0
C      1  0.4883270000000  0.5867660000000  0.5449890000000 1.0
C      1  0.5531070000000  0.5815180000000  0.5843690000000 1.0
C      1  0.5366900000000  0.5884160000000  0.4843410000000 1.0
C      1  0.4358410000000  0.4177210000000  0.4911500000000 1.0
C      1  0.5118470000000  0.5071110000000  0.3962330000000 1.0
C      1  0.5028400000000  0.5147580000000  0.4999390000000 1.0
C      1  0.3871570000000  0.5242850000000  0.4958280000000 1.0
C      1  0.4156590000000  0.4868940000000  0.4846020000000 1.0
C      1  0.4665680000000  0.5963220000000  0.5291230000000 1.0
C      1  0.4425530000000  0.5977650000000  0.5457810000000 1.0
C      1  0.5185840000000  0.5171460000000  0.5691150000000 1.0
C      1  0.5072010000000  0.4264910000000  0.4178800000000 1.0
C      1  0.5155370000000  0.4077560000000  0.4405940000000 1.0
C      1  0.6193360000000  0.5783560000000  0.5447120000000 1.0
C      1  0.5699860000000  0.4928130000000  0.4517120000000 1.0
C      1  0.4520950000000  0.5696010000000  0.3657350000000 1.0
C      1  0.5705190000000  0.4109550000000  0.4898740000000 1.0
C      1  0.4235620000000  0.5587140000000  0.4831430000000 1.0
C      1  0.4381680000000  0.5003270000000  0.5555020000000 1.0
C      1  0.4912580000000  0.4046490000000  0.4893720000000 1.0
C      1  0.4149660000000  0.5114730000000  0.5429790000000 1.0
C      1  0.6137770000000  0.5271280000000  0.4642780000000 1.0
C      1  0.3870850000000  0.3943840000000  0.6394140000000 1.0
C      1  0.5005540000000  0.5276220000000  0.5249640000000 1.0
C      1  0.5238090000000  0.4542630000000  0.4925210000000 1.0
C      1  0.5434330000000  0.4884860000000  0.5974460000000 1.0
C      1  0.4502830000000  0.4891460000000  0.5791670000000 1.0
C      1  0.5580050000000  0.5926990000000  0.4647760000000 1.0
C      1  0.6087950000000  0.3917970000000  0.5131960000000 1.0
C      1  0.5602500000000  0.5759230000000  0.4414120000000 1.0
C      1  0.5340610000000  0.5691420000000  0.4303800000000 1.0
C      1  0.4667730000000  0.6117080000000  0.4637030000000 1.0
C      1  0.4608880000000  0.5644070000000  0.3911420000000 1.0
C      1  0.5558290000000  0.4691670000000  0.4560780000000 1.0
C      1  0.4987590000000  0.6014310000000  0.4238750000000 1.0
C      1  0.5408560000000  0.5144700000000  0.5864250000000 1.0
C      1  0.4757430000000  0.4470930000000  0.5908010000000 1.0
C      1  0.4389610000000  0.5045310000000  0.4863830000000 1.0
C      1  0.4210090000000  0.6142030000000  0.5395940000000 1.0
C      1  0.5396280000000  0.4274140000000  0.6241600000000 1.0
C      1  0.4621800000000  0.5598540000000  0.5754430000000 1.0
C      1  0.5504820000000  0.4544880000000  0.5640320000000 1.0
C      1  0.4599300000000  0.4977100000000  0.5360550000000 1.0
C      1  0.4435050000000  0.5011650000000  0.4052070000000 1.0
C      1  0.5425740000000  0.4030210000000  0.4820480000000 1.0
C      1  0.4197990000000  0.4486510000000  0.4488890000000 1.0
C      1  0.4780200000000  0.5424100000000  0.5336040000000 1.0
C      1  0.4151880000000  0.4385150000000  0.4952130000000 1.0
C      1  0.5100650000000  0.5898570000000  0.4710430000000 1.0
END
