TITL C-599896-8500-358 1188.33173867169 125000 -1051.624140878 0 0 171 (C1) n - 1
REM
REM in /home/nfs/bkarasulu/CARBON/AIRSS/Generating-Clusters/TERSOFF/Only-C1/FIRE-HFTN
REM
REM
REM
REM
REM
REM ./C.cell (11c1c37f851c82e70ff6c80c92926a4b)
REM AIRSS Version 0.9.1 bugfix July 2018 build 013d7b7c2542+ Fri, 06 Jul 2018 19:26:36 +0100
REM compiler GCC version 9.2.1 20190827 (Red Hat 9.2.1-1)
REM options -cpp -mtune=generic -march=x86-64 -g -O0 -fpre-include=/usr/include/finclude/math-vector-fortran.h
REM seed -1667904425 -148709342 1237001421 283600015 150068353 -642045785 39896455 1801616645 1036478410 2003682887 1042920463 1974378698 -326892416 2091156485 -746691356 2032906823 134145237 -1616325384 -1116102595 1369993491 -1639185112 -413359156 -1319799853 -1939137051 2046221587 1671464346 -1439988105 347104567 -2112108804 -707302026 -1100051788 -458910576 1903907315
REM
CELL 1.54180   50.00000   50.00000   50.00000   90.00000   90.00000   90.00000
LATT -1
SFAC C  
C      1  0.5407720000000  0.5126430000000  0.4786550000000 1.0
C      1  0.4296860000000  0.4554560000000  0.5070650000000 1.0
C      1  0.5528730000000  0.4683110000000  0.5924160000000 1.0
C      1  0.3858960000000  0.4007840000000  0.4931520000000 1.0
C      1  0.4349180000000  0.5666450000000  0.5908070000000 1.0
C      1  0.5458150000000  0.5854500000000  0.5479810000000 1.0
C      1  0.5476620000000  0.4133270000000  0.4532420000000 1.0
C      1  0.4619690000000  0.5611500000000  0.4876200000000 1.0
C      1  0.6201480000000  0.6221490000000  0.5114860000000 1.0
C      1  0.6627070000000  0.6526830000000  0.5159170000000 1.0
C      1  0.5479550000000  0.5253910000000  0.5938870000000 1.0
C      1  0.4413990000000  0.4519620000000  0.5326840000000 1.0
C      1  0.4468390000000  0.4658690000000  0.4871470000000 1.0
C      1  0.4432890000000  0.3910850000000  0.4620330000000 1.0
C      1  0.6413410000000  0.6378570000000  0.5140850000000 1.0
C      1  0.5597210000000  0.5436590000000  0.5084820000000 1.0
C      1  0.5089590000000  0.4403300000000  0.4217500000000 1.0
C      1  0.4991220000000  0.6352890000000  0.4862120000000 1.0
C      1  0.4313760000000  0.4501560000000  0.5602620000000 1.0
C      1  0.4798060000000  0.6210750000000  0.5013880000000 1.0
C      1  0.4601400000000  0.4405660000000  0.6003220000000 1.0
C      1  0.4803450000000  0.5599460000000  0.5376740000000 1.0
C      1  0.4702810000000  0.4511470000000  0.5324380000000 1.0
C      1  0.6218200000000  0.4566350000000  0.5668330000000 1.0
C      1  0.6277300000000  0.4960380000000  0.4361370000000 1.0
C      1  0.4868160000000  0.4211780000000  0.4671650000000 1.0
C      1  0.4135210000000  0.5763440000000  0.6086300000000 1.0
C      1  0.5107330000000  0.4705400000000  0.5632270000000 1.0
C      1  0.4750750000000  0.5782070000000  0.4441010000000 1.0
C      1  0.5259710000000  0.4170980000000  0.5381520000000 1.0
C      1  0.5285490000000  0.6073160000000  0.4482180000000 1.0
C      1  0.4122580000000  0.4847480000000  0.4485660000000 1.0
C      1  0.6361160000000  0.4463430000000  0.4270810000000 1.0
C      1  0.5497500000000  0.5588260000000  0.5567720000000 1.0
C      1  0.5248980000000  0.4179740000000  0.4340180000000 1.0
C      1  0.5129300000000  0.3965490000000  0.5201440000000 1.0
C      1  0.4302940000000  0.5816110000000  0.4578080000000 1.0
C      1  0.3729930000000  0.4803670000000  0.5204980000000 1.0
C      1  0.5088700000000  0.3942880000000  0.4347640000000 1.0
C      1  0.4660610000000  0.5719990000000  0.5147980000000 1.0
C      1  0.5674830000000  0.4663010000000  0.4601810000000 1.0
C      1  0.5093170000000  0.4478190000000  0.6139930000000 1.0
C      1  0.4987560000000  0.4679830000000  0.4697100000000 1.0
C      1  0.3869180000000  0.5771290000000  0.6034480000000 1.0
C      1  0.3685100000000  0.5178600000000  0.5487110000000 1.0
C      1  0.5084340000000  0.5638410000000  0.5782900000000 1.0
C      1  0.4415540000000  0.4505570000000  0.4387910000000 1.0
C      1  0.4409780000000  0.4952140000000  0.5703150000000 1.0
C      1  0.5728400000000  0.4093510000000  0.4407700000000 1.0
C      1  0.4847350000000  0.4547800000000  0.6017350000000 1.0
C      1  0.3633450000000  0.3879540000000  0.4955910000000 1.0
C      1  0.3728250000000  0.5089210000000  0.5214810000000 1.0
C      1  0.4349530000000  0.3990730000000  0.4891700000000 1.0
C      1  0.5354720000000  0.4530400000000  0.6092610000000 1.0
C      1  0.4613460000000  0.4138620000000  0.5605570000000 1.0
C      1  0.4685120000000  0.3777440000000  0.4603840000000 1.0
C      1  0.4488730000000  0.3950190000000  0.5431790000000 1.0
C      1  0.5727740000000  0.4544400000000  0.5747200000000 1.0
C      1  0.5251710000000  0.5299870000000  0.4201150000000 1.0
C      1  0.5095010000000  0.5337140000000  0.3956420000000 1.0
C      1  0.4540590000000  0.5810620000000  0.6305750000000 1.0
C      1  0.5095920000000  0.4362130000000  0.5529200000000 1.0
C      1  0.5757070000000  0.5299700000000  0.5998230000000 1.0
C      1  0.5430410000000  0.5725980000000  0.4202880000000 1.0
C      1  0.5112060000000  0.5064990000000  0.3833360000000 1.0
C      1  0.4145550000000  0.5132560000000  0.4565780000000 1.0
C      1  0.4279640000000  0.5553550000000  0.5661110000000 1.0
C      1  0.4878150000000  0.4751450000000  0.5816190000000 1.0
C      1  0.5619700000000  0.5179970000000  0.4960910000000 1.0
C      1  0.5080410000000  0.5753310000000  0.4846300000000 1.0
C      1  0.5482800000000  0.5124130000000  0.5449470000000 1.0
C      1  0.4994470000000  0.6632230000000  0.4881210000000 1.0
C      1  0.5174790000000  0.5814170000000  0.4085180000000 1.0
C      1  0.4878200000000  0.5660460000000  0.5974060000000 1.0
C      1  0.4288870000000  0.4728670000000  0.4274920000000 1.0
C      1  0.4892160000000  0.3955170000000  0.4541920000000 1.0
C      1  0.4594000000000  0.5328800000000  0.4279700000000 1.0
C      1  0.4957730000000  0.4953200000000  0.4746980000000 1.0
C      1  0.4458660000000  0.4316070000000  0.5772470000000 1.0
C      1  0.5890430000000  0.4547600000000  0.4761020000000 1.0
C      1  0.5206080000000  0.5880060000000  0.5353170000000 1.0
C      1  0.5405280000000  0.4819250000000  0.4193310000000 1.0
C      1  0.6206970000000  0.4246840000000  0.4273460000000 1.0
C      1  0.5768630000000  0.5050370000000  0.5400940000000 1.0
C      1  0.5620940000000  0.4739040000000  0.5127930000000 1.0
C      1  0.5872380000000  0.4384120000000  0.5001840000000 1.0
C      1  0.4891060000000  0.4852440000000  0.4250220000000 1.0
C      1  0.4548730000000  0.4556780000000  0.4626260000000 1.0
C      1  0.5963060000000  0.5121950000000  0.5588210000000 1.0
C      1  0.5661450000000  0.5388870000000  0.4444980000000 1.0
C      1  0.5633120000000  0.4215050000000  0.5031960000000 1.0
C      1  0.3972770000000  0.5205620000000  0.4786100000000 1.0
C      1  0.3822310000000  0.4662190000000  0.5420830000000 1.0
C      1  0.5828250000000  0.5862980000000  0.5006980000000 1.0
C      1  0.5953820000000  0.4437390000000  0.5282800000000 1.0
C      1  0.4091020000000  0.4438890000000  0.4901580000000 1.0
C      1  0.5009000000000  0.5745210000000  0.5513840000000 1.0
C      1  0.4760840000000  0.5591240000000  0.4226490000000 1.0
C      1  0.4536540000000  0.4288900000000  0.4237940000000 1.0
C      1  0.5629920000000  0.4866410000000  0.4390880000000 1.0
C      1  0.5483000000000  0.5449650000000  0.4225840000000 1.0
C      1  0.5361600000000  0.4932400000000  0.3926350000000 1.0
C      1  0.5145930000000  0.4631230000000  0.5121330000000 1.0
C      1  0.6389560000000  0.4725510000000  0.4306510000000 1.0
C      1  0.5977470000000  0.4121600000000  0.4320630000000 1.0
C      1  0.4843620000000  0.5698590000000  0.4703890000000 1.0
C      1  0.5777280000000  0.5123190000000  0.4423070000000 1.0
C      1  0.5149160000000  0.4691960000000  0.4261160000000 1.0
C      1  0.4732930000000  0.4724250000000  0.4016620000000 1.0
C      1  0.4211880000000  0.4745680000000  0.5704670000000 1.0
C      1  0.6057880000000  0.5102860000000  0.4408850000000 1.0
C      1  0.4786430000000  0.5337710000000  0.5479650000000 1.0
C      1  0.4818840000000  0.4311920000000  0.5492370000000 1.0
C      1  0.4814690000000  0.4482570000000  0.4612400000000 1.0
C      1  0.4433040000000  0.4808290000000  0.4037100000000 1.0
C      1  0.4845150000000  0.3979670000000  0.5127890000000 1.0
C      1  0.4640450000000  0.5139310000000  0.5342320000000 1.0
C      1  0.4671130000000  0.6008020000000  0.5138060000000 1.0
C      1  0.3800760000000  0.5043870000000  0.5697120000000 1.0
C      1  0.5962180000000  0.5232790000000  0.5834110000000 1.0
C      1  0.4364240000000  0.5051150000000  0.3914500000000 1.0
C      1  0.4100480000000  0.4147720000000  0.4906940000000 1.0
C      1  0.4758580000000  0.5037780000000  0.4913770000000 1.0
C      1  0.4388460000000  0.5123880000000  0.5471920000000 1.0
C      1  0.4235050000000  0.5363630000000  0.5457940000000 1.0
C      1  0.4518030000000  0.5129730000000  0.4846050000000 1.0
C      1  0.4611760000000  0.5700510000000  0.6046760000000 1.0
C      1  0.4828170000000  0.5124010000000  0.4327220000000 1.0
C      1  0.4268350000000  0.5847180000000  0.6327010000000 1.0
C      1  0.4083310000000  0.5401370000000  0.5223700000000 1.0
C      1  0.6003540000000  0.6050550000000  0.5072110000000 1.0
C      1  0.5194070000000  0.4581920000000  0.4847690000000 1.0
C      1  0.5389320000000  0.4673880000000  0.5242720000000 1.0
C      1  0.4975220000000  0.5603360000000  0.4024690000000 1.0
C      1  0.5677280000000  0.5649400000000  0.4908630000000 1.0
C      1  0.5432520000000  0.4569410000000  0.4711570000000 1.0
C      1  0.4382780000000  0.5566420000000  0.4698410000000 1.0
C      1  0.5292700000000  0.3902640000000  0.4968190000000 1.0
C      1  0.4416890000000  0.4052770000000  0.4361750000000 1.0
C      1  0.5753810000000  0.4983700000000  0.5120440000000 1.0
C      1  0.4017930000000  0.4634940000000  0.4682720000000 1.0
C      1  0.5533480000000  0.4233750000000  0.5318610000000 1.0
C      1  0.5159990000000  0.5128560000000  0.4662730000000 1.0
C      1  0.4778230000000  0.4962700000000  0.5179680000000 1.0
C      1  0.5181440000000  0.6228320000000  0.4692080000000 1.0
C      1  0.4882420000000  0.4702890000000  0.5218080000000 1.0
C      1  0.3912330000000  0.5244720000000  0.5059710000000 1.0
C      1  0.4441960000000  0.5284740000000  0.4021240000000 1.0
C      1  0.5307890000000  0.4938050000000  0.5609260000000 1.0
C      1  0.5472580000000  0.4078930000000  0.4829340000000 1.0
C      1  0.5493390000000  0.5401080000000  0.5355710000000 1.0
C      1  0.4510310000000  0.5939870000000  0.4447440000000 1.0
C      1  0.6199170000000  0.4507030000000  0.5404090000000 1.0
C      1  0.4812330000000  0.5223630000000  0.5744080000000 1.0
C      1  0.5719440000000  0.4398420000000  0.5480580000000 1.0
C      1  0.3936000000000  0.4796070000000  0.5650320000000 1.0
C      1  0.4849690000000  0.4190530000000  0.4944630000000 1.0
C      1  0.5186970000000  0.5852930000000  0.5072560000000 1.0
C      1  0.4690650000000  0.4967190000000  0.5801260000000 1.0
C      1  0.6001460000000  0.4578720000000  0.5831580000000 1.0
C      1  0.4997150000000  0.6892200000000  0.4899240000000 1.0
C      1  0.5627720000000  0.5634700000000  0.4623600000000 1.0
C      1  0.4786810000000  0.4407240000000  0.4104090000000 1.0
C      1  0.5086260000000  0.5231260000000  0.4415340000000 1.0
C      1  0.5483840000000  0.5853390000000  0.4471070000000 1.0
C      1  0.4886880000000  0.4876670000000  0.3788300000000 1.0
C      1  0.5345770000000  0.5492580000000  0.5803230000000 1.0
C      1  0.5131760000000  0.6060190000000  0.4232190000000 1.0
C      1  0.4558280000000  0.3924610000000  0.5158080000000 1.0
C      1  0.4366030000000  0.5332730000000  0.4509860000000 1.0
C      1  0.5433490000000  0.4965130000000  0.5874400000000 1.0
END
