TITL C-599891-72-1118 0.499286356974718 125000 -194.223459552708 0 0 35 (C1) n - 1
REM
REM in /home/nfs/bkarasulu/CARBON/AIRSS/Generating-Clusters/TERSOFF/Only-C1/FIRE-HFTN
REM
REM
REM
REM
REM
REM ./C.cell (11c1c37f851c82e70ff6c80c92926a4b)
REM AIRSS Version 0.9.1 bugfix July 2018 build 013d7b7c2542+ Fri, 06 Jul 2018 19:26:36 +0100
REM compiler GCC version 9.2.1 20190827 (Red Hat 9.2.1-1)
REM options -cpp -mtune=generic -march=x86-64 -g -O0 -fpre-include=/usr/include/finclude/math-vector-fortran.h
REM seed 542821000 1372451519 1378315333 -1219467634 -144645700 -720821433 -776138712 266818468 -2029975979 -933222089 -1072091021 1804148670 -798164620 -105040180 -1734575967 -1918840516 -988169995 316498150 1397627093 -1874250354 787841990 1179124537 1575845585 399497951 229131644 -675938414 2106840255 -371050758 1093403756 -1755490690 943498824 455723671 132399782
REM
CELL 1.54180   50.00000   50.00000   50.00000   90.00000   90.00000   90.00000
LATT -1
SFAC C  
C      1  0.5365230000000  0.5084740000000  0.4860330000000 1.0
C      1  0.4596110000000  0.5207440000000  0.5414000000000 1.0
C      1  0.4685120000000  0.5224210000000  0.4616230000000 1.0
C      1  0.5593110000000  0.5149160000000  0.4722790000000 1.0
C      1  0.5134240000000  0.5483400000000  0.5007810000000 1.0
C      1  0.4631260000000  0.5468970000000  0.4530320000000 1.0
C      1  0.4922010000000  0.4479570000000  0.5499030000000 1.0
C      1  0.5270900000000  0.5254160000000  0.5068150000000 1.0
C      1  0.5272810000000  0.4532390000000  0.5167380000000 1.0
C      1  0.4395090000000  0.5904020000000  0.5090040000000 1.0
C      1  0.5350680000000  0.5131540000000  0.5591820000000 1.0
C      1  0.4288030000000  0.6350330000000  0.4833680000000 1.0
C      1  0.5311030000000  0.4596810000000  0.4899020000000 1.0
C      1  0.5197770000000  0.4472410000000  0.5429740000000 1.0
C      1  0.5429780000000  0.4413490000000  0.4723070000000 1.0
C      1  0.4518670000000  0.5441890000000  0.5317880000000 1.0
C      1  0.5427480000000  0.4218100000000  0.3999470000000 1.0
C      1  0.5451670000000  0.4320070000000  0.4474160000000 1.0
C      1  0.4579500000000  0.4810210000000  0.4836040000000 1.0
C      1  0.4585990000000  0.5709190000000  0.4439760000000 1.0
C      1  0.4791760000000  0.4726590000000  0.5511560000000 1.0
C      1  0.5039460000000  0.4751760000000  0.4354790000000 1.0
C      1  0.4685260000000  0.4967250000000  0.5481630000000 1.0
C      1  0.5343750000000  0.4985220000000  0.6096490000000 1.0
C      1  0.5004590000000  0.4858210000000  0.4611930000000 1.0
C      1  0.5161410000000  0.4572400000000  0.4199470000000 1.0
C      1  0.4753460000000  0.4963760000000  0.4691110000000 1.0
C      1  0.5352020000000  0.5063600000000  0.5848000000000 1.0
C      1  0.4786240000000  0.4247510000000  0.5549710000000 1.0
C      1  0.5349960000000  0.4364330000000  0.4215710000000 1.0
C      1  0.5323520000000  0.5186580000000  0.5334180000000 1.0
C      1  0.5386060000000  0.4408740000000  0.5617700000000 1.0
C      1  0.4340160000000  0.6130340000000  0.4963480000000 1.0
C      1  0.4453590000000  0.5673830000000  0.5207530000000 1.0
C      1  0.5222320000000  0.4847770000000  0.4795980000000 1.0
END
