TITL C-599892-9790-318 209.335375937001 125000 -558.067038905151 0 0 94 (C1) n - 1
REM
REM in /home/nfs/bkarasulu/CARBON/AIRSS/Generating-Clusters/TERSOFF/Only-C1/FIRE-HFTN
REM
REM
REM
REM
REM
REM ./C.cell (11c1c37f851c82e70ff6c80c92926a4b)
REM AIRSS Version 0.9.1 bugfix July 2018 build 013d7b7c2542+ Fri, 06 Jul 2018 19:26:36 +0100
REM compiler GCC version 9.2.1 20190827 (Red Hat 9.2.1-1)
REM options -cpp -mtune=generic -march=x86-64 -g -O0 -fpre-include=/usr/include/finclude/math-vector-fortran.h
REM seed 1994771879 -94200860 267831407 -372109529 -1161052694 -1566847876 -1335181979 905872905 -1680954510 -641594346 1621022283 -1350491929 -682089634 1855559016 -203549534 1242512321 -303227227 -700574656 413188772 -1091597041 352956366 1200648763 1362293533 -584058587 826661613 -328375035 136230047 2128684601 185058950 1641890927 -1564343883 121025667 -754735287
REM
CELL 1.54180   50.00000   50.00000   50.00000   90.00000   90.00000   90.00000
LATT -1
SFAC C  
C      1  0.5371670000000  0.4906920000000  0.4810520000000 1.0
C      1  0.5175870000000  0.4300060000000  0.5671690000000 1.0
C      1  0.5545670000000  0.4131480000000  0.5434520000000 1.0
C      1  0.4904450000000  0.5087730000000  0.4645330000000 1.0
C      1  0.4722250000000  0.5707870000000  0.5002880000000 1.0
C      1  0.4237510000000  0.5013840000000  0.4385170000000 1.0
C      1  0.4442210000000  0.5463060000000  0.4408740000000 1.0
C      1  0.5039390000000  0.4834940000000  0.5604360000000 1.0
C      1  0.5316050000000  0.5295580000000  0.6055150000000 1.0
C      1  0.5797720000000  0.4566890000000  0.4634440000000 1.0
C      1  0.4874260000000  0.5335520000000  0.5508940000000 1.0
C      1  0.4660580000000  0.5195140000000  0.5682150000000 1.0
C      1  0.5375180000000  0.5111280000000  0.5466430000000 1.0
C      1  0.5081210000000  0.4461620000000  0.6110580000000 1.0
C      1  0.4853060000000  0.5626860000000  0.5611750000000 1.0
C      1  0.5782140000000  0.5291800000000  0.5274770000000 1.0
C      1  0.5217090000000  0.5630860000000  0.4332830000000 1.0
C      1  0.4929350000000  0.4834400000000  0.5870890000000 1.0
C      1  0.4272060000000  0.5265270000000  0.4518330000000 1.0
C      1  0.4948520000000  0.4753390000000  0.5331310000000 1.0
C      1  0.4672070000000  0.4685740000000  0.4312320000000 1.0
C      1  0.4190210000000  0.5326670000000  0.4784360000000 1.0
C      1  0.4599280000000  0.4841050000000  0.4969360000000 1.0
C      1  0.2737120000000  0.4557570000000  0.4045380000000 1.0
C      1  0.5602520000000  0.4411540000000  0.5452930000000 1.0
C      1  0.6049630000000  0.4929570000000  0.4764310000000 1.0
C      1  0.5349290000000  0.4792720000000  0.4245090000000 1.0
C      1  0.3233510000000  0.4707830000000  0.4154510000000 1.0
C      1  0.5319460000000  0.5560400000000  0.5480890000000 1.0
C      1  0.5508390000000  0.5074890000000  0.4626470000000 1.0
C      1  0.5114410000000  0.5478240000000  0.6027620000000 1.0
C      1  0.5241220000000  0.5818390000000  0.5498470000000 1.0
C      1  0.5845710000000  0.5485780000000  0.4978070000000 1.0
C      1  0.6221960000000  0.5034940000000  0.4296700000000 1.0
C      1  0.3977670000000  0.4932410000000  0.4320600000000 1.0
C      1  0.5563700000000  0.4883880000000  0.5824750000000 1.0
C      1  0.5800770000000  0.4778950000000  0.5674060000000 1.0
C      1  0.4656360000000  0.5361370000000  0.5923040000000 1.0
C      1  0.5097960000000  0.4873760000000  0.4738650000000 1.0
C      1  0.5090890000000  0.5400980000000  0.4269160000000 1.0
C      1  0.5064830000000  0.4735360000000  0.6100890000000 1.0
C      1  0.4640110000000  0.5601100000000  0.4527960000000 1.0
C      1  0.4705210000000  0.4441380000000  0.5819120000000 1.0
C      1  0.5219450000000  0.5355420000000  0.4880570000000 1.0
C      1  0.5327960000000  0.5791090000000  0.4520380000000 1.0
C      1  0.4961610000000  0.5181140000000  0.4362950000000 1.0
C      1  0.4264640000000  0.5485930000000  0.4989890000000 1.0
C      1  0.5695590000000  0.5313820000000  0.5764460000000 1.0
C      1  0.4535360000000  0.4934320000000  0.5675550000000 1.0
C      1  0.5901600000000  0.4686360000000  0.4878140000000 1.0
C      1  0.5066300000000  0.4175410000000  0.4624630000000 1.0
C      1  0.5026680000000  0.4617080000000  0.4858040000000 1.0
C      1  0.5563590000000  0.4916450000000  0.4388180000000 1.0
C      1  0.4648650000000  0.4979350000000  0.4746310000000 1.0
C      1  0.5542400000000  0.5153930000000  0.5949010000000 1.0
C      1  0.4457310000000  0.5650400000000  0.5086130000000 1.0
C      1  0.5168820000000  0.4572630000000  0.4241560000000 1.0
C      1  0.5433180000000  0.4770030000000  0.5063160000000 1.0
C      1  0.3729850000000  0.4857580000000  0.4264550000000 1.0
C      1  0.4454180000000  0.4843390000000  0.4314680000000 1.0
C      1  0.5618760000000  0.5563670000000  0.4836120000000 1.0
C      1  0.5629170000000  0.5256400000000  0.5496270000000 1.0
C      1  0.4953310000000  0.4435330000000  0.4653520000000 1.0
C      1  0.2488860000000  0.4482370000000  0.3990880000000 1.0
C      1  0.2985320000000  0.4632730000000  0.4099890000000 1.0
C      1  0.5276110000000  0.4307410000000  0.4218020000000 1.0
C      1  0.4866070000000  0.5564710000000  0.5907530000000 1.0
C      1  0.4657350000000  0.4730340000000  0.5837530000000 1.0
C      1  0.4975740000000  0.4336690000000  0.5872140000000 1.0
C      1  0.5470970000000  0.5331740000000  0.4744530000000 1.0
C      1  0.5303980000000  0.4067210000000  0.5555250000000 1.0
C      1  0.4964160000000  0.5828960000000  0.5428470000000 1.0
C      1  0.5413230000000  0.5781860000000  0.4796520000000 1.0
C      1  0.6044830000000  0.4922180000000  0.4475400000000 1.0
C      1  0.4788980000000  0.5566410000000  0.4764290000000 1.0
C      1  0.5364950000000  0.4520900000000  0.5591460000000 1.0
C      1  0.4916960000000  0.4569710000000  0.4391340000000 1.0
C      1  0.5164770000000  0.5308430000000  0.5455260000000 1.0
C      1  0.4674190000000  0.4791560000000  0.5234010000000 1.0
C      1  0.5201560000000  0.5855690000000  0.4987940000000 1.0
C      1  0.5781270000000  0.4630180000000  0.5418970000000 1.0
C      1  0.5804890000000  0.4764710000000  0.4415870000000 1.0
C      1  0.6387250000000  0.5145570000000  0.4128320000000 1.0
C      1  0.5881060000000  0.5050300000000  0.5169600000000 1.0
C      1  0.5336960000000  0.4835250000000  0.5615410000000 1.0
C      1  0.5225070000000  0.4118870000000  0.4409390000000 1.0
C      1  0.4944100000000  0.5829660000000  0.5137810000000 1.0
C      1  0.5753410000000  0.4770860000000  0.5145520000000 1.0
C      1  0.5999570000000  0.5156600000000  0.4924420000000 1.0
C      1  0.2244680000000  0.4408420000000  0.3937280000000 1.0
C      1  0.3481700000000  0.4782800000000  0.4209340000000 1.0
C      1  0.4469950000000  0.4840980000000  0.5421280000000 1.0
C      1  0.5148100000000  0.4656120000000  0.5132190000000 1.0
C      1  0.4957030000000  0.5341990000000  0.4794550000000 1.0
END
