TITL C-599896-8500-1129 -593.137621905425 125000 -555.323954930668 0 0 92 (C1) n - 1
REM
REM in /home/nfs/bkarasulu/CARBON/AIRSS/Generating-Clusters/TERSOFF/Only-C1/FIRE-HFTN
REM
REM
REM
REM
REM
REM ./C.cell (11c1c37f851c82e70ff6c80c92926a4b)
REM AIRSS Version 0.9.1 bugfix July 2018 build 013d7b7c2542+ Fri, 06 Jul 2018 19:26:36 +0100
REM compiler GCC version 9.2.1 20190827 (Red Hat 9.2.1-1)
REM options -cpp -mtune=generic -march=x86-64 -g -O0 -fpre-include=/usr/include/finclude/math-vector-fortran.h
REM seed -309420486 -42445063 1095144132 1022776591 -890106964 -577249471 -1243025007 -1248286022 543750564 -1304892131 552264896 -1412070060 999817332 -1195772937 -439617596 -1098107813 -925165226 -884399134 -1453174625 1698612994 -1654328522 -1251761971 427565210 -1173497320 -554062916 -1248275071 2068171239 1039020626 388752631 1536997337 -908587236 -703248066 -678484058
REM
CELL 1.54180   50.00000   50.00000   50.00000   90.00000   90.00000   90.00000
LATT -1
SFAC C  
C      1  0.5051680000000  0.5186650000000  0.4844830000000 1.0
C      1  0.4230080000000  0.4151850000000  0.4525520000000 1.0
C      1  0.5741460000000  0.5044910000000  0.5123690000000 1.0
C      1  0.4429110000000  0.5567890000000  0.4734540000000 1.0
C      1  0.5678960000000  0.5606910000000  0.4614980000000 1.0
C      1  0.4806290000000  0.4045600000000  0.4895590000000 1.0
C      1  0.5087090000000  0.4642450000000  0.5025520000000 1.0
C      1  0.4692200000000  0.4920570000000  0.5039900000000 1.0
C      1  0.4622180000000  0.5916490000000  0.4954740000000 1.0
C      1  0.4979580000000  0.5156060000000  0.4566340000000 1.0
C      1  0.4417630000000  0.4118430000000  0.5509580000000 1.0
C      1  0.4145070000000  0.4330560000000  0.4704890000000 1.0
C      1  0.4602060000000  0.6427460000000  0.5118250000000 1.0
C      1  0.4525280000000  0.5187070000000  0.4385430000000 1.0
C      1  0.5293650000000  0.4067890000000  0.4805490000000 1.0
C      1  0.5904190000000  0.4678000000000  0.5335870000000 1.0
C      1  0.5285840000000  0.4897340000000  0.5970560000000 1.0
C      1  0.4226460000000  0.4997610000000  0.5078930000000 1.0
C      1  0.4997850000000  0.4305850000000  0.4050670000000 1.0
C      1  0.4163250000000  0.4794630000000  0.4876750000000 1.0
C      1  0.5003860000000  0.5403410000000  0.5325440000000 1.0
C      1  0.5255380000000  0.5727710000000  0.4436400000000 1.0
C      1  0.4941850000000  0.5300920000000  0.5580900000000 1.0
C      1  0.5405740000000  0.4188450000000  0.5037570000000 1.0
C      1  0.4821960000000  0.5168520000000  0.5004130000000 1.0
C      1  0.5014670000000  0.5863320000000  0.4500820000000 1.0
C      1  0.5605670000000  0.5722780000000  0.5052970000000 1.0
C      1  0.4167960000000  0.4899680000000  0.4610550000000 1.0
C      1  0.4612790000000  0.4586850000000  0.4464800000000 1.0
C      1  0.5808740000000  0.5610350000000  0.4872310000000 1.0
C      1  0.5833850000000  0.5137940000000  0.4875770000000 1.0
C      1  0.4204240000000  0.4512080000000  0.4913100000000 1.0
C      1  0.5929160000000  0.5481770000000  0.5829600000000 1.0
C      1  0.5261920000000  0.4127540000000  0.5276190000000 1.0
C      1  0.5126490000000  0.5883590000000  0.4982240000000 1.0
C      1  0.5095790000000  0.4548820000000  0.4100150000000 1.0
C      1  0.4759410000000  0.5321770000000  0.4487500000000 1.0
C      1  0.4984440000000  0.4887840000000  0.4467560000000 1.0
C      1  0.5970580000000  0.5384520000000  0.4900550000000 1.0
C      1  0.4611740000000  0.6178800000000  0.5040840000000 1.0
C      1  0.4335100000000  0.4029260000000  0.5745010000000 1.0
C      1  0.5105130000000  0.4776360000000  0.4240920000000 1.0
C      1  0.5397050000000  0.5863110000000  0.4890030000000 1.0
C      1  0.5740300000000  0.5391110000000  0.5654330000000 1.0
C      1  0.4512110000000  0.4214830000000  0.5264420000000 1.0
C      1  0.4253190000000  0.5345130000000  0.4735420000000 1.0
C      1  0.5738880000000  0.5119350000000  0.5561440000000 1.0
C      1  0.5289550000000  0.5087270000000  0.4960530000000 1.0
C      1  0.4699130000000  0.5555130000000  0.4643960000000 1.0
C      1  0.4254770000000  0.3941500000000  0.5976970000000 1.0
C      1  0.4625270000000  0.4027850000000  0.4204700000000 1.0
C      1  0.5462850000000  0.5026170000000  0.5497410000000 1.0
C      1  0.4865720000000  0.5803890000000  0.4760960000000 1.0
C      1  0.5272260000000  0.5651880000000  0.5672570000000 1.0
C      1  0.4538660000000  0.5021740000000  0.5481260000000 1.0
C      1  0.4860180000000  0.4060590000000  0.4053460000000 1.0
C      1  0.5069280000000  0.4664210000000  0.5310270000000 1.0
C      1  0.4837300000000  0.4712450000000  0.4898050000000 1.0
C      1  0.4460290000000  0.4579710000000  0.4252310000000 1.0
C      1  0.4355910000000  0.4402770000000  0.5124400000000 1.0
C      1  0.4469070000000  0.4943800000000  0.5217330000000 1.0
C      1  0.4958990000000  0.4810330000000  0.5508010000000 1.0
C      1  0.5091660000000  0.5448090000000  0.5782560000000 1.0
C      1  0.5191080000000  0.5098350000000  0.6122110000000 1.0
C      1  0.5533800000000  0.4444730000000  0.5014660000000 1.0
C      1  0.5451660000000  0.5063200000000  0.5200420000000 1.0
C      1  0.5333220000000  0.5451080000000  0.4362790000000 1.0
C      1  0.4813960000000  0.4706940000000  0.4615340000000 1.0
C      1  0.5432800000000  0.4904920000000  0.4773120000000 1.0
C      1  0.5491470000000  0.5577810000000  0.5267860000000 1.0
C      1  0.4187480000000  0.5278060000000  0.5014580000000 1.0
C      1  0.4808330000000  0.5043900000000  0.5573030000000 1.0
C      1  0.4407640000000  0.4044410000000  0.4357700000000 1.0
C      1  0.5149130000000  0.5867530000000  0.5519790000000 1.0
C      1  0.5532080000000  0.5564210000000  0.5554440000000 1.0
C      1  0.4413650000000  0.5718970000000  0.4986590000000 1.0
C      1  0.4288780000000  0.5144310000000  0.4538400000000 1.0
C      1  0.4956630000000  0.3850170000000  0.3907030000000 1.0
C      1  0.5759400000000  0.4511350000000  0.5175510000000 1.0
C      1  0.5358900000000  0.4644470000000  0.4896500000000 1.0
C      1  0.5088140000000  0.5934860000000  0.5261730000000 1.0
C      1  0.5232330000000  0.5475390000000  0.5206290000000 1.0
C      1  0.5354830000000  0.4882140000000  0.5711880000000 1.0
C      1  0.5467540000000  0.5806290000000  0.4614300000000 1.0
C      1  0.4996300000000  0.4109610000000  0.5326090000000 1.0
C      1  0.5113290000000  0.5343270000000  0.6041810000000 1.0
C      1  0.5636010000000  0.5098100000000  0.4659680000000 1.0
C      1  0.5033050000000  0.4019310000000  0.4750980000000 1.0
C      1  0.5887150000000  0.4962710000000  0.5360960000000 1.0
C      1  0.4760960000000  0.4118030000000  0.5166040000000 1.0
C      1  0.5569580000000  0.5347170000000  0.4509050000000 1.0
C      1  0.4262010000000  0.5531220000000  0.5153570000000 1.0
END
