TITL C-599891-72-1040 2531.67160070269 125000 -435.647130747415 0 0 72 (C1) n - 1
REM
REM in /home/nfs/bkarasulu/CARBON/AIRSS/Generating-Clusters/TERSOFF/Only-C1/FIRE-HFTN
REM
REM
REM
REM
REM
REM ./C.cell (11c1c37f851c82e70ff6c80c92926a4b)
REM AIRSS Version 0.9.1 bugfix July 2018 build 013d7b7c2542+ Fri, 06 Jul 2018 19:26:36 +0100
REM compiler GCC version 9.2.1 20190827 (Red Hat 9.2.1-1)
REM options -cpp -mtune=generic -march=x86-64 -g -O0 -fpre-include=/usr/include/finclude/math-vector-fortran.h
REM seed -563622668 1847209165 -1651869193 -613806365 1790650905 1107705007 1984733533 -182818627 -1238510891 -1251372735 681088386 -720166608 -130512302 -1096909615 568053783 1725081597 -1668035493 1575646579 -1143586880 -1487178838 1364002554 1710970074 774742854 -1553385966 1385065480 -1188918338 -55126746 -1237643237 -606950423 -793341252 -1910654378 859773179 189138944
REM
CELL 1.54180   50.00000   50.00000   50.00000   90.00000   90.00000   90.00000
LATT -1
SFAC C  
C      1  0.5435150000000  0.4963360000000  0.5236450000000 1.0
C      1  0.4455330000000  0.4301470000000  0.5165800000000 1.0
C      1  0.5408910000000  0.5223470000000  0.5688260000000 1.0
C      1  0.4821250000000  0.4461830000000  0.4755280000000 1.0
C      1  0.4961060000000  0.5437890000000  0.4958740000000 1.0
C      1  0.5241590000000  0.6011760000000  0.4719990000000 1.0
C      1  0.5122220000000  0.5277540000000  0.4785390000000 1.0
C      1  0.4942000000000  0.4964030000000  0.5348170000000 1.0
C      1  0.5674600000000  0.4646380000000  0.4628750000000 1.0
C      1  0.5008620000000  0.5609800000000  0.5187140000000 1.0
C      1  0.5870490000000  0.5120040000000  0.5233930000000 1.0
C      1  0.5207100000000  0.4245640000000  0.4553350000000 1.0
C      1  0.5732560000000  0.4697090000000  0.5494090000000 1.0
C      1  0.5149150000000  0.5342250000000  0.4505760000000 1.0
C      1  0.4731930000000  0.5094740000000  0.5479790000000 1.0
C      1  0.5399800000000  0.5440040000000  0.5469380000000 1.0
C      1  0.4866730000000  0.5855880000000  0.5186630000000 1.0
C      1  0.4996490000000  0.4432120000000  0.4520340000000 1.0
C      1  0.4867620000000  0.4726670000000  0.5907990000000 1.0
C      1  0.4734990000000  0.5985000000000  0.4991390000000 1.0
C      1  0.4257950000000  0.4390670000000  0.4702030000000 1.0
C      1  0.4563460000000  0.4710200000000  0.4467980000000 1.0
C      1  0.5606760000000  0.4415880000000  0.4753060000000 1.0
C      1  0.4338510000000  0.4534220000000  0.4483730000000 1.0
C      1  0.5517340000000  0.5750160000000  0.5088260000000 1.0
C      1  0.5186030000000  0.4616160000000  0.5100640000000 1.0
C      1  0.4553630000000  0.5202310000000  0.4877040000000 1.0
C      1  0.5126510000000  0.5543740000000  0.5439610000000 1.0
C      1  0.3987610000000  0.4210470000000  0.5064970000000 1.0
C      1  0.5202170000000  0.5015560000000  0.4840440000000 1.0
C      1  0.4995510000000  0.6016730000000  0.4581490000000 1.0
C      1  0.4998890000000  0.4563680000000  0.5699360000000 1.0
C      1  0.5273480000000  0.4977450000000  0.5797110000000 1.0
C      1  0.3922340000000  0.3945660000000  0.5043300000000 1.0
C      1  0.4808070000000  0.5090500000000  0.4254630000000 1.0
C      1  0.5332720000000  0.4833520000000  0.5005960000000 1.0
C      1  0.5282340000000  0.4687480000000  0.5701300000000 1.0
C      1  0.5597200000000  0.5142970000000  0.4554610000000 1.0
C      1  0.4692530000000  0.5445460000000  0.4843680000000 1.0
C      1  0.4966850000000  0.5999820000000  0.4299830000000 1.0
C      1  0.5570860000000  0.5504480000000  0.5225750000000 1.0
C      1  0.5296830000000  0.4787250000000  0.4361620000000 1.0
C      1  0.4896930000000  0.4301360000000  0.4987580000000 1.0
C      1  0.4966510000000  0.4696930000000  0.5269270000000 1.0
C      1  0.4592450000000  0.4935770000000  0.4889800000000 1.0
C      1  0.4865530000000  0.4487310000000  0.5440070000000 1.0
C      1  0.5699640000000  0.4918550000000  0.5326240000000 1.0
C      1  0.4932450000000  0.5502340000000  0.5643120000000 1.0
C      1  0.4732430000000  0.4315980000000  0.5231080000000 1.0
C      1  0.4674510000000  0.5648400000000  0.4638620000000 1.0
C      1  0.5412760000000  0.5910770000000  0.4900410000000 1.0
C      1  0.3644990000000  0.4570240000000  0.5276820000000 1.0
C      1  0.4636030000000  0.4662520000000  0.6035180000000 1.0
C      1  0.5034550000000  0.4670600000000  0.4362130000000 1.0
C      1  0.5534270000000  0.4581030000000  0.5635930000000 1.0
C      1  0.4763250000000  0.5914060000000  0.4721230000000 1.0
C      1  0.5715970000000  0.5252240000000  0.4794610000000 1.0
C      1  0.4734790000000  0.5317770000000  0.5631900000000 1.0
C      1  0.4752650000000  0.5573580000000  0.4367400000000 1.0
C      1  0.4908840000000  0.5335860000000  0.4349330000000 1.0
C      1  0.5416560000000  0.5319650000000  0.4418520000000 1.0
C      1  0.5197020000000  0.5081360000000  0.5339300000000 1.0
C      1  0.3807780000000  0.4393900000000  0.5175200000000 1.0
C      1  0.4785810000000  0.4815370000000  0.4313090000000 1.0
C      1  0.5186600000000  0.4348160000000  0.5010040000000 1.0
C      1  0.5027290000000  0.4965650000000  0.5955310000000 1.0
C      1  0.4241960000000  0.4303420000000  0.4974610000000 1.0
C      1  0.4661700000000  0.4703340000000  0.4748330000000 1.0
C      1  0.5743400000000  0.5319770000000  0.5074880000000 1.0
C      1  0.5543180000000  0.4860840000000  0.4497630000000 1.0
C      1  0.4824520000000  0.5790860000000  0.4197700000000 1.0
C      1  0.5360420000000  0.4281020000000  0.4791680000000 1.0
END
