TITL C-599897-7526-1081 0.00104987642431584 125000 -757.780238991139 0 0 125 (C1) n - 1
REM
REM in /home/nfs/bkarasulu/CARBON/AIRSS/Generating-Clusters/TERSOFF/Only-C1/FIRE-HFTN
REM
REM
REM
REM
REM
REM ./C.cell (11c1c37f851c82e70ff6c80c92926a4b)
REM AIRSS Version 0.9.1 bugfix July 2018 build 013d7b7c2542+ Fri, 06 Jul 2018 19:26:36 +0100
REM compiler GCC version 9.2.1 20190827 (Red Hat 9.2.1-1)
REM options -cpp -mtune=generic -march=x86-64 -g -O0 -fpre-include=/usr/include/finclude/math-vector-fortran.h
REM seed -1568340603 688950992 -1746295211 -1227177670 -424324493 1850121393 -1048254589 -2142438176 -390600423 1843207747 -2023783772 1343242239 -894877993 -170579560 966286139 953308907 406398205 962537744 441121099 2032424936 -1513769510 -245460490 1640867674 -1961082343 -230227432 2015071134 -851926795 -831745592 1314843906 181984767 369505815 1150189192 404500075
REM
CELL 1.54180   50.00000   50.00000   50.00000   90.00000   90.00000   90.00000
LATT -1
SFAC C  
C      1  0.4607780000000  0.5770680000000  0.4523150000000 1.0
C      1  0.4641390000000  0.5680770000000  0.4248870000000 1.0
C      1  0.4360530000000  0.4863600000000  0.4373880000000 1.0
C      1  0.4231070000000  0.6088430000000  0.4744750000000 1.0
C      1  0.4994590000000  0.5654330000000  0.4897940000000 1.0
C      1  0.4352560000000  0.4295500000000  0.4636210000000 1.0
C      1  0.4812550000000  0.4890350000000  0.5762970000000 1.0
C      1  0.5117110000000  0.4259380000000  0.4358600000000 1.0
C      1  0.4252040000000  0.4639420000000  0.5317140000000 1.0
C      1  0.5958000000000  0.5269760000000  0.4395550000000 1.0
C      1  0.4424780000000  0.4311980000000  0.4919510000000 1.0
C      1  0.4583750000000  0.5009940000000  0.4400070000000 1.0
C      1  0.5151030000000  0.4496160000000  0.4169890000000 1.0
C      1  0.4197810000000  0.5342220000000  0.4540920000000 1.0
C      1  0.4909140000000  0.5842440000000  0.5741720000000 1.0
C      1  0.4925130000000  0.5398950000000  0.5903890000000 1.0
C      1  0.5214520000000  0.5064280000000  0.6010970000000 1.0
C      1  0.5666190000000  0.5005700000000  0.4763900000000 1.0
C      1  0.5808360000000  0.5568460000000  0.5374240000000 1.0
C      1  0.5038390000000  0.3621010000000  0.5095580000000 1.0
C      1  0.4658350000000  0.5347540000000  0.5079740000000 1.0
C      1  0.6038800000000  0.4587140000000  0.4980520000000 1.0
C      1  0.5347000000000  0.4898580000000  0.4315630000000 1.0
C      1  0.5184820000000  0.5752830000000  0.5673420000000 1.0
C      1  0.4863230000000  0.5707890000000  0.4653110000000 1.0
C      1  0.4799550000000  0.3785410000000  0.4698620000000 1.0
C      1  0.5406830000000  0.5798810000000  0.5194410000000 1.0
C      1  0.6184680000000  0.4814230000000  0.4965820000000 1.0
C      1  0.4888280000000  0.5495700000000  0.5101230000000 1.0
C      1  0.4777300000000  0.4064760000000  0.4709320000000 1.0
C      1  0.5056770000000  0.5421160000000  0.5310950000000 1.0
C      1  0.4356950000000  0.5582410000000  0.5362620000000 1.0
C      1  0.5081820000000  0.3918460000000  0.5503920000000 1.0
C      1  0.4442000000000  0.5439740000000  0.4930430000000 1.0
C      1  0.5932670000000  0.5510580000000  0.4830230000000 1.0
C      1  0.5558090000000  0.5266330000000  0.4652770000000 1.0
C      1  0.4140190000000  0.4753780000000  0.4480190000000 1.0
C      1  0.4381830000000  0.4265560000000  0.5634870000000 1.0
C      1  0.5894750000000  0.5075670000000  0.5445670000000 1.0
C      1  0.6189250000000  0.5083570000000  0.4954220000000 1.0
C      1  0.5046830000000  0.5192050000000  0.4624580000000 1.0
C      1  0.4936520000000  0.4390550000000  0.5388540000000 1.0
C      1  0.4643940000000  0.4649960000000  0.5701820000000 1.0
C      1  0.5043630000000  0.5061460000000  0.4007520000000 1.0
C      1  0.6049670000000  0.5320710000000  0.5022050000000 1.0
C      1  0.4806090000000  0.4408760000000  0.5636840000000 1.0
C      1  0.5310910000000  0.4107100000000  0.4799460000000 1.0
C      1  0.3971110000000  0.5222830000000  0.4628570000000 1.0
C      1  0.4016050000000  0.4544910000000  0.4908950000000 1.0
C      1  0.5121890000000  0.3857340000000  0.5224630000000 1.0
C      1  0.5666150000000  0.4928120000000  0.5309020000000 1.0
C      1  0.5089790000000  0.6141640000000  0.4773790000000 1.0
C      1  0.3989040000000  0.5078510000000  0.5094210000000 1.0
C      1  0.5825380000000  0.5140960000000  0.5736330000000 1.0
C      1  0.5287070000000  0.5273570000000  0.4773100000000 1.0
C      1  0.4939900000000  0.4748360000000  0.4525910000000 1.0
C      1  0.4517030000000  0.4433590000000  0.4155070000000 1.0
C      1  0.4404430000000  0.5357430000000  0.5753880000000 1.0
C      1  0.5057240000000  0.5763780000000  0.4426980000000 1.0
C      1  0.4419880000000  0.5303730000000  0.5473440000000 1.0
C      1  0.5124520000000  0.4951840000000  0.4493540000000 1.0
C      1  0.4992160000000  0.4558070000000  0.4957810000000 1.0
C      1  0.5347280000000  0.5170920000000  0.5040310000000 1.0
C      1  0.4947380000000  0.5333560000000  0.4063760000000 1.0
C      1  0.5804460000000  0.5407610000000  0.4593820000000 1.0
C      1  0.4234590000000  0.5527980000000  0.5108910000000 1.0
C      1  0.5287510000000  0.4073270000000  0.5626180000000 1.0
C      1  0.4832930000000  0.4780950000000  0.5074450000000 1.0
C      1  0.4008270000000  0.5359100000000  0.5133680000000 1.0
C      1  0.4997120000000  0.6131340000000  0.5037070000000 1.0
C      1  0.4899150000000  0.4265630000000  0.4546940000000 1.0
C      1  0.5315450000000  0.5040440000000  0.4074490000000 1.0
C      1  0.4973280000000  0.6007410000000  0.5303260000000 1.0
C      1  0.5263330000000  0.5736220000000  0.4954770000000 1.0
C      1  0.4501390000000  0.5625290000000  0.5797110000000 1.0
C      1  0.4378060000000  0.4559970000000  0.5569180000000 1.0
C      1  0.4105570000000  0.4887090000000  0.5276040000000 1.0
C      1  0.5451350000000  0.4821790000000  0.5473930000000 1.0
C      1  0.4766700000000  0.5639750000000  0.5892580000000 1.0
C      1  0.5946380000000  0.5332650000000  0.5293880000000 1.0
C      1  0.5749180000000  0.4565340000000  0.4603900000000 1.0
C      1  0.5790860000000  0.4494220000000  0.4879300000000 1.0
C      1  0.4400370000000  0.4325040000000  0.4372370000000 1.0
C      1  0.4241090000000  0.4471300000000  0.5074200000000 1.0
C      1  0.5546280000000  0.4491710000000  0.5021690000000 1.0
C      1  0.5214650000000  0.4982790000000  0.5459060000000 1.0
C      1  0.4901410000000  0.3598620000000  0.4863920000000 1.0
C      1  0.5394790000000  0.4621220000000  0.4277530000000 1.0
C      1  0.3937110000000  0.5013340000000  0.4819220000000 1.0
C      1  0.3994180000000  0.4753580000000  0.4721700000000 1.0
C      1  0.4651540000000  0.4161290000000  0.5673990000000 1.0
C      1  0.4453580000000  0.5358150000000  0.4663920000000 1.0
C      1  0.5461090000000  0.4569060000000  0.5596690000000 1.0
C      1  0.4694100000000  0.5212990000000  0.4568920000000 1.0
C      1  0.5368160000000  0.5284280000000  0.5932460000000 1.0
C      1  0.4595080000000  0.5166280000000  0.5290640000000 1.0
C      1  0.4910150000000  0.4521790000000  0.4676530000000 1.0
C      1  0.4766240000000  0.4942130000000  0.5292110000000 1.0
C      1  0.5535980000000  0.4447880000000  0.4460020000000 1.0
C      1  0.6143440000000  0.4902140000000  0.5470670000000 1.0
C      1  0.4407970000000  0.5934740000000  0.4621190000000 1.0
C      1  0.5684420000000  0.5746650000000  0.5192590000000 1.0
C      1  0.4694270000000  0.4593970000000  0.4029660000000 1.0
C      1  0.4680410000000  0.4190430000000  0.4960490000000 1.0
C      1  0.4958100000000  0.4691440000000  0.4042560000000 1.0
C      1  0.5954540000000  0.4995860000000  0.4385370000000 1.0
C      1  0.5234710000000  0.5211110000000  0.5291290000000 1.0
C      1  0.4932720000000  0.4296870000000  0.5106140000000 1.0
C      1  0.4059240000000  0.6228130000000  0.4882280000000 1.0
C      1  0.5292040000000  0.4580570000000  0.4998340000000 1.0
C      1  0.5826230000000  0.5749250000000  0.4944410000000 1.0
C      1  0.4921560000000  0.5596890000000  0.4199380000000 1.0
C      1  0.5361590000000  0.4223740000000  0.4536270000000 1.0
C      1  0.4929390000000  0.5097520000000  0.5940630000000 1.0
C      1  0.5229890000000  0.5874870000000  0.5407900000000 1.0
C      1  0.5153430000000  0.4086320000000  0.5046840000000 1.0
C      1  0.5412650000000  0.4310150000000  0.5646090000000 1.0
C      1  0.5587050000000  0.5003740000000  0.5041990000000 1.0
C      1  0.5159200000000  0.6021100000000  0.4527890000000 1.0
C      1  0.4815530000000  0.3935160000000  0.5617910000000 1.0
C      1  0.4946100000000  0.4923400000000  0.5510400000000 1.0
C      1  0.4754720000000  0.5927030000000  0.5494780000000 1.0
C      1  0.5801640000000  0.4843140000000  0.4569400000000 1.0
C      1  0.5206860000000  0.5499100000000  0.5823550000000 1.0
C      1  0.4497190000000  0.5775920000000  0.5530030000000 1.0
END
