TITL C-599890-3321-833 -29.5626681858062 125000 -339.782658676291 0 0 57 (C1) n - 1
REM
REM in /home/nfs/bkarasulu/CARBON/AIRSS/Generating-Clusters/TERSOFF/Only-C1/FIRE-HFTN
REM
REM
REM
REM
REM
REM ./C.cell (11c1c37f851c82e70ff6c80c92926a4b)
REM AIRSS Version 0.9.1 bugfix July 2018 build 013d7b7c2542+ Fri, 06 Jul 2018 19:26:36 +0100
REM compiler GCC version 9.2.1 20190827 (Red Hat 9.2.1-1)
REM options -cpp -mtune=generic -march=x86-64 -g -O0 -fpre-include=/usr/include/finclude/math-vector-fortran.h
REM seed -18924286 -155250197 -1159187168 -1914058324 -1067815512 -637507232 -1479027439 -1755624342 -914856671 529513711 -1201234094 -2107257215 -64025282 -1917583034 -2039327550 -1149734960 84567594 782239769 -1625248698 333454148 850812867 -1481361737 -2058411432 -596389054 1115747459 962946131 -1835698564 -1206568836 1560620909 -848625897 -424847218 1195485985 -583921494
REM
CELL 1.54180   50.00000   50.00000   50.00000   90.00000   90.00000   90.00000
LATT -1
SFAC C  
C      1  0.4803640000000  0.5366590000000  0.4608940000000 1.0
C      1  0.4934510000000  0.5085010000000  0.4274690000000 1.0
C      1  0.4395720000000  0.5404010000000  0.5049310000000 1.0
C      1  0.5058970000000  0.5466300000000  0.5359100000000 1.0
C      1  0.4208650000000  0.5652110000000  0.5413320000000 1.0
C      1  0.5067100000000  0.5486370000000  0.4638040000000 1.0
C      1  0.5025710000000  0.4991930000000  0.5413710000000 1.0
C      1  0.6087280000000  0.5078900000000  0.5430780000000 1.0
C      1  0.5070340000000  0.4208820000000  0.4741740000000 1.0
C      1  0.4419940000000  0.5317830000000  0.5703490000000 1.0
C      1  0.4420520000000  0.4710170000000  0.4344260000000 1.0
C      1  0.4541180000000  0.4712660000000  0.5091380000000 1.0
C      1  0.4567610000000  0.5186850000000  0.5018530000000 1.0
C      1  0.5182270000000  0.5536810000000  0.4893190000000 1.0
C      1  0.4741660000000  0.5025870000000  0.5440800000000 1.0
C      1  0.5427480000000  0.4536250000000  0.4954600000000 1.0
C      1  0.6640450000000  0.4714310000000  0.5726310000000 1.0
C      1  0.4377600000000  0.4626120000000  0.4614730000000 1.0
C      1  0.4573270000000  0.4703320000000  0.4807590000000 1.0
C      1  0.5241880000000  0.5419630000000  0.4420750000000 1.0
C      1  0.4963450000000  0.4081890000000  0.3783140000000 1.0
C      1  0.4362410000000  0.5652710000000  0.5177310000000 1.0
C      1  0.5552480000000  0.4740140000000  0.5068740000000 1.0
C      1  0.4833900000000  0.5822730000000  0.5106830000000 1.0
C      1  0.4587690000000  0.4970390000000  0.5207300000000 1.0
C      1  0.6789040000000  0.4515690000000  0.5806510000000 1.0
C      1  0.4567150000000  0.5840130000000  0.5130770000000 1.0
C      1  0.4781760000000  0.4469140000000  0.4088520000000 1.0
C      1  0.6414260000000  0.5392150000000  0.5601190000000 1.0
C      1  0.4695770000000  0.4660760000000  0.4268320000000 1.0
C      1  0.5037770000000  0.5630620000000  0.5122550000000 1.0
C      1  0.5193440000000  0.5208640000000  0.5336680000000 1.0
C      1  0.4873610000000  0.4063400000000  0.4651670000000 1.0
C      1  0.4459860000000  0.5207670000000  0.4263200000000 1.0
C      1  0.5189520000000  0.5206500000000  0.4258210000000 1.0
C      1  0.4734630000000  0.5158630000000  0.4791790000000 1.0
C      1  0.5856710000000  0.5032130000000  0.5309360000000 1.0
C      1  0.4231300000000  0.5495760000000  0.5631610000000 1.0
C      1  0.6492680000000  0.5637540000000  0.5640660000000 1.0
C      1  0.4863760000000  0.4842640000000  0.4415030000000 1.0
C      1  0.5260270000000  0.4363010000000  0.4843800000000 1.0
C      1  0.4673120000000  0.5256730000000  0.5600610000000 1.0
C      1  0.5420130000000  0.5194140000000  0.5167220000000 1.0
C      1  0.4771130000000  0.4886140000000  0.4694000000000 1.0
C      1  0.4202690000000  0.4440710000000  0.5305930000000 1.0
C      1  0.4329370000000  0.4968520000000  0.4262900000000 1.0
C      1  0.4722560000000  0.5282930000000  0.4338810000000 1.0
C      1  0.4665340000000  0.4313950000000  0.5332190000000 1.0
C      1  0.6489460000000  0.4916190000000  0.5644800000000 1.0
C      1  0.3944810000000  0.4407690000000  0.5356870000000 1.0
C      1  0.4861660000000  0.5469160000000  0.5563620000000 1.0
C      1  0.3690790000000  0.4375910000000  0.5406150000000 1.0
C      1  0.5415060000000  0.5386640000000  0.4960140000000 1.0
C      1  0.6330330000000  0.5129070000000  0.5558920000000 1.0
C      1  0.4471630000000  0.4486190000000  0.5244760000000 1.0
C      1  0.5612240000000  0.4988480000000  0.5182400000000 1.0
C      1  0.4872470000000  0.4275460000000  0.3932190000000 1.0
END
