TITL C-599895-9959-881 148.019938403914 125000 -1152.90992108559 0 0 187 (C1) n - 1
REM
REM in /home/nfs/bkarasulu/CARBON/AIRSS/Generating-Clusters/TERSOFF/Only-C1/FIRE-HFTN
REM
REM
REM
REM
REM
REM ./C.cell (11c1c37f851c82e70ff6c80c92926a4b)
REM AIRSS Version 0.9.1 bugfix July 2018 build 013d7b7c2542+ Fri, 06 Jul 2018 19:26:36 +0100
REM compiler GCC version 9.2.1 20190827 (Red Hat 9.2.1-1)
REM options -cpp -mtune=generic -march=x86-64 -g -O0 -fpre-include=/usr/include/finclude/math-vector-fortran.h
REM seed 600886916 1018403013 -164755574 979548435 1064520379 -1746679816 -1352247719 2096324348 -308619132 -1793472812 -917418067 353352918 545449856 1511318558 1920528860 -1699240835 1032567776 -577895323 -1801897391 1216467737 -1055887838 1995644708 1959142457 853147388 1397668712 2101165223 1421184514 -108080619 -758063864 -1666311393 2047982468 -874997313 116607112
REM
CELL 1.54180   50.00000   50.00000   50.00000   90.00000   90.00000   90.00000
LATT -1
SFAC C  
C      1  0.4255140000000  0.4422800000000  0.5202800000000 1.0
C      1  0.4390650000000  0.5112340000000  0.5033790000000 1.0
C      1  0.4853460000000  0.6129250000000  0.4724910000000 1.0
C      1  0.3924130000000  0.5301910000000  0.4565110000000 1.0
C      1  0.5042860000000  0.5571080000000  0.4933690000000 1.0
C      1  0.4994760000000  0.4831210000000  0.5095270000000 1.0
C      1  0.4991120000000  0.4250580000000  0.5050720000000 1.0
C      1  0.4988340000000  0.3971090000000  0.4945190000000 1.0
C      1  0.4651110000000  0.3958320000000  0.4585960000000 1.0
C      1  0.4893440000000  0.5170990000000  0.4778000000000 1.0
C      1  0.5344540000000  0.4259870000000  0.4520400000000 1.0
C      1  0.4859420000000  0.5636750000000  0.4749820000000 1.0
C      1  0.5971320000000  0.5444110000000  0.5019160000000 1.0
C      1  0.5194380000000  0.5191330000000  0.5965070000000 1.0
C      1  0.5447750000000  0.4616520000000  0.5001880000000 1.0
C      1  0.4430880000000  0.3787210000000  0.5313730000000 1.0
C      1  0.4539560000000  0.4892430000000  0.6175130000000 1.0
C      1  0.4723350000000  0.4305300000000  0.5189190000000 1.0
C      1  0.5652780000000  0.5583860000000  0.3820600000000 1.0
C      1  0.4736130000000  0.5322060000000  0.3833590000000 1.0
C      1  0.4293520000000  0.5859040000000  0.5573520000000 1.0
C      1  0.5916200000000  0.5132890000000  0.5428400000000 1.0
C      1  0.5772870000000  0.5856480000000  0.5623280000000 1.0
C      1  0.4726410000000  0.5704280000000  0.4304560000000 1.0
C      1  0.5886100000000  0.4519170000000  0.4837440000000 1.0
C      1  0.4751550000000  0.5381800000000  0.4627280000000 1.0
C      1  0.4294540000000  0.5227950000000  0.4119180000000 1.0
C      1  0.3853540000000  0.5237010000000  0.4826440000000 1.0
C      1  0.4203780000000  0.5199660000000  0.5734500000000 1.0
C      1  0.6131320000000  0.4484830000000  0.4676970000000 1.0
C      1  0.5477110000000  0.3938380000000  0.5228030000000 1.0
C      1  0.5441870000000  0.5503540000000  0.5127580000000 1.0
C      1  0.5215270000000  0.5057710000000  0.4484970000000 1.0
C      1  0.5699290000000  0.4919870000000  0.4437050000000 1.0
C      1  0.4572900000000  0.4162900000000  0.4392840000000 1.0
C      1  0.5906180000000  0.5806030000000  0.4740020000000 1.0
C      1  0.5618700000000  0.4444250000000  0.4857910000000 1.0
C      1  0.5555600000000  0.5097800000000  0.3871250000000 1.0
C      1  0.5376580000000  0.4962530000000  0.5567150000000 1.0
C      1  0.5816060000000  0.5399480000000  0.4222610000000 1.0
C      1  0.5198100000000  0.4435160000000  0.4369700000000 1.0
C      1  0.5533130000000  0.4887770000000  0.6025520000000 1.0
C      1  0.5305560000000  0.5817090000000  0.4084700000000 1.0
C      1  0.5064260000000  0.5735020000000  0.3950220000000 1.0
C      1  0.4872030000000  0.5289640000000  0.5491910000000 1.0
C      1  0.5116960000000  0.3900690000000  0.5585940000000 1.0
C      1  0.5494170000000  0.4001160000000  0.4962000000000 1.0
C      1  0.4441480000000  0.4630320000000  0.6046970000000 1.0
C      1  0.5556610000000  0.4123850000000  0.5688620000000 1.0
C      1  0.5354260000000  0.5799530000000  0.4368190000000 1.0
C      1  0.4361470000000  0.4021690000000  0.5460750000000 1.0
C      1  0.4419550000000  0.4961990000000  0.4088000000000 1.0
C      1  0.4864000000000  0.5435060000000  0.4361770000000 1.0
C      1  0.4415410000000  0.5155750000000  0.6156610000000 1.0
C      1  0.4836150000000  0.4804430000000  0.4384400000000 1.0
C      1  0.4760710000000  0.5996030000000  0.5639280000000 1.0
C      1  0.4524250000000  0.5673740000000  0.4109810000000 1.0
C      1  0.4585510000000  0.4618110000000  0.4872650000000 1.0
C      1  0.5497080000000  0.4207790000000  0.4760210000000 1.0
C      1  0.5036380000000  0.4887730000000  0.3825880000000 1.0
C      1  0.3977830000000  0.4772470000000  0.5424480000000 1.0
C      1  0.5240000000000  0.5592620000000  0.5321020000000 1.0
C      1  0.4407820000000  0.4368750000000  0.4500240000000 1.0
C      1  0.4414440000000  0.4604790000000  0.4652820000000 1.0
C      1  0.5959340000000  0.5050630000000  0.4466930000000 1.0
C      1  0.4342740000000  0.5359430000000  0.5945710000000 1.0
C      1  0.4459340000000  0.5356190000000  0.4644970000000 1.0
C      1  0.4499720000000  0.3829510000000  0.4803550000000 1.0
C      1  0.5274180000000  0.4791790000000  0.5129970000000 1.0
C      1  0.4528680000000  0.5824820000000  0.5731820000000 1.0
C      1  0.5807200000000  0.4992980000000  0.4983520000000 1.0
C      1  0.4582940000000  0.3759510000000  0.5075730000000 1.0
C      1  0.4798730000000  0.5046080000000  0.3730850000000 1.0
C      1  0.4700050000000  0.6204400000000  0.5452270000000 1.0
C      1  0.4918790000000  0.4600660000000  0.6117940000000 1.0
C      1  0.5398730000000  0.4712820000000  0.6181320000000 1.0
C      1  0.5405280000000  0.6101630000000  0.5289250000000 1.0
C      1  0.5191540000000  0.4520490000000  0.6159470000000 1.0
C      1  0.5377710000000  0.6052530000000  0.4792060000000 1.0
C      1  0.5014070000000  0.4445050000000  0.4827170000000 1.0
C      1  0.5369390000000  0.5222060000000  0.5060520000000 1.0
C      1  0.5557020000000  0.5080870000000  0.4862310000000 1.0
C      1  0.4876320000000  0.4964330000000  0.5304790000000 1.0
C      1  0.5101510000000  0.5272950000000  0.4307380000000 1.0
C      1  0.4660310000000  0.5430030000000  0.5326270000000 1.0
C      1  0.4565310000000  0.4880190000000  0.4320730000000 1.0
C      1  0.4730440000000  0.4333400000000  0.5465250000000 1.0
C      1  0.5176460000000  0.4506420000000  0.5493100000000 1.0
C      1  0.4983360000000  0.5467770000000  0.3896340000000 1.0
C      1  0.3904820000000  0.4105780000000  0.5219710000000 1.0
C      1  0.5360260000000  0.5024470000000  0.5285620000000 1.0
C      1  0.5477830000000  0.5613950000000  0.4854160000000 1.0
C      1  0.4045000000000  0.4608220000000  0.5204200000000 1.0
C      1  0.3747850000000  0.4275500000000  0.5069250000000 1.0
C      1  0.4091190000000  0.4905990000000  0.4409050000000 1.0
C      1  0.5404800000000  0.5058490000000  0.5836860000000 1.0
C      1  0.4385250000000  0.5101280000000  0.4750770000000 1.0
C      1  0.5093830000000  0.5662970000000  0.5765960000000 1.0
C      1  0.4771880000000  0.4799500000000  0.5502050000000 1.0
C      1  0.4486110000000  0.5416020000000  0.3985060000000 1.0
C      1  0.5134240000000  0.6175940000000  0.4724740000000 1.0
C      1  0.4719130000000  0.6271920000000  0.4934310000000 1.0
C      1  0.6407110000000  0.4870640000000  0.4617860000000 1.0
C      1  0.5464160000000  0.4133500000000  0.5955750000000 1.0
C      1  0.5963180000000  0.5512380000000  0.4722230000000 1.0
C      1  0.5022850000000  0.4630710000000  0.4249510000000 1.0
C      1  0.3904460000000  0.4714860000000  0.4359250000000 1.0
C      1  0.5879290000000  0.5648140000000  0.5468340000000 1.0
C      1  0.4072230000000  0.5193440000000  0.4332950000000 1.0
C      1  0.4013440000000  0.4653310000000  0.5683830000000 1.0
C      1  0.5946630000000  0.4748680000000  0.5003720000000 1.0
C      1  0.4804820000000  0.4387960000000  0.3942650000000 1.0
C      1  0.6230370000000  0.4742420000000  0.5052840000000 1.0
C      1  0.5688390000000  0.4611080000000  0.5559200000000 1.0
C      1  0.4417460000000  0.5322200000000  0.5223800000000 1.0
C      1  0.3692780000000  0.4797910000000  0.4970070000000 1.0
C      1  0.5290210000000  0.4260570000000  0.6115510000000 1.0
C      1  0.4894090000000  0.4550650000000  0.5547910000000 1.0
C      1  0.5014390000000  0.5705880000000  0.5177220000000 1.0
C      1  0.4461770000000  0.5832520000000  0.4776360000000 1.0
C      1  0.5936920000000  0.5340870000000  0.4480380000000 1.0
C      1  0.4244590000000  0.4701090000000  0.5841140000000 1.0
C      1  0.4866950000000  0.3784860000000  0.5124860000000 1.0
C      1  0.4965290000000  0.4924180000000  0.4628480000000 1.0
C      1  0.4926080000000  0.3944720000000  0.4667940000000 1.0
C      1  0.4682220000000  0.4429530000000  0.6030850000000 1.0
C      1  0.4396680000000  0.4831380000000  0.3840380000000 1.0
C      1  0.5267260000000  0.5065760000000  0.3892480000000 1.0
C      1  0.5700290000000  0.4862810000000  0.3816500000000 1.0
C      1  0.4709550000000  0.4171920000000  0.5876990000000 1.0
C      1  0.4689530000000  0.6297860000000  0.5200600000000 1.0
C      1  0.5414910000000  0.5803540000000  0.4646760000000 1.0
C      1  0.5044410000000  0.5931600000000  0.5657070000000 1.0
C      1  0.5461600000000  0.5853840000000  0.5990700000000 1.0
C      1  0.4492250000000  0.5619930000000  0.5943860000000 1.0
C      1  0.4776290000000  0.5169550000000  0.5751720000000 1.0
C      1  0.5928190000000  0.5190400000000  0.5143030000000 1.0
C      1  0.4729670000000  0.5691230000000  0.5227220000000 1.0
C      1  0.4727650000000  0.5867140000000  0.4624390000000 1.0
C      1  0.4686740000000  0.4222160000000  0.4131080000000 1.0
C      1  0.5314330000000  0.6039800000000  0.5558660000000 1.0
C      1  0.4321800000000  0.5603260000000  0.4679590000000 1.0
C      1  0.4608040000000  0.5687560000000  0.6188000000000 1.0
C      1  0.4166640000000  0.4172820000000  0.5316020000000 1.0
C      1  0.4156190000000  0.5709540000000  0.5398350000000 1.0
C      1  0.4976250000000  0.4626190000000  0.3963460000000 1.0
C      1  0.4045910000000  0.5250000000000  0.5494880000000 1.0
C      1  0.4356680000000  0.4871670000000  0.4548220000000 1.0
C      1  0.5857990000000  0.4854330000000  0.5518930000000 1.0
C      1  0.3803660000000  0.5056860000000  0.5052520000000 1.0
C      1  0.5733770000000  0.4334000000000  0.5604080000000 1.0
C      1  0.5394750000000  0.3969960000000  0.5505480000000 1.0
C      1  0.5097410000000  0.5285890000000  0.4938630000000 1.0
C      1  0.4509210000000  0.4447590000000  0.5080410000000 1.0
C      1  0.4976420000000  0.3755340000000  0.5383590000000 1.0
C      1  0.3910470000000  0.5044530000000  0.5340350000000 1.0
C      1  0.5673460000000  0.4706850000000  0.4257160000000 1.0
C      1  0.5690590000000  0.5343800000000  0.3967530000000 1.0
C      1  0.5720070000000  0.4641030000000  0.3988250000000 1.0
C      1  0.5542940000000  0.6053960000000  0.5037150000000 1.0
C      1  0.5802180000000  0.5901260000000  0.5008580000000 1.0
C      1  0.4880730000000  0.4711630000000  0.4845010000000 1.0
C      1  0.6357260000000  0.4654120000000  0.4808820000000 1.0
C      1  0.5902840000000  0.5683150000000  0.5184610000000 1.0
C      1  0.5537170000000  0.5960820000000  0.5737470000000 1.0
C      1  0.4342990000000  0.4947650000000  0.5726310000000 1.0
C      1  0.4576030000000  0.4891430000000  0.3647190000000 1.0
C      1  0.4956150000000  0.4011870000000  0.5808480000000 1.0
C      1  0.3812830000000  0.4551420000000  0.5042170000000 1.0
C      1  0.4560030000000  0.4166390000000  0.5622510000000 1.0
C      1  0.5253660000000  0.5678350000000  0.5999150000000 1.0
C      1  0.6187790000000  0.4884450000000  0.4427730000000 1.0
C      1  0.4533250000000  0.5823890000000  0.5060600000000 1.0
C      1  0.5157180000000  0.5284140000000  0.4033450000000 1.0
C      1  0.5189900000000  0.4323540000000  0.5270130000000 1.0
C      1  0.4930430000000  0.5107760000000  0.5983090000000 1.0
C      1  0.5773370000000  0.4383310000000  0.3900520000000 1.0
C      1  0.5111310000000  0.5472960000000  0.5550960000000 1.0
C      1  0.5403040000000  0.4670260000000  0.5563840000000 1.0
C      1  0.5530120000000  0.5806670000000  0.3911710000000 1.0
C      1  0.5910230000000  0.5380520000000  0.5571090000000 1.0
C      1  0.4612210000000  0.4949500000000  0.5671470000000 1.0
C      1  0.5481900000000  0.5021630000000  0.4590980000000 1.0
C      1  0.4832070000000  0.4883410000000  0.6138040000000 1.0
C      1  0.6123300000000  0.4596600000000  0.4407490000000 1.0
C      1  0.5818180000000  0.4136080000000  0.3831400000000 1.0
C      1  0.4179480000000  0.5438700000000  0.5332890000000 1.0
END
