TITL C-599897-7526-432 15.1178295618306 125000 -374.579552558743 0 0 62 (C1) n - 1
REM
REM in /home/nfs/bkarasulu/CARBON/AIRSS/Generating-Clusters/TERSOFF/Only-C1/FIRE-HFTN
REM
REM
REM
REM
REM
REM ./C.cell (11c1c37f851c82e70ff6c80c92926a4b)
REM AIRSS Version 0.9.1 bugfix July 2018 build 013d7b7c2542+ Fri, 06 Jul 2018 19:26:36 +0100
REM compiler GCC version 9.2.1 20190827 (Red Hat 9.2.1-1)
REM options -cpp -mtune=generic -march=x86-64 -g -O0 -fpre-include=/usr/include/finclude/math-vector-fortran.h
REM seed -550261426 -335802239 -913792118 -1347653600 914006616 -1942517242 1841324253 -2072958409 -1849824997 -1006952118 759855350 -858213513 1953254855 -874360238 976351647 -1971157163 -252949531 1547638492 914099403 2018881215 -2115603879 -552462741 796785283 -714450094 -1291550647 -30315542 -1900518032 1359117619 863003961 336275854 2040107598 -1838283023 1563106648
REM
CELL 1.54180   50.00000   50.00000   50.00000   90.00000   90.00000   90.00000
LATT -1
SFAC C  
C      1  0.4748400000000  0.5418640000000  0.4604620000000 1.0
C      1  0.4913160000000  0.5502620000000  0.5557880000000 1.0
C      1  0.4322500000000  0.4210750000000  0.3518270000000 1.0
C      1  0.5110250000000  0.4594400000000  0.4444210000000 1.0
C      1  0.4937450000000  0.3671230000000  0.3677740000000 1.0
C      1  0.6087530000000  0.5336490000000  0.6712930000000 1.0
C      1  0.4763550000000  0.4174180000000  0.3700860000000 1.0
C      1  0.5374560000000  0.5221860000000  0.4721630000000 1.0
C      1  0.5200550000000  0.5561010000000  0.5563700000000 1.0
C      1  0.4541310000000  0.5401870000000  0.6200950000000 1.0
C      1  0.4983590000000  0.5948190000000  0.5996510000000 1.0
C      1  0.4904500000000  0.3949150000000  0.3701010000000 1.0
C      1  0.5343320000000  0.5964490000000  0.5362900000000 1.0
C      1  0.4946650000000  0.5553910000000  0.5057360000000 1.0
C      1  0.4760660000000  0.5526920000000  0.5802040000000 1.0
C      1  0.5313410000000  0.4106620000000  0.4402830000000 1.0
C      1  0.5460460000000  0.3610160000000  0.4244770000000 1.0
C      1  0.4342290000000  0.5841510000000  0.5349700000000 1.0
C      1  0.5666460000000  0.5448630000000  0.6135720000000 1.0
C      1  0.5834930000000  0.5333850000000  0.6304850000000 1.0
C      1  0.4244670000000  0.3985820000000  0.3397090000000 1.0
C      1  0.5649430000000  0.3448490000000  0.4357930000000 1.0
C      1  0.4795290000000  0.5482110000000  0.5291790000000 1.0
C      1  0.4835200000000  0.5578180000000  0.4801520000000 1.0
C      1  0.5203830000000  0.4347170000000  0.4424360000000 1.0
C      1  0.4513760000000  0.3558310000000  0.3399200000000 1.0
C      1  0.4964140000000  0.6232790000000  0.5507630000000 1.0
C      1  0.4815790000000  0.5725910000000  0.6021990000000 1.0
C      1  0.4499220000000  0.4564200000000  0.3810540000000 1.0
C      1  0.6012900000000  0.5210630000000  0.6481840000000 1.0
C      1  0.4645680000000  0.4876920000000  0.4204500000000 1.0
C      1  0.5229620000000  0.5564890000000  0.5083910000000 1.0
C      1  0.4317680000000  0.3733100000000  0.3350290000000 1.0
C      1  0.5050060000000  0.4864980000000  0.4481410000000 1.0
C      1  0.5316130000000  0.3527070000000  0.4019760000000 1.0
C      1  0.4785960000000  0.4961380000000  0.4430730000000 1.0
C      1  0.4488500000000  0.6062840000000  0.5380290000000 1.0
C      1  0.4467740000000  0.5189240000000  0.5072080000000 1.0
C      1  0.4542270000000  0.5355870000000  0.5915740000000 1.0
C      1  0.5314170000000  0.5681270000000  0.5796820000000 1.0
C      1  0.4545190000000  0.4748290000000  0.3995750000000 1.0
C      1  0.4525440000000  0.5404450000000  0.5242740000000 1.0
C      1  0.5200190000000  0.6095120000000  0.5575340000000 1.0
C      1  0.4527720000000  0.4323840000000  0.3672770000000 1.0
C      1  0.4515660000000  0.5077380000000  0.4833280000000 1.0
C      1  0.4185650000000  0.5430150000000  0.5571360000000 1.0
C      1  0.4668800000000  0.5148200000000  0.4607670000000 1.0
C      1  0.5138110000000  0.3544770000000  0.3823900000000 1.0
C      1  0.6113720000000  0.4957280000000  0.6419910000000 1.0
C      1  0.5497430000000  0.5563190000000  0.5967050000000 1.0
C      1  0.4708130000000  0.6203690000000  0.5436300000000 1.0
C      1  0.4321720000000  0.5561940000000  0.5363880000000 1.0
C      1  0.4689910000000  0.5626030000000  0.6260330000000 1.0
C      1  0.5405870000000  0.3863620000000  0.4350770000000 1.0
C      1  0.5382540000000  0.5415150000000  0.4905070000000 1.0
C      1  0.5308740000000  0.5683910000000  0.5324050000000 1.0
C      1  0.6207950000000  0.4717230000000  0.6359130000000 1.0
C      1  0.4749450000000  0.3532660000000  0.3522270000000 1.0
C      1  0.4303310000000  0.5307410000000  0.5779380000000 1.0
C      1  0.6300540000000  0.4481030000000  0.6299140000000 1.0
C      1  0.5249520000000  0.5038730000000  0.4574750000000 1.0
C      1  0.5206830000000  0.5948310000000  0.5825250000000 1.0
END
