TITL C-599895-9959-1128 4.07028634971977e-06 125000 -846.832739493852 0 0 136 (C1) n - 1
REM
REM in /home/nfs/bkarasulu/CARBON/AIRSS/Generating-Clusters/TERSOFF/Only-C1/FIRE-HFTN
REM
REM
REM
REM
REM
REM ./C.cell (11c1c37f851c82e70ff6c80c92926a4b)
REM AIRSS Version 0.9.1 bugfix July 2018 build 013d7b7c2542+ Fri, 06 Jul 2018 19:26:36 +0100
REM compiler GCC version 9.2.1 20190827 (Red Hat 9.2.1-1)
REM options -cpp -mtune=generic -march=x86-64 -g -O0 -fpre-include=/usr/include/finclude/math-vector-fortran.h
REM seed -1602331657 429106598 -458127719 1897489542 -1405050536 35126914 1148178844 -326590304 -162967082 -2140163651 -1377735929 -1640253067 -1572646796 -1286294784 1546216044 465246541 1826190248 1609702518 -236744428 1913143190 -1294820529 1293777340 278165493 -277144281 233752448 -1412685983 1494677955 828854270 192841695 -1847300843 429044922 17592118 1085858045
REM
CELL 1.54180   50.00000   50.00000   50.00000   90.00000   90.00000   90.00000
LATT -1
SFAC C  
C      1  0.3960250000000  0.5503920000000  0.5018960000000 1.0
C      1  0.5720920000000  0.5484120000000  0.5220620000000 1.0
C      1  0.5811650000000  0.4563570000000  0.5746880000000 1.0
C      1  0.4685170000000  0.4935550000000  0.3786050000000 1.0
C      1  0.4312270000000  0.5047520000000  0.4406990000000 1.0
C      1  0.5324230000000  0.4686680000000  0.6071150000000 1.0
C      1  0.4272290000000  0.5708860000000  0.5445440000000 1.0
C      1  0.4785830000000  0.4575200000000  0.6076880000000 1.0
C      1  0.5034100000000  0.4510620000000  0.3728490000000 1.0
C      1  0.6005790000000  0.5629910000000  0.4672890000000 1.0
C      1  0.3970120000000  0.5738200000000  0.4544560000000 1.0
C      1  0.6199720000000  0.5293850000000  0.5086540000000 1.0
C      1  0.5249760000000  0.4919470000000  0.4703030000000 1.0
C      1  0.5304120000000  0.5570150000000  0.5430500000000 1.0
C      1  0.4643200000000  0.5531970000000  0.4897110000000 1.0
C      1  0.5197230000000  0.4729840000000  0.3716240000000 1.0
C      1  0.5124930000000  0.4593170000000  0.4361330000000 1.0
C      1  0.4753030000000  0.5087450000000  0.4810560000000 1.0
C      1  0.5185510000000  0.5437030000000  0.4106400000000 1.0
C      1  0.4565650000000  0.5104690000000  0.5651000000000 1.0
C      1  0.5469370000000  0.4902760000000  0.5938980000000 1.0
C      1  0.5183420000000  0.5855780000000  0.4617110000000 1.0
C      1  0.4434270000000  0.5526430000000  0.4341860000000 1.0
C      1  0.5333370000000  0.4899290000000  0.5224790000000 1.0
C      1  0.4645660000000  0.4488990000000  0.5837200000000 1.0
C      1  0.5307220000000  0.5017140000000  0.4971480000000 1.0
C      1  0.4250540000000  0.4716270000000  0.4531830000000 1.0
C      1  0.5445690000000  0.5264300000000  0.4913640000000 1.0
C      1  0.4812910000000  0.5953630000000  0.5017620000000 1.0
C      1  0.4857850000000  0.5528970000000  0.4705140000000 1.0
C      1  0.5140880000000  0.5805300000000  0.5382260000000 1.0
C      1  0.5539770000000  0.5530300000000  0.4481600000000 1.0
C      1  0.5207810000000  0.4655730000000  0.4630370000000 1.0
C      1  0.5283160000000  0.4091020000000  0.5237110000000 1.0
C      1  0.4814140000000  0.4386890000000  0.3833350000000 1.0
C      1  0.4938620000000  0.5182410000000  0.5890360000000 1.0
C      1  0.5012800000000  0.4122850000000  0.5338940000000 1.0
C      1  0.4987360000000  0.4232970000000  0.5600120000000 1.0
C      1  0.4671260000000  0.5377000000000  0.4251100000000 1.0
C      1  0.5933850000000  0.4524670000000  0.5490380000000 1.0
C      1  0.4848150000000  0.4839550000000  0.3967860000000 1.0
C      1  0.4562660000000  0.4237900000000  0.5053500000000 1.0
C      1  0.5813390000000  0.5716830000000  0.5087040000000 1.0
C      1  0.4645200000000  0.4593310000000  0.4720880000000 1.0
C      1  0.4941770000000  0.5261420000000  0.4685780000000 1.0
C      1  0.5616420000000  0.5248250000000  0.5625340000000 1.0
C      1  0.4584310000000  0.6000920000000  0.4558920000000 1.0
C      1  0.4886670000000  0.5323430000000  0.5373910000000 1.0
C      1  0.5486370000000  0.4448870000000  0.6088960000000 1.0
C      1  0.4198140000000  0.4438440000000  0.5529030000000 1.0
C      1  0.5113970000000  0.4743950000000  0.5321100000000 1.0
C      1  0.4771110000000  0.4906020000000  0.4397730000000 1.0
C      1  0.4110360000000  0.5529110000000  0.5563930000000 1.0
C      1  0.5043360000000  0.4658650000000  0.6126380000000 1.0
C      1  0.4815690000000  0.4965770000000  0.5725130000000 1.0
C      1  0.4467360000000  0.5169240000000  0.5183720000000 1.0
C      1  0.5428380000000  0.5176670000000  0.5841130000000 1.0
C      1  0.5777400000000  0.4819810000000  0.5056490000000 1.0
C      1  0.5523120000000  0.4204080000000  0.5363800000000 1.0
C      1  0.4470740000000  0.5799900000000  0.4415960000000 1.0
C      1  0.6200800000000  0.5072190000000  0.5309490000000 1.0
C      1  0.4833860000000  0.5673890000000  0.5809010000000 1.0
C      1  0.5313550000000  0.3980670000000  0.4971120000000 1.0
C      1  0.4111440000000  0.4457880000000  0.5010800000000 1.0
C      1  0.3992130000000  0.5451340000000  0.4549560000000 1.0
C      1  0.4473060000000  0.4512060000000  0.4500150000000 1.0
C      1  0.3849550000000  0.4823190000000  0.4793990000000 1.0
C      1  0.5608750000000  0.4866920000000  0.5289370000000 1.0
C      1  0.5834070000000  0.4086120000000  0.4889270000000 1.0
C      1  0.4626420000000  0.4352280000000  0.4029460000000 1.0
C      1  0.5175030000000  0.5261040000000  0.5770940000000 1.0
C      1  0.5785930000000  0.4326440000000  0.5321950000000 1.0
C      1  0.4544550000000  0.4706990000000  0.5164860000000 1.0
C      1  0.4987500000000  0.5681650000000  0.4500790000000 1.0
C      1  0.5212310000000  0.5224020000000  0.3916690000000 1.0
C      1  0.4768620000000  0.4099070000000  0.5188970000000 1.0
C      1  0.3969260000000  0.5043200000000  0.5451960000000 1.0
C      1  0.5098130000000  0.5900040000000  0.5105820000000 1.0
C      1  0.6118000000000  0.5129530000000  0.4856410000000 1.0
C      1  0.4940430000000  0.5516740000000  0.4249870000000 1.0
C      1  0.4605920000000  0.4324210000000  0.4316130000000 1.0
C      1  0.3792240000000  0.5082700000000  0.4810930000000 1.0
C      1  0.5404330000000  0.5342160000000  0.4642660000000 1.0
C      1  0.5722660000000  0.5699000000000  0.4629780000000 1.0
C      1  0.5430600000000  0.5543260000000  0.4219110000000 1.0
C      1  0.5182390000000  0.5169420000000  0.4575050000000 1.0
C      1  0.4740990000000  0.4849870000000  0.4671820000000 1.0
C      1  0.4601180000000  0.5755600000000  0.5066120000000 1.0
C      1  0.4942540000000  0.4747060000000  0.5557680000000 1.0
C      1  0.5688030000000  0.4815050000000  0.5763570000000 1.0
C      1  0.5083070000000  0.4545940000000  0.5113320000000 1.0
C      1  0.6127220000000  0.4803800000000  0.5392560000000 1.0
C      1  0.4623040000000  0.4509150000000  0.4985020000000 1.0
C      1  0.4903630000000  0.4002030000000  0.4620400000000 1.0
C      1  0.4216550000000  0.5334020000000  0.4421470000000 1.0
C      1  0.4856330000000  0.4482200000000  0.5638170000000 1.0
C      1  0.6148490000000  0.5451260000000  0.4506570000000 1.0
C      1  0.5081900000000  0.4318560000000  0.4316250000000 1.0
C      1  0.5127680000000  0.5363530000000  0.5509050000000 1.0
C      1  0.5697030000000  0.4984690000000  0.5532570000000 1.0
C      1  0.4732840000000  0.6086060000000  0.4772140000000 1.0
C      1  0.5856960000000  0.4322710000000  0.5044380000000 1.0
C      1  0.5078060000000  0.4088410000000  0.5814620000000 1.0
C      1  0.4948760000000  0.5823840000000  0.5606640000000 1.0
C      1  0.4568350000000  0.5260120000000  0.4944500000000 1.0
C      1  0.4755150000000  0.5418460000000  0.5926230000000 1.0
C      1  0.5092230000000  0.3933940000000  0.4800520000000 1.0
C      1  0.4071550000000  0.4646450000000  0.4769720000000 1.0
C      1  0.5309100000000  0.5875250000000  0.4884540000000 1.0
C      1  0.3986820000000  0.5291140000000  0.5553120000000 1.0
C      1  0.5694190000000  0.5276530000000  0.5029700000000 1.0
C      1  0.4588640000000  0.5094840000000  0.4302600000000 1.0
C      1  0.4049520000000  0.5886450000000  0.4761210000000 1.0
C      1  0.3896470000000  0.5339540000000  0.4796230000000 1.0
C      1  0.4082250000000  0.4562500000000  0.5292240000000 1.0
C      1  0.4109080000000  0.5750400000000  0.5003380000000 1.0
C      1  0.6198970000000  0.5200670000000  0.4597800000000 1.0
C      1  0.4383150000000  0.4448310000000  0.5730680000000 1.0
C      1  0.4279190000000  0.4219720000000  0.5002570000000 1.0
C      1  0.4847490000000  0.4188060000000  0.4416720000000 1.0
C      1  0.5850130000000  0.4579140000000  0.4935980000000 1.0
C      1  0.5252400000000  0.4987210000000  0.3789070000000 1.0
C      1  0.5857630000000  0.5060430000000  0.4939940000000 1.0
C      1  0.6049750000000  0.3975240000000  0.4764190000000 1.0
C      1  0.4947850000000  0.4776490000000  0.4225680000000 1.0
C      1  0.5707740000000  0.4385950000000  0.5941550000000 1.0
C      1  0.6068980000000  0.5611360000000  0.4967220000000 1.0
C      1  0.5577250000000  0.3971120000000  0.4872540000000 1.0
C      1  0.5607860000000  0.5815470000000  0.4885370000000 1.0
C      1  0.4622320000000  0.5233180000000  0.5403500000000 1.0
C      1  0.5572440000000  0.5474440000000  0.5453830000000 1.0
C      1  0.5155580000000  0.4494310000000  0.4857460000000 1.0
C      1  0.4106570000000  0.4848280000000  0.5305440000000 1.0
C      1  0.4499650000000  0.5296390000000  0.5858710000000 1.0
C      1  0.4359590000000  0.4915470000000  0.5199690000000 1.0
C      1  0.4335990000000  0.5776740000000  0.5178140000000 1.0
END
