TITL C-599893-4344-949 15854.3858271077 125000 -1210.25275256299 0 0 194 (C1) n - 1
REM
REM in /home/nfs/bkarasulu/CARBON/AIRSS/Generating-Clusters/TERSOFF/Only-C1/FIRE-HFTN
REM
REM
REM
REM
REM
REM ./C.cell (11c1c37f851c82e70ff6c80c92926a4b)
REM AIRSS Version 0.9.1 bugfix July 2018 build 013d7b7c2542+ Fri, 06 Jul 2018 19:26:36 +0100
REM compiler GCC version 9.2.1 20190827 (Red Hat 9.2.1-1)
REM options -cpp -mtune=generic -march=x86-64 -g -O0 -fpre-include=/usr/include/finclude/math-vector-fortran.h
REM seed 1168186740 552765125 -298120192 -1012026758 -483394361 664174 1036513587 389596850 1615968450 208411386 -210701888 487870788 -306528355 -1176400733 -1321811455 1914785994 -629434739 1404283995 1955057955 -1149787966 -1433229269 -1743620714 -1377452329 -1504229280 215151234 -1839663020 222366457 1950031240 1079652510 -2053491716 -977937483 1575998132 529885676
REM
CELL 1.54180   50.00000   50.00000   50.00000   90.00000   90.00000   90.00000
LATT -1
SFAC C  
C      1  0.4951860000000  0.3919600000000  0.5841080000000 1.0
C      1  0.4548010000000  0.5539080000000  0.5016300000000 1.0
C      1  0.4040530000000  0.5144070000000  0.5226370000000 1.0
C      1  0.3922040000000  0.4817080000000  0.5931270000000 1.0
C      1  0.4077150000000  0.4853380000000  0.4396330000000 1.0
C      1  0.3937850000000  0.4934210000000  0.4653010000000 1.0
C      1  0.5471460000000  0.4723450000000  0.5818660000000 1.0
C      1  0.5691000000000  0.5715210000000  0.4575210000000 1.0
C      1  0.5231150000000  0.4967180000000  0.4974310000000 1.0
C      1  0.5550970000000  0.4582060000000  0.4533550000000 1.0
C      1  0.5164760000000  0.5518760000000  0.5538220000000 1.0
C      1  0.5781700000000  0.3942780000000  0.5061050000000 1.0
C      1  0.5723050000000  0.4107370000000  0.5290420000000 1.0
C      1  0.4302610000000  0.5745190000000  0.4380530000000 1.0
C      1  0.4616430000000  0.4042560000000  0.4492310000000 1.0
C      1  0.4900910000000  0.4984520000000  0.5378390000000 1.0
C      1  0.5283680000000  0.5555870000000  0.5044270000000 1.0
C      1  0.5265320000000  0.5184540000000  0.4422840000000 1.0
C      1  0.5179610000000  0.4416770000000  0.4121300000000 1.0
C      1  0.5450790000000  0.4215400000000  0.5266000000000 1.0
C      1  0.5580950000000  0.4995680000000  0.5292090000000 1.0
C      1  0.4767580000000  0.5255190000000  0.4348450000000 1.0
C      1  0.5879870000000  0.5143870000000  0.4291920000000 1.0
C      1  0.3949210000000  0.4568900000000  0.5837610000000 1.0
C      1  0.5111220000000  0.6425020000000  0.4935090000000 1.0
C      1  0.5787310000000  0.4384260000000  0.5689320000000 1.0
C      1  0.4421260000000  0.3891630000000  0.4634370000000 1.0
C      1  0.5418910000000  0.6084300000000  0.4808310000000 1.0
C      1  0.5195320000000  0.5262630000000  0.5638470000000 1.0
C      1  0.5342960000000  0.4391430000000  0.4571060000000 1.0
C      1  0.5610890000000  0.5115510000000  0.6373430000000 1.0
C      1  0.4743190000000  0.4236360000000  0.4649480000000 1.0
C      1  0.4770280000000  0.4707630000000  0.6161910000000 1.0
C      1  0.5270040000000  0.4243150000000  0.4337930000000 1.0
C      1  0.5116390000000  0.4726270000000  0.5070350000000 1.0
C      1  0.6082640000000  0.4484970000000  0.5331720000000 1.0
C      1  0.4702420000000  0.4765160000000  0.4513210000000 1.0
C      1  0.5731160000000  0.4873930000000  0.3899310000000 1.0
C      1  0.5739790000000  0.4293110000000  0.5965130000000 1.0
C      1  0.4442290000000  0.4692640000000  0.4625300000000 1.0
C      1  0.5059130000000  0.4223090000000  0.4992310000000 1.0
C      1  0.4835540000000  0.4884140000000  0.4759030000000 1.0
C      1  0.5622930000000  0.5595290000000  0.4064620000000 1.0
C      1  0.5476310000000  0.5993360000000  0.5442410000000 1.0
C      1  0.5510090000000  0.5669500000000  0.5890910000000 1.0
C      1  0.6333970000000  0.4581540000000  0.3674110000000 1.0
C      1  0.4963010000000  0.5102340000000  0.5631790000000 1.0
C      1  0.4102730000000  0.4414620000000  0.5657300000000 1.0
C      1  0.4670830000000  0.5688350000000  0.5697490000000 1.0
C      1  0.4564120000000  0.4338260000000  0.5105820000000 1.0
C      1  0.5251080000000  0.6078690000000  0.4581500000000 1.0
C      1  0.4519600000000  0.5485650000000  0.5548730000000 1.0
C      1  0.4392360000000  0.3616960000000  0.4603770000000 1.0
C      1  0.4079580000000  0.5291100000000  0.5460740000000 1.0
C      1  0.4915180000000  0.6443000000000  0.4747500000000 1.0
C      1  0.4702610000000  0.5114350000000  0.5217430000000 1.0
C      1  0.5049860000000  0.5533880000000  0.3968120000000 1.0
C      1  0.4951660000000  0.5827990000000  0.4314890000000 1.0
C      1  0.4508440000000  0.4603240000000  0.5554550000000 1.0
C      1  0.5753200000000  0.5441010000000  0.4947130000000 1.0
C      1  0.6198610000000  0.5055300000000  0.4684040000000 1.0
C      1  0.3889160000000  0.4655310000000  0.4867450000000 1.0
C      1  0.4905880000000  0.4802100000000  0.4309150000000 1.0
C      1  0.4942190000000  0.4583040000000  0.4130880000000 1.0
C      1  0.4807830000000  0.4537720000000  0.5941330000000 1.0
C      1  0.3917080000000  0.4629540000000  0.5173760000000 1.0
C      1  0.4744910000000  0.5581710000000  0.3968630000000 1.0
C      1  0.4301520000000  0.5477740000000  0.4465810000000 1.0
C      1  0.5717260000000  0.5035640000000  0.6597690000000 1.0
C      1  0.5755510000000  0.4948040000000  0.3421690000000 1.0
C      1  0.5277980000000  0.6212680000000  0.5031710000000 1.0
C      1  0.4955930000000  0.5334970000000  0.4787520000000 1.0
C      1  0.4707560000000  0.5796560000000  0.4975070000000 1.0
C      1  0.4629080000000  0.4303230000000  0.5917810000000 1.0
C      1  0.4910730000000  0.4635260000000  0.4897390000000 1.0
C      1  0.5232560000000  0.3976600000000  0.5831840000000 1.0
C      1  0.5395310000000  0.3985720000000  0.4377850000000 1.0
C      1  0.5890140000000  0.5629390000000  0.5105560000000 1.0
C      1  0.4633960000000  0.4060690000000  0.4211890000000 1.0
C      1  0.4792730000000  0.5159390000000  0.3741880000000 1.0
C      1  0.5698390000000  0.4591350000000  0.4295280000000 1.0
C      1  0.4675260000000  0.6296910000000  0.4715150000000 1.0
C      1  0.4165490000000  0.4386160000000  0.4270910000000 1.0
C      1  0.3834010000000  0.5443240000000  0.4339800000000 1.0
C      1  0.5488920000000  0.5000730000000  0.5904850000000 1.0
C      1  0.4384110000000  0.5189290000000  0.4023070000000 1.0
C      1  0.4006520000000  0.4456460000000  0.4703260000000 1.0
C      1  0.4190060000000  0.4579040000000  0.4493590000000 1.0
C      1  0.5118370000000  0.5624090000000  0.4228230000000 1.0
C      1  0.5022520000000  0.4734830000000  0.5328140000000 1.0
C      1  0.4623820000000  0.5041700000000  0.4919780000000 1.0
C      1  0.4915710000000  0.6036280000000  0.5342390000000 1.0
C      1  0.4815940000000  0.4091160000000  0.6030950000000 1.0
C      1  0.4608850000000  0.5388560000000  0.5286000000000 1.0
C      1  0.4492850000000  0.5943330000000  0.4320340000000 1.0
C      1  0.4487690000000  0.5119380000000  0.6292040000000 1.0
C      1  0.4013050000000  0.5066670000000  0.5946560000000 1.0
C      1  0.5702600000000  0.6050690000000  0.5260190000000 1.0
C      1  0.5286490000000  0.4304640000000  0.4830430000000 1.0
C      1  0.4492370000000  0.4569010000000  0.5271850000000 1.0
C      1  0.5621570000000  0.4647550000000  0.4029500000000 1.0
C      1  0.5782000000000  0.5456910000000  0.4671760000000 1.0
C      1  0.5416590000000  0.5470390000000  0.6078300000000 1.0
C      1  0.6113080000000  0.4717160000000  0.3646240000000 1.0
C      1  0.4213100000000  0.5261620000000  0.5914860000000 1.0
C      1  0.4929220000000  0.5789710000000  0.4792390000000 1.0
C      1  0.5010110000000  0.5935990000000  0.4563170000000 1.0
C      1  0.5551140000000  0.5642830000000  0.4337870000000 1.0
C      1  0.4557040000000  0.6233640000000  0.4986720000000 1.0
C      1  0.4555190000000  0.5350620000000  0.4519480000000 1.0
C      1  0.5205010000000  0.5623290000000  0.5299820000000 1.0
C      1  0.4855160000000  0.3856310000000  0.5586690000000 1.0
C      1  0.5465670000000  0.5174280000000  0.5678800000000 1.0
C      1  0.4372440000000  0.5325160000000  0.6139510000000 1.0
C      1  0.4038990000000  0.5374770000000  0.4508790000000 1.0
C      1  0.5596300000000  0.5802260000000  0.5651990000000 1.0
C      1  0.5058670000000  0.5076670000000  0.4783460000000 1.0
C      1  0.4381690000000  0.3357080000000  0.4586510000000 1.0
C      1  0.4008120000000  0.4400480000000  0.5370750000000 1.0
C      1  0.4802860000000  0.4357250000000  0.4914250000000 1.0
C      1  0.4283440000000  0.4936000000000  0.4127390000000 1.0
C      1  0.5493560000000  0.5371840000000  0.5026200000000 1.0
C      1  0.4349660000000  0.4144890000000  0.5068470000000 1.0
C      1  0.6128400000000  0.5062900000000  0.4417950000000 1.0
C      1  0.5507160000000  0.5191990000000  0.6126110000000 1.0
C      1  0.5434990000000  0.5108990000000  0.5090600000000 1.0
C      1  0.4554930000000  0.4848580000000  0.5691710000000 1.0
C      1  0.4066140000000  0.5296390000000  0.4985130000000 1.0
C      1  0.4696730000000  0.5670280000000  0.5983080000000 1.0
C      1  0.5339470000000  0.4223820000000  0.5806370000000 1.0
C      1  0.4416060000000  0.4715100000000  0.4006500000000 1.0
C      1  0.4230800000000  0.6199930000000  0.4653630000000 1.0
C      1  0.5536490000000  0.5340940000000  0.3947760000000 1.0
C      1  0.5800140000000  0.5895510000000  0.5042940000000 1.0
C      1  0.4273650000000  0.6227600000000  0.4926890000000 1.0
C      1  0.5132240000000  0.4209090000000  0.5294750000000 1.0
C      1  0.5597960000000  0.4629470000000  0.5033290000000 1.0
C      1  0.5020060000000  0.4534280000000  0.5751470000000 1.0
C      1  0.4130500000000  0.4174330000000  0.5246280000000 1.0
C      1  0.5905810000000  0.4281360000000  0.5444680000000 1.0
C      1  0.5958360000000  0.5534270000000  0.5366010000000 1.0
C      1  0.5001880000000  0.5077320000000  0.4323420000000 1.0
C      1  0.4335940000000  0.4765270000000  0.5139590000000 1.0
C      1  0.5481490000000  0.4377190000000  0.5021390000000 1.0
C      1  0.5724670000000  0.5124620000000  0.4037010000000 1.0
C      1  0.5168250000000  0.5544740000000  0.6189450000000 1.0
C      1  0.5027580000000  0.4164290000000  0.6235510000000 1.0
C      1  0.4979550000000  0.3967970000000  0.5376430000000 1.0
C      1  0.5559660000000  0.4798790000000  0.4715340000000 1.0
C      1  0.5283180000000  0.4505970000000  0.5849590000000 1.0
C      1  0.4272500000000  0.5364750000000  0.5652670000000 1.0
C      1  0.5656690000000  0.5922070000000  0.4789000000000 1.0
C      1  0.6100010000000  0.5035810000000  0.5232490000000 1.0
C      1  0.4300070000000  0.4367460000000  0.4039580000000 1.0
C      1  0.4609040000000  0.5326770000000  0.3895720000000 1.0
C      1  0.4816610000000  0.5897700000000  0.5571520000000 1.0
C      1  0.5558710000000  0.3885900000000  0.4574400000000 1.0
C      1  0.5865690000000  0.4848060000000  0.3651210000000 1.0
C      1  0.4264550000000  0.4043240000000  0.4815600000000 1.0
C      1  0.4707900000000  0.4511810000000  0.3996050000000 1.0
C      1  0.5724350000000  0.5224360000000  0.4519910000000 1.0
C      1  0.4710500000000  0.6038670000000  0.5128570000000 1.0
C      1  0.3986640000000  0.5202090000000  0.4729570000000 1.0
C      1  0.4245340000000  0.5521990000000  0.4996120000000 1.0
C      1  0.4400480000000  0.4386260000000  0.5724330000000 1.0
C      1  0.6128790000000  0.4755530000000  0.5313230000000 1.0
C      1  0.4486870000000  0.6171880000000  0.4507030000000 1.0
C      1  0.6171510000000  0.5080530000000  0.4954030000000 1.0
C      1  0.5949900000000  0.5244590000000  0.5400030000000 1.0
C      1  0.4480340000000  0.5582610000000  0.6137830000000 1.0
C      1  0.4407280000000  0.4843980000000  0.4881430000000 1.0
C      1  0.5696800000000  0.3881150000000  0.4808930000000 1.0
C      1  0.5387200000000  0.4511580000000  0.3950190000000 1.0
C      1  0.5242930000000  0.5337340000000  0.3854920000000 1.0
C      1  0.4649530000000  0.5328490000000  0.4802750000000 1.0
C      1  0.4943910000000  0.5665890000000  0.6112970000000 1.0
C      1  0.5562990000000  0.4244770000000  0.6177070000000 1.0
C      1  0.5856680000000  0.5699450000000  0.5572700000000 1.0
C      1  0.5089160000000  0.5567170000000  0.4846400000000 1.0
C      1  0.5067540000000  0.5149180000000  0.3723930000000 1.0
C      1  0.5644800000000  0.4628090000000  0.5599140000000 1.0
C      1  0.4640880000000  0.4900520000000  0.6293600000000 1.0
C      1  0.5685280000000  0.5160740000000  0.5492190000000 1.0
C      1  0.5216080000000  0.6087630000000  0.5297710000000 1.0
C      1  0.4084290000000  0.4864230000000  0.5228930000000 1.0
C      1  0.5302080000000  0.4206130000000  0.6270090000000 1.0
C      1  0.5495510000000  0.5056740000000  0.4573570000000 1.0
C      1  0.4704770000000  0.5823920000000  0.4165850000000 1.0
C      1  0.5308560000000  0.5477980000000  0.4374530000000 1.0
C      1  0.4735930000000  0.5030410000000  0.5784070000000 1.0
C      1  0.4031110000000  0.4177210000000  0.4726760000000 1.0
C      1  0.5022400000000  0.4496320000000  0.5470250000000 1.0
C      1  0.5624380000000  0.4721000000000  0.5312330000000 1.0
C      1  0.4564970000000  0.4259050000000  0.4027210000000 1.0
END
