TITL C-599897-7526-1175 0.442193255546133 125000 -512.465534450993 0 0 84 (C1) n - 1
REM
REM in /home/nfs/bkarasulu/CARBON/AIRSS/Generating-Clusters/TERSOFF/Only-C1/FIRE-HFTN
REM
REM
REM
REM
REM
REM ./C.cell (11c1c37f851c82e70ff6c80c92926a4b)
REM AIRSS Version 0.9.1 bugfix July 2018 build 013d7b7c2542+ Fri, 06 Jul 2018 19:26:36 +0100
REM compiler GCC version 9.2.1 20190827 (Red Hat 9.2.1-1)
REM options -cpp -mtune=generic -march=x86-64 -g -O0 -fpre-include=/usr/include/finclude/math-vector-fortran.h
REM seed 1666943124 -1761767736 1206993291 -209125702 -685813160 2014543613 -1814929963 -422717296 81139527 417453555 -1128714821 1217282625 -567717779 -653437217 -2009475064 1383357599 -1172247968 -2072796081 1605320198 -1629464371 -1979240088 -1795663991 515979384 -642550361 -1206325342 -1821377277 901918690 1459122756 -1641722994 1977573585 1152022689 -492033071 257507151
REM
CELL 1.54180   50.00000   50.00000   50.00000   90.00000   90.00000   90.00000
LATT -1
SFAC C  
C      1  0.5316600000000  0.5680460000000  0.5378380000000 1.0
C      1  0.4697770000000  0.5085900000000  0.4852640000000 1.0
C      1  0.4793050000000  0.4776250000000  0.5944790000000 1.0
C      1  0.5125890000000  0.5565010000000  0.4624780000000 1.0
C      1  0.4388260000000  0.5458490000000  0.5481010000000 1.0
C      1  0.4815770000000  0.4853140000000  0.4742190000000 1.0
C      1  0.5043300000000  0.4944570000000  0.5263230000000 1.0
C      1  0.5553800000000  0.4082410000000  0.4257350000000 1.0
C      1  0.5040960000000  0.4141980000000  0.4772540000000 1.0
C      1  0.5036000000000  0.4705840000000  0.4840970000000 1.0
C      1  0.5785330000000  0.5606840000000  0.5266330000000 1.0
C      1  0.4875830000000  0.5042180000000  0.5902810000000 1.0
C      1  0.5194780000000  0.4585980000000  0.4635990000000 1.0
C      1  0.5088780000000  0.5788150000000  0.4793510000000 1.0
C      1  0.4214130000000  0.4301960000000  0.5634340000000 1.0
C      1  0.5588450000000  0.5143250000000  0.4963660000000 1.0
C      1  0.4730790000000  0.4520960000000  0.4095790000000 1.0
C      1  0.4722490000000  0.5354370000000  0.4770240000000 1.0
C      1  0.5370300000000  0.5427590000000  0.4627890000000 1.0
C      1  0.5255480000000  0.5112980000000  0.5351670000000 1.0
C      1  0.5717730000000  0.4589310000000  0.5283610000000 1.0
C      1  0.5387590000000  0.4185170000000  0.4429750000000 1.0
C      1  0.4435430000000  0.4451440000000  0.5656560000000 1.0
C      1  0.4806940000000  0.4703460000000  0.4283220000000 1.0
C      1  0.3970020000000  0.6933220000000  0.4887200000000 1.0
C      1  0.4829930000000  0.5292900000000  0.4301290000000 1.0
C      1  0.5139620000000  0.4460130000000  0.5830420000000 1.0
C      1  0.4711230000000  0.4427930000000  0.5598310000000 1.0
C      1  0.5476830000000  0.4489410000000  0.5334960000000 1.0
C      1  0.4553800000000  0.5250070000000  0.4244940000000 1.0
C      1  0.4784470000000  0.4260580000000  0.5371550000000 1.0
C      1  0.4575910000000  0.5558150000000  0.4894880000000 1.0
C      1  0.5049510000000  0.4257770000000  0.5257500000000 1.0
C      1  0.4391010000000  0.4874130000000  0.4528910000000 1.0
C      1  0.6236550000000  0.5007150000000  0.4707120000000 1.0
C      1  0.4176930000000  0.6457370000000  0.4971950000000 1.0
C      1  0.6080380000000  0.5130820000000  0.4901370000000 1.0
C      1  0.4498750000000  0.5022530000000  0.5269190000000 1.0
C      1  0.4581430000000  0.4133480000000  0.4937800000000 1.0
C      1  0.5460190000000  0.4968400000000  0.4517500000000 1.0
C      1  0.6025830000000  0.5566360000000  0.5158730000000 1.0
C      1  0.4351110000000  0.5196320000000  0.5432860000000 1.0
C      1  0.5849680000000  0.4775930000000  0.5148240000000 1.0
C      1  0.5266240000000  0.4780640000000  0.4436500000000 1.0
C      1  0.6512210000000  0.4756890000000  0.4330030000000 1.0
C      1  0.4391370000000  0.3673810000000  0.5305040000000 1.0
C      1  0.4836060000000  0.5656800000000  0.5469690000000 1.0
C      1  0.6147150000000  0.5381190000000  0.5009110000000 1.0
C      1  0.6375010000000  0.4882530000000  0.4518830000000 1.0
C      1  0.5105870000000  0.4713550000000  0.5114040000000 1.0
C      1  0.4361400000000  0.5082970000000  0.4337960000000 1.0
C      1  0.4272980000000  0.4897000000000  0.4796230000000 1.0
C      1  0.4568970000000  0.5644290000000  0.5368140000000 1.0
C      1  0.4019380000000  0.4816150000000  0.4854870000000 1.0
C      1  0.5114820000000  0.4084940000000  0.5041390000000 1.0
C      1  0.5049950000000  0.4858470000000  0.4261930000000 1.0
C      1  0.4281240000000  0.6217550000000  0.5014670000000 1.0
C      1  0.4771300000000  0.4973870000000  0.5339690000000 1.0
C      1  0.4895200000000  0.5498920000000  0.5698810000000 1.0
C      1  0.4761040000000  0.4128560000000  0.4736770000000 1.0
C      1  0.5452180000000  0.5249410000000  0.5193890000000 1.0
C      1  0.4893650000000  0.5417340000000  0.4550760000000 1.0
C      1  0.5171570000000  0.5222480000000  0.3958730000000 1.0
C      1  0.6647150000000  0.4633290000000  0.4144330000000 1.0
C      1  0.4658250000000  0.4758400000000  0.4520300000000 1.0
C      1  0.5522310000000  0.5514450000000  0.5285100000000 1.0
C      1  0.5210440000000  0.4303160000000  0.4609730000000 1.0
C      1  0.4624080000000  0.4721580000000  0.6154120000000 1.0
C      1  0.5009350000000  0.5251550000000  0.5772680000000 1.0
C      1  0.5209270000000  0.4491260000000  0.5256780000000 1.0
C      1  0.4454240000000  0.5011500000000  0.4988770000000 1.0
C      1  0.4190910000000  0.4069800000000  0.5500880000000 1.0
C      1  0.4072620000000  0.6697270000000  0.4929220000000 1.0
C      1  0.4386710000000  0.5978430000000  0.5057620000000 1.0
C      1  0.5030430000000  0.5854030000000  0.5047050000000 1.0
C      1  0.4888430000000  0.4558830000000  0.5782040000000 1.0
C      1  0.4580030000000  0.4116120000000  0.5220550000000 1.0
C      1  0.5239330000000  0.5178540000000  0.5626090000000 1.0
C      1  0.4385600000000  0.3944340000000  0.5340640000000 1.0
C      1  0.5053850000000  0.5755120000000  0.5310280000000 1.0
C      1  0.4508360000000  0.5732500000000  0.5104120000000 1.0
C      1  0.5840560000000  0.5011310000000  0.4998200000000 1.0
C      1  0.5023200000000  0.5128010000000  0.4167760000000 1.0
C      1  0.5488660000000  0.5182840000000  0.4698730000000 1.0
END
