TITL C-599890-3321-30 -1809.19959170381 125000 -724.12570066451 0 0 117 (C1) n - 1
REM
REM in /home/nfs/bkarasulu/CARBON/AIRSS/Generating-Clusters/TERSOFF/Only-C1/FIRE-HFTN
REM
REM
REM
REM
REM
REM ./C.cell (11c1c37f851c82e70ff6c80c92926a4b)
REM AIRSS Version 0.9.1 bugfix July 2018 build 013d7b7c2542+ Fri, 06 Jul 2018 19:26:36 +0100
REM compiler GCC version 9.2.1 20190827 (Red Hat 9.2.1-1)
REM options -cpp -mtune=generic -march=x86-64 -g -O0 -fpre-include=/usr/include/finclude/math-vector-fortran.h
REM seed 1931790611 -1341050636 779305469 1550229595 355136277 1495139491 1749960978 853418917 -1681598676 -26669993 -360983044 -757032489 -1358074894 1655397476 -1265171274 -1539967304 -1269470001 -1238798680 578631248 -1570343835 -1324208308 1811745745 2023598964 -1978440115 889394133 2058985058 -417344685 612392345 -1396213427 -926392896 -731524022 -1273593699 -221997377
REM
CELL 1.54180   50.00000   50.00000   50.00000   90.00000   90.00000   90.00000
LATT -1
SFAC C  
C      1  0.4343020000000  0.5281250000000  0.4538300000000 1.0
C      1  0.4631110000000  0.4497490000000  0.5733880000000 1.0
C      1  0.5593840000000  0.4920190000000  0.5756250000000 1.0
C      1  0.4414730000000  0.5193350000000  0.4281080000000 1.0
C      1  0.5249060000000  0.4001220000000  0.5247390000000 1.0
C      1  0.4616010000000  0.4975490000000  0.5315530000000 1.0
C      1  0.5361750000000  0.5710300000000  0.4607870000000 1.0
C      1  0.5620000000000  0.4429430000000  0.5758420000000 1.0
C      1  0.4532120000000  0.5943990000000  0.5241080000000 1.0
C      1  0.5087210000000  0.5252580000000  0.4820130000000 1.0
C      1  0.3964610000000  0.5059880000000  0.5117490000000 1.0
C      1  0.4502000000000  0.4605630000000  0.4642110000000 1.0
C      1  0.5363140000000  0.5060080000000  0.4034180000000 1.0
C      1  0.4918270000000  0.4607080000000  0.5774850000000 1.0
C      1  0.5621780000000  0.4193790000000  0.4634360000000 1.0
C      1  0.4451300000000  0.4698980000000  0.5630260000000 1.0
C      1  0.5739490000000  0.4758940000000  0.4623590000000 1.0
C      1  0.5760420000000  0.5063810000000  0.4653150000000 1.0
C      1  0.4904080000000  0.4145890000000  0.5823780000000 1.0
C      1  0.4368450000000  0.5802040000000  0.5051080000000 1.0
C      1  0.4334190000000  0.5712300000000  0.4780420000000 1.0
C      1  0.4908630000000  0.5192140000000  0.5030990000000 1.0
C      1  0.4085810000000  0.4795960000000  0.5203700000000 1.0
C      1  0.5627410000000  0.5260380000000  0.4452880000000 1.0
C      1  0.4399690000000  0.6110080000000  0.5424140000000 1.0
C      1  0.5621500000000  0.4350740000000  0.4869270000000 1.0
C      1  0.4958050000000  0.4680790000000  0.5141260000000 1.0
C      1  0.5202220000000  0.5750400000000  0.4370260000000 1.0
C      1  0.5419500000000  0.4717030000000  0.5349500000000 1.0
C      1  0.5215350000000  0.5302590000000  0.5422620000000 1.0
C      1  0.4735950000000  0.5017430000000  0.4642770000000 1.0
C      1  0.5302760000000  0.5835090000000  0.5124510000000 1.0
C      1  0.5443100000000  0.4334480000000  0.4460540000000 1.0
C      1  0.4707280000000  0.3884160000000  0.5348310000000 1.0
C      1  0.4974140000000  0.5179690000000  0.4546850000000 1.0
C      1  0.5308570000000  0.5877120000000  0.4152270000000 1.0
C      1  0.4547920000000  0.4082790000000  0.5474460000000 1.0
C      1  0.5359780000000  0.4408570000000  0.5000400000000 1.0
C      1  0.4935690000000  0.5658230000000  0.4369240000000 1.0
C      1  0.5334040000000  0.4208500000000  0.5428550000000 1.0
C      1  0.5381150000000  0.4883400000000  0.5570090000000 1.0
C      1  0.4768250000000  0.5475690000000  0.5372310000000 1.0
C      1  0.5638880000000  0.4679110000000  0.5899900000000 1.0
C      1  0.4640450000000  0.4808260000000  0.4102920000000 1.0
C      1  0.5042920000000  0.5535190000000  0.5425150000000 1.0
C      1  0.4485200000000  0.5287060000000  0.4997000000000 1.0
C      1  0.4722770000000  0.5394550000000  0.5107950000000 1.0
C      1  0.4275340000000  0.6266500000000  0.5598000000000 1.0
C      1  0.4420100000000  0.4908860000000  0.4256990000000 1.0
C      1  0.4759380000000  0.4729800000000  0.4652280000000 1.0
C      1  0.5586470000000  0.5528590000000  0.4584620000000 1.0
C      1  0.5407480000000  0.4921870000000  0.4899850000000 1.0
C      1  0.5025590000000  0.4628300000000  0.4695170000000 1.0
C      1  0.5733370000000  0.5629050000000  0.5701410000000 1.0
C      1  0.4402830000000  0.5114660000000  0.5202280000000 1.0
C      1  0.5547760000000  0.5189610000000  0.4188810000000 1.0
C      1  0.4307750000000  0.4776720000000  0.4492180000000 1.0
C      1  0.5547420000000  0.5845470000000  0.5262290000000 1.0
C      1  0.4623370000000  0.4058940000000  0.4894630000000 1.0
C      1  0.5132140000000  0.4928900000000  0.4139670000000 1.0
C      1  0.4771110000000  0.4069220000000  0.4651790000000 1.0
C      1  0.4544800000000  0.5840920000000  0.4608810000000 1.0
C      1  0.4819630000000  0.5931020000000  0.5260580000000 1.0
C      1  0.5678120000000  0.5777750000000  0.5486110000000 1.0
C      1  0.5072010000000  0.5793560000000  0.5292570000000 1.0
C      1  0.5825190000000  0.4413970000000  0.5553980000000 1.0
C      1  0.5713820000000  0.5249270000000  0.5184530000000 1.0
C      1  0.5148060000000  0.4980130000000  0.4420100000000 1.0
C      1  0.5494190000000  0.4628460000000  0.4490000000000 1.0
C      1  0.5559790000000  0.4819510000000  0.5123000000000 1.0
C      1  0.4028350000000  0.6576540000000  0.5943400000000 1.0
C      1  0.5912720000000  0.4550840000000  0.5335150000000 1.0
C      1  0.4736710000000  0.4148450000000  0.4381340000000 1.0
C      1  0.5069220000000  0.4061000000000  0.4714490000000 1.0
C      1  0.5815460000000  0.5250930000000  0.4907210000000 1.0
C      1  0.5759330000000  0.5147270000000  0.5697040000000 1.0
C      1  0.4524690000000  0.5181190000000  0.4735320000000 1.0
C      1  0.5356810000000  0.4301700000000  0.5705280000000 1.0
C      1  0.4214280000000  0.4713190000000  0.5455300000000 1.0
C      1  0.5010360000000  0.6000460000000  0.4785200000000 1.0
C      1  0.4369170000000  0.4489420000000  0.4872800000000 1.0
C      1  0.4915500000000  0.4892230000000  0.5680670000000 1.0
C      1  0.5763060000000  0.5389120000000  0.5848620000000 1.0
C      1  0.4149270000000  0.5408140000000  0.4709300000000 1.0
C      1  0.4847570000000  0.4939530000000  0.5154920000000 1.0
C      1  0.5332500000000  0.5187550000000  0.4937710000000 1.0
C      1  0.5379050000000  0.4445250000000  0.5282960000000 1.0
C      1  0.5097270000000  0.4368110000000  0.5814440000000 1.0
C      1  0.4160370000000  0.4678290000000  0.4944400000000 1.0
C      1  0.5148350000000  0.5048940000000  0.5576820000000 1.0
C      1  0.4799780000000  0.3924660000000  0.5085720000000 1.0
C      1  0.4646550000000  0.4210390000000  0.5705720000000 1.0
C      1  0.5250930000000  0.5853050000000  0.4841510000000 1.0
C      1  0.4743720000000  0.6000530000000  0.4745590000000 1.0
C      1  0.5081570000000  0.3970050000000  0.5011520000000 1.0
C      1  0.5807510000000  0.4577370000000  0.4848650000000 1.0
C      1  0.4980900000000  0.4469010000000  0.4085640000000 1.0
C      1  0.4437820000000  0.4249430000000  0.5003730000000 1.0
C      1  0.4024310000000  0.5152310000000  0.4836980000000 1.0
C      1  0.4874480000000  0.5375610000000  0.4340050000000 1.0
C      1  0.4382190000000  0.4213420000000  0.5282380000000 1.0
C      1  0.4118670000000  0.4876720000000  0.4711960000000 1.0
C      1  0.5795230000000  0.5389260000000  0.6119580000000 1.0
C      1  0.4639910000000  0.4919490000000  0.5585180000000 1.0
C      1  0.4977350000000  0.4259180000000  0.4269780000000 1.0
C      1  0.4919350000000  0.4745430000000  0.4070370000000 1.0
C      1  0.4621440000000  0.5354940000000  0.4176070000000 1.0
C      1  0.5788040000000  0.5520370000000  0.4791080000000 1.0
C      1  0.4540780000000  0.5632190000000  0.4141890000000 1.0
C      1  0.4150870000000  0.6422880000000  0.5772100000000 1.0
C      1  0.5263860000000  0.4783470000000  0.4601430000000 1.0
C      1  0.5823270000000  0.4695400000000  0.5106000000000 1.0
C      1  0.4662860000000  0.5781730000000  0.4353900000000 1.0
C      1  0.5092490000000  0.4521590000000  0.4946410000000 1.0
C      1  0.5418620000000  0.5285100000000  0.5198810000000 1.0
C      1  0.5186580000000  0.4205430000000  0.4467610000000 1.0
C      1  0.5841600000000  0.5178560000000  0.5425370000000 1.0
END
