TITL C-599892-9790-904 0.392586070809609 125000 -470.820268038131 0 0 78 (C1) n - 1
REM
REM in /home/nfs/bkarasulu/CARBON/AIRSS/Generating-Clusters/TERSOFF/Only-C1/FIRE-HFTN
REM
REM
REM
REM
REM
REM ./C.cell (11c1c37f851c82e70ff6c80c92926a4b)
REM AIRSS Version 0.9.1 bugfix July 2018 build 013d7b7c2542+ Fri, 06 Jul 2018 19:26:36 +0100
REM compiler GCC version 9.2.1 20190827 (Red Hat 9.2.1-1)
REM options -cpp -mtune=generic -march=x86-64 -g -O0 -fpre-include=/usr/include/finclude/math-vector-fortran.h
REM seed -636118954 970224657 1855911123 456210068 338152920 104018865 -618661878 1133848156 903467100 2128315010 -74541982 -228289024 -1562237022 -682732415 -1428368311 2105476437 -836136058 387413369 -169794212 -1573159416 -549787137 -1494896170 -1780517740 -1129096398 -1862042031 730880176 1685986441 -811187316 -1264454530 1915364284 -1874786504 -1547976342 1424611942
REM
CELL 1.54180   50.00000   50.00000   50.00000   90.00000   90.00000   90.00000
LATT -1
SFAC C  
C      1  0.4684360000000  0.5370470000000  0.5041140000000 1.0
C      1  0.4919890000000  0.4991530000000  0.5104160000000 1.0
C      1  0.4276260000000  0.5357990000000  0.5367370000000 1.0
C      1  0.5210070000000  0.4861120000000  0.4625820000000 1.0
C      1  0.4889690000000  0.5971240000000  0.4249140000000 1.0
C      1  0.5082230000000  0.6291940000000  0.4567760000000 1.0
C      1  0.6079400000000  0.4852090000000  0.4634520000000 1.0
C      1  0.4421330000000  0.5105850000000  0.5794630000000 1.0
C      1  0.4416200000000  0.4486280000000  0.5316560000000 1.0
C      1  0.5012290000000  0.3914080000000  0.5665200000000 1.0
C      1  0.4594050000000  0.3445600000000  0.4830250000000 1.0
C      1  0.5474180000000  0.4020280000000  0.5453530000000 1.0
C      1  0.4798830000000  0.4887230000000  0.4867790000000 1.0
C      1  0.4712240000000  0.3681950000000  0.4849970000000 1.0
C      1  0.5098700000000  0.5863180000000  0.4839580000000 1.0
C      1  0.5061520000000  0.5677820000000  0.5273150000000 1.0
C      1  0.4771290000000  0.5326300000000  0.4763690000000 1.0
C      1  0.4683210000000  0.4734580000000  0.5907400000000 1.0
C      1  0.5298440000000  0.5250930000000  0.5380790000000 1.0
C      1  0.4470010000000  0.5406350000000  0.4410060000000 1.0
C      1  0.5146160000000  0.5625310000000  0.4698300000000 1.0
C      1  0.5632940000000  0.4616450000000  0.4566760000000 1.0
C      1  0.4028700000000  0.5232780000000  0.5295500000000 1.0
C      1  0.4830130000000  0.3918130000000  0.4873030000000 1.0
C      1  0.4274370000000  0.4854690000000  0.5754100000000 1.0
C      1  0.5724370000000  0.5408250000000  0.5143330000000 1.0
C      1  0.5925310000000  0.5218840000000  0.5231920000000 1.0
C      1  0.4165020000000  0.5230690000000  0.4840380000000 1.0
C      1  0.5389320000000  0.4651480000000  0.4700740000000 1.0
C      1  0.4567750000000  0.4609330000000  0.5121220000000 1.0
C      1  0.6284410000000  0.4664610000000  0.5053430000000 1.0
C      1  0.4475820000000  0.3209180000000  0.4810590000000 1.0
C      1  0.6008320000000  0.5296300000000  0.4784370000000 1.0
C      1  0.4945460000000  0.6232710000000  0.4343030000000 1.0
C      1  0.5118840000000  0.5820140000000  0.4178870000000 1.0
C      1  0.5269350000000  0.4960430000000  0.5391530000000 1.0
C      1  0.5048800000000  0.5361820000000  0.4681350000000 1.0
C      1  0.5530010000000  0.4345380000000  0.5062680000000 1.0
C      1  0.5353040000000  0.5710200000000  0.5288670000000 1.0
C      1  0.5056410000000  0.4803650000000  0.5267210000000 1.0
C      1  0.5057700000000  0.4392970000000  0.5001680000000 1.0
C      1  0.5791110000000  0.5469780000000  0.4861820000000 1.0
C      1  0.5893970000000  0.4665270000000  0.4543200000000 1.0
C      1  0.4376050000000  0.5039150000000  0.4759160000000 1.0
C      1  0.4915750000000  0.5817890000000  0.5057450000000 1.0
C      1  0.5672150000000  0.5627200000000  0.4663510000000 1.0
C      1  0.4645660000000  0.5853220000000  0.4325920000000 1.0
C      1  0.5492480000000  0.5455220000000  0.5292940000000 1.0
C      1  0.4277540000000  0.5505010000000  0.4895840000000 1.0
C      1  0.4374510000000  0.5321380000000  0.5626130000000 1.0
C      1  0.4945050000000  0.4153090000000  0.4914540000000 1.0
C      1  0.4448580000000  0.4621190000000  0.5776080000000 1.0
C      1  0.5560880000000  0.5695970000000  0.4429480000000 1.0
C      1  0.3975230000000  0.5156720000000  0.5039150000000 1.0
C      1  0.4522030000000  0.4817690000000  0.4912500000000 1.0
C      1  0.4939040000000  0.4789300000000  0.4648640000000 1.0
C      1  0.4759360000000  0.3994150000000  0.5681520000000 1.0
C      1  0.6086990000000  0.5121730000000  0.5017190000000 1.0
C      1  0.5162340000000  0.6123670000000  0.4761220000000 1.0
C      1  0.6160760000000  0.4863260000000  0.4915790000000 1.0
C      1  0.5267460000000  0.3925440000000  0.5591480000000 1.0
C      1  0.4853340000000  0.5238150000000  0.5211980000000 1.0
C      1  0.5576430000000  0.4175790000000  0.5263130000000 1.0
C      1  0.4561780000000  0.5213440000000  0.4598200000000 1.0
C      1  0.4917350000000  0.4560420000000  0.5183570000000 1.0
C      1  0.5323530000000  0.4468000000000  0.4915000000000 1.0
C      1  0.4640340000000  0.5837460000000  0.4955740000000 1.0
C      1  0.6049680000000  0.5129310000000  0.4555680000000 1.0
C      1  0.4667700000000  0.5012130000000  0.5916040000000 1.0
C      1  0.4490710000000  0.5683230000000  0.4487090000000 1.0
C      1  0.5228470000000  0.5145450000000  0.4622820000000 1.0
C      1  0.4555750000000  0.4162670000000  0.5652760000000 1.0
C      1  0.4437790000000  0.5720940000000  0.4771050000000 1.0
C      1  0.4450130000000  0.4413130000000  0.5587470000000 1.0
C      1  0.5038550000000  0.5392850000000  0.5348920000000 1.0
C      1  0.5367040000000  0.5746940000000  0.4251130000000 1.0
C      1  0.4359530000000  0.2976650000000  0.4791250000000 1.0
C      1  0.4428530000000  0.5446960000000  0.5143410000000 1.0
END
