TITL C-599895-9959-1077 -389.235213580137 125000 -1013.94206441762 0 0 166 (C1) n - 1
REM
REM in /home/nfs/bkarasulu/CARBON/AIRSS/Generating-Clusters/TERSOFF/Only-C1/FIRE-HFTN
REM
REM
REM
REM
REM
REM ./C.cell (11c1c37f851c82e70ff6c80c92926a4b)
REM AIRSS Version 0.9.1 bugfix July 2018 build 013d7b7c2542+ Fri, 06 Jul 2018 19:26:36 +0100
REM compiler GCC version 9.2.1 20190827 (Red Hat 9.2.1-1)
REM options -cpp -mtune=generic -march=x86-64 -g -O0 -fpre-include=/usr/include/finclude/math-vector-fortran.h
REM seed -100837468 -698682956 31340698 -428225906 -2064370814 -140733776 -1855583509 657134359 -603011044 1375876647 740393515 1453330796 2107245854 1341340141 149787883 291361164 -1905620303 -1685637330 750747292 -310782786 -135781049 1166577111 273974653 -145042616 1210981987 22881689 -1080926237 367999979 1742273415 2104367772 -711753146 -1133172295 -566551927
REM
CELL 1.54180   50.00000   50.00000   50.00000   90.00000   90.00000   90.00000
LATT -1
SFAC C  
C      1  0.5990010000000  0.5670920000000  0.5355310000000 1.0
C      1  0.4118210000000  0.4162630000000  0.4623490000000 1.0
C      1  0.4997170000000  0.4813450000000  0.4738770000000 1.0
C      1  0.5734770000000  0.4454230000000  0.5606260000000 1.0
C      1  0.4461630000000  0.5743500000000  0.5301620000000 1.0
C      1  0.4107420000000  0.5497760000000  0.5077790000000 1.0
C      1  0.4958080000000  0.5416940000000  0.5242220000000 1.0
C      1  0.5963390000000  0.5929780000000  0.5238940000000 1.0
C      1  0.4686400000000  0.4381350000000  0.5026070000000 1.0
C      1  0.5202560000000  0.5977840000000  0.4570450000000 1.0
C      1  0.5805920000000  0.5523550000000  0.3808780000000 1.0
C      1  0.4799600000000  0.5072100000000  0.4014050000000 1.0
C      1  0.5342920000000  0.5809410000000  0.5180190000000 1.0
C      1  0.5411770000000  0.4724010000000  0.5386830000000 1.0
C      1  0.4867770000000  0.5000620000000  0.5771880000000 1.0
C      1  0.5811040000000  0.5323080000000  0.5625360000000 1.0
C      1  0.4117460000000  0.4835870000000  0.5543240000000 1.0
C      1  0.6031860000000  0.5420710000000  0.4944880000000 1.0
C      1  0.5101460000000  0.3707510000000  0.5407720000000 1.0
C      1  0.5214830000000  0.4899420000000  0.6100520000000 1.0
C      1  0.4782390000000  0.4797020000000  0.5972250000000 1.0
C      1  0.5001710000000  0.4913070000000  0.5000270000000 1.0
C      1  0.5968850000000  0.4467200000000  0.5018780000000 1.0
C      1  0.4473990000000  0.5357290000000  0.4168360000000 1.0
C      1  0.4816230000000  0.6235360000000  0.4950500000000 1.0
C      1  0.4839250000000  0.4512580000000  0.5970510000000 1.0
C      1  0.4254080000000  0.4385370000000  0.4495230000000 1.0
C      1  0.4895960000000  0.3824080000000  0.5555370000000 1.0
C      1  0.5291020000000  0.6098990000000  0.4813930000000 1.0
C      1  0.4633870000000  0.5024050000000  0.5612370000000 1.0
C      1  0.4682620000000  0.5523480000000  0.4854180000000 1.0
C      1  0.4683980000000  0.5536590000000  0.4079670000000 1.0
C      1  0.5109640000000  0.5379480000000  0.3785860000000 1.0
C      1  0.5533360000000  0.5207850000000  0.4492640000000 1.0
C      1  0.5086710000000  0.5563940000000  0.3583020000000 1.0
C      1  0.4303200000000  0.5851330000000  0.4559120000000 1.0
C      1  0.5890580000000  0.4108820000000  0.4536020000000 1.0
C      1  0.5213260000000  0.4638180000000  0.4690660000000 1.0
C      1  0.4386900000000  0.4772220000000  0.5005180000000 1.0
C      1  0.4507570000000  0.5183700000000  0.6157430000000 1.0
C      1  0.5250510000000  0.4880780000000  0.4215950000000 1.0
C      1  0.4531180000000  0.5488360000000  0.5768200000000 1.0
C      1  0.3906140000000  0.4945650000000  0.5034980000000 1.0
C      1  0.5142770000000  0.4208570000000  0.5225360000000 1.0
C      1  0.4223960000000  0.5206360000000  0.6212780000000 1.0
C      1  0.4675790000000  0.5376030000000  0.6016160000000 1.0
C      1  0.3749120000000  0.5176090000000  0.4973440000000 1.0
C      1  0.5413370000000  0.4018530000000  0.4550250000000 1.0
C      1  0.5284920000000  0.3779120000000  0.5188760000000 1.0
C      1  0.4539530000000  0.4892010000000  0.6091970000000 1.0
C      1  0.5873150000000  0.4208920000000  0.5108250000000 1.0
C      1  0.5659000000000  0.4036500000000  0.4680080000000 1.0
C      1  0.5462450000000  0.5375210000000  0.5977350000000 1.0
C      1  0.6129280000000  0.4450450000000  0.4784700000000 1.0
C      1  0.5515680000000  0.5389510000000  0.5179880000000 1.0
C      1  0.4461070000000  0.4482270000000  0.5676210000000 1.0
C      1  0.5096640000000  0.4387960000000  0.5941930000000 1.0
C      1  0.5352760000000  0.5223610000000  0.3798320000000 1.0
C      1  0.4890420000000  0.5348870000000  0.3964470000000 1.0
C      1  0.4356650000000  0.5936020000000  0.4843200000000 1.0
C      1  0.4449270000000  0.5436210000000  0.4703760000000 1.0
C      1  0.4403130000000  0.5329070000000  0.4441460000000 1.0
C      1  0.4734060000000  0.5346940000000  0.5074910000000 1.0
C      1  0.6088230000000  0.4287500000000  0.4573540000000 1.0
C      1  0.5362060000000  0.5371790000000  0.4651700000000 1.0
C      1  0.4192410000000  0.4865490000000  0.4345850000000 1.0
C      1  0.4850420000000  0.5749530000000  0.4951640000000 1.0
C      1  0.5879420000000  0.5580590000000  0.4788650000000 1.0
C      1  0.4933380000000  0.4386600000000  0.5181790000000 1.0
C      1  0.4478490000000  0.4547640000000  0.5177340000000 1.0
C      1  0.5055130000000  0.5198650000000  0.5655180000000 1.0
C      1  0.5121970000000  0.5740600000000  0.4468370000000 1.0
C      1  0.5217780000000  0.4282970000000  0.4121640000000 1.0
C      1  0.6015260000000  0.5678250000000  0.3794590000000 1.0
C      1  0.4877920000000  0.4848280000000  0.5238270000000 1.0
C      1  0.4781080000000  0.4368680000000  0.4314040000000 1.0
C      1  0.5380010000000  0.4938560000000  0.3756170000000 1.0
C      1  0.4498190000000  0.3817940000000  0.4721550000000 1.0
C      1  0.5675450000000  0.5757170000000  0.4776870000000 1.0
C      1  0.5090200000000  0.6180240000000  0.5016790000000 1.0
C      1  0.4555540000000  0.4355620000000  0.4492640000000 1.0
C      1  0.4503990000000  0.5090010000000  0.4033840000000 1.0
C      1  0.4261520000000  0.3924340000000  0.4659130000000 1.0
C      1  0.4270400000000  0.5766540000000  0.5074530000000 1.0
C      1  0.5110260000000  0.4203270000000  0.5725700000000 1.0
C      1  0.4560060000000  0.5162970000000  0.5167840000000 1.0
C      1  0.4257940000000  0.5306810000000  0.4886050000000 1.0
C      1  0.4938430000000  0.5251720000000  0.4496550000000 1.0
C      1  0.5027430000000  0.4212410000000  0.4327900000000 1.0
C      1  0.5591650000000  0.5368850000000  0.3828280000000 1.0
C      1  0.5203460000000  0.5510650000000  0.6010940000000 1.0
C      1  0.4352200000000  0.5061040000000  0.5013130000000 1.0
C      1  0.5755560000000  0.5596590000000  0.5517630000000 1.0
C      1  0.4704700000000  0.5992270000000  0.3929130000000 1.0
C      1  0.5352320000000  0.4476040000000  0.3987360000000 1.0
C      1  0.5528290000000  0.5629280000000  0.5337990000000 1.0
C      1  0.4088910000000  0.4979700000000  0.6127770000000 1.0
C      1  0.5136420000000  0.5737670000000  0.5855720000000 1.0
C      1  0.6057200000000  0.5406370000000  0.5227810000000 1.0
C      1  0.4634780000000  0.5814800000000  0.4127570000000 1.0
C      1  0.4955750000000  0.4869390000000  0.4146990000000 1.0
C      1  0.5119610000000  0.5596510000000  0.5052180000000 1.0
C      1  0.4971630000000  0.5354270000000  0.6101990000000 1.0
C      1  0.5227300000000  0.5072270000000  0.5008110000000 1.0
C      1  0.5066930000000  0.5101540000000  0.6207250000000 1.0
C      1  0.4252960000000  0.4674650000000  0.5747200000000 1.0
C      1  0.5651700000000  0.5200630000000  0.5832900000000 1.0
C      1  0.5201640000000  0.4681390000000  0.5556670000000 1.0
C      1  0.5473320000000  0.4761650000000  0.4676890000000 1.0
C      1  0.4725620000000  0.5837060000000  0.5227580000000 1.0
C      1  0.5521360000000  0.5949530000000  0.4954810000000 1.0
C      1  0.5127760000000  0.5461760000000  0.4513340000000 1.0
C      1  0.4968890000000  0.5442160000000  0.5520850000000 1.0
C      1  0.4853290000000  0.4072810000000  0.5695420000000 1.0
C      1  0.4360070000000  0.5049300000000  0.4484800000000 1.0
C      1  0.5144950000000  0.3987060000000  0.5042990000000 1.0
C      1  0.3828210000000  0.4472640000000  0.4887500000000 1.0
C      1  0.4822290000000  0.4619450000000  0.4184800000000 1.0
C      1  0.5008360000000  0.3966210000000  0.4791280000000 1.0
C      1  0.4580790000000  0.4921540000000  0.4592130000000 1.0
C      1  0.4630300000000  0.4447740000000  0.4754420000000 1.0
C      1  0.4906050000000  0.4599460000000  0.5393430000000 1.0
C      1  0.5962800000000  0.5173000000000  0.5400730000000 1.0
C      1  0.5550250000000  0.4264050000000  0.5546030000000 1.0
C      1  0.4647680000000  0.4327800000000  0.5831680000000 1.0
C      1  0.4164450000000  0.5342770000000  0.5365300000000 1.0
C      1  0.5569420000000  0.3818120000000  0.5157030000000 1.0
C      1  0.5369270000000  0.4759730000000  0.3979510000000 1.0
C      1  0.5758180000000  0.6064980000000  0.5117020000000 1.0
C      1  0.5439580000000  0.4928980000000  0.5162570000000 1.0
C      1  0.5318170000000  0.5369110000000  0.4949220000000 1.0
C      1  0.4669840000000  0.4997590000000  0.5345280000000 1.0
C      1  0.5496140000000  0.5159720000000  0.5339240000000 1.0
C      1  0.4758440000000  0.3839870000000  0.4773760000000 1.0
C      1  0.4384550000000  0.5525790000000  0.5505320000000 1.0
C      1  0.5332230000000  0.4807470000000  0.5860170000000 1.0
C      1  0.4641890000000  0.6137550000000  0.4511000000000 1.0
C      1  0.5783330000000  0.3814870000000  0.5354770000000 1.0
C      1  0.4596640000000  0.4552600000000  0.5442480000000 1.0
C      1  0.5277820000000  0.4210310000000  0.5490970000000 1.0
C      1  0.5317070000000  0.5163370000000  0.5557900000000 1.0
C      1  0.4111550000000  0.4652140000000  0.4519200000000 1.0
C      1  0.4290650000000  0.4899860000000  0.4074540000000 1.0
C      1  0.4060920000000  0.5040550000000  0.5348230000000 1.0
C      1  0.4523080000000  0.4712690000000  0.4762780000000 1.0
C      1  0.5599410000000  0.4911140000000  0.5795500000000 1.0
C      1  0.5765960000000  0.5292550000000  0.4378300000000 1.0
C      1  0.4592830000000  0.6136360000000  0.4801800000000 1.0
C      1  0.5134740000000  0.4062450000000  0.4551520000000 1.0
C      1  0.5414220000000  0.4841830000000  0.3502060000000 1.0
C      1  0.4513000000000  0.5922820000000  0.4365850000000 1.0
C      1  0.4848840000000  0.4993380000000  0.4575470000000 1.0
C      1  0.4272010000000  0.4789680000000  0.6007790000000 1.0
C      1  0.3940410000000  0.4725970000000  0.4830610000000 1.0
C      1  0.4931570000000  0.5914070000000  0.5416640000000 1.0
C      1  0.4995640000000  0.5715290000000  0.5613820000000 1.0
C      1  0.5697070000000  0.4746530000000  0.5549350000000 1.0
C      1  0.5614710000000  0.4806160000000  0.4937330000000 1.0
C      1  0.5893980000000  0.4882780000000  0.5344380000000 1.0
C      1  0.5674070000000  0.4031850000000  0.4965100000000 1.0
C      1  0.5860930000000  0.4728780000000  0.5083330000000 1.0
C      1  0.5952330000000  0.4034790000000  0.5328350000000 1.0
C      1  0.5438860000000  0.4942410000000  0.4442920000000 1.0
C      1  0.3897370000000  0.4232810000000  0.4784780000000 1.0
C      1  0.3822760000000  0.5438030000000  0.5008950000000 1.0
C      1  0.5147750000000  0.6032600000000  0.5268350000000 1.0
END
