TITL C-599895-9959-1222 -0.00726220926590472 125000 -1184.20482224142 0 0 192 (C1) n - 1
REM
REM in /home/nfs/bkarasulu/CARBON/AIRSS/Generating-Clusters/TERSOFF/Only-C1/FIRE-HFTN
REM
REM
REM
REM
REM
REM ./C.cell (11c1c37f851c82e70ff6c80c92926a4b)
REM AIRSS Version 0.9.1 bugfix July 2018 build 013d7b7c2542+ Fri, 06 Jul 2018 19:26:36 +0100
REM compiler GCC version 9.2.1 20190827 (Red Hat 9.2.1-1)
REM options -cpp -mtune=generic -march=x86-64 -g -O0 -fpre-include=/usr/include/finclude/math-vector-fortran.h
REM seed 1033289451 808985849 604476471 -809208801 -1017274782 1579170844 978015103 -1445108711 -1646276082 -742984035 -853065492 574607947 -1712520436 2069146261 -2077502487 321589837 -941579819 -1393347175 -602153261 1348610760 -929712268 668174805 -182776353 -190241610 1462286736 793732914 1534504950 -1785283400 749312461 1552281649 263832218 811814300 1889599518
REM
CELL 1.54180   50.00000   50.00000   50.00000   90.00000   90.00000   90.00000
LATT -1
SFAC C  
C      1  0.4016020000000  0.5552640000000  0.4690720000000 1.0
C      1  0.4730070000000  0.4885890000000  0.5729630000000 1.0
C      1  0.5032140000000  0.5136630000000  0.4555280000000 1.0
C      1  0.6081630000000  0.4860750000000  0.5326990000000 1.0
C      1  0.4839820000000  0.6502820000000  0.5367020000000 1.0
C      1  0.4896520000000  0.4339190000000  0.4706790000000 1.0
C      1  0.4899340000000  0.5106640000000  0.3711570000000 1.0
C      1  0.5796040000000  0.6088790000000  0.5651030000000 1.0
C      1  0.4490710000000  0.4993670000000  0.5627740000000 1.0
C      1  0.5051480000000  0.6052750000000  0.3900810000000 1.0
C      1  0.5189840000000  0.5321830000000  0.4975560000000 1.0
C      1  0.4402870000000  0.5917860000000  0.6596140000000 1.0
C      1  0.5216990000000  0.4910330000000  0.5779900000000 1.0
C      1  0.5172040000000  0.5045610000000  0.3761490000000 1.0
C      1  0.5081450000000  0.6250500000000  0.5038000000000 1.0
C      1  0.5382900000000  0.4723980000000  0.4922360000000 1.0
C      1  0.5191820000000  0.4370080000000  0.5438760000000 1.0
C      1  0.4724460000000  0.5071310000000  0.4941560000000 1.0
C      1  0.5286290000000  0.5462820000000  0.5443660000000 1.0
C      1  0.4276100000000  0.5709200000000  0.4048130000000 1.0
C      1  0.5266910000000  0.3800250000000  0.5073390000000 1.0
C      1  0.5638650000000  0.4408860000000  0.5572310000000 1.0
C      1  0.4413590000000  0.4649030000000  0.4071250000000 1.0
C      1  0.3726380000000  0.3620380000000  0.4769550000000 1.0
C      1  0.4933470000000  0.5959320000000  0.6206060000000 1.0
C      1  0.6401460000000  0.5444450000000  0.5651510000000 1.0
C      1  0.4250420000000  0.5265110000000  0.4171630000000 1.0
C      1  0.4570170000000  0.4431370000000  0.5210560000000 1.0
C      1  0.4063180000000  0.4028820000000  0.4200220000000 1.0
C      1  0.6268310000000  0.4698730000000  0.4676240000000 1.0
C      1  0.5693580000000  0.4982760000000  0.5678150000000 1.0
C      1  0.5011390000000  0.5784640000000  0.3819780000000 1.0
C      1  0.4180000000000  0.3923260000000  0.5284050000000 1.0
C      1  0.5631770000000  0.5277890000000  0.4655620000000 1.0
C      1  0.4476220000000  0.6091930000000  0.4964310000000 1.0
C      1  0.5222790000000  0.6007080000000  0.5061450000000 1.0
C      1  0.4284420000000  0.4082220000000  0.5494050000000 1.0
C      1  0.5105510000000  0.5398110000000  0.5654850000000 1.0
C      1  0.3619750000000  0.3664440000000  0.4529080000000 1.0
C      1  0.5961600000000  0.3787410000000  0.4708090000000 1.0
C      1  0.5480900000000  0.6342960000000  0.5970770000000 1.0
C      1  0.4978500000000  0.5168350000000  0.4843520000000 1.0
C      1  0.4509030000000  0.5011560000000  0.4746360000000 1.0
C      1  0.4838190000000  0.6450260000000  0.5629110000000 1.0
C      1  0.4478360000000  0.5257280000000  0.4601090000000 1.0
C      1  0.4791710000000  0.4571850000000  0.5297700000000 1.0
C      1  0.5350390000000  0.4398160000000  0.6006080000000 1.0
C      1  0.3928800000000  0.5502030000000  0.4420010000000 1.0
C      1  0.4507470000000  0.3987040000000  0.5646340000000 1.0
C      1  0.6167200000000  0.5440340000000  0.5164780000000 1.0
C      1  0.5824300000000  0.3654770000000  0.4515470000000 1.0
C      1  0.4533440000000  0.5743930000000  0.6421040000000 1.0
C      1  0.5101280000000  0.4750790000000  0.4900370000000 1.0
C      1  0.4798370000000  0.5372040000000  0.3695840000000 1.0
C      1  0.5040440000000  0.4748020000000  0.4256870000000 1.0
C      1  0.5519820000000  0.4776040000000  0.4677510000000 1.0
C      1  0.5869930000000  0.4026500000000  0.4829170000000 1.0
C      1  0.5105560000000  0.3842130000000  0.5311680000000 1.0
C      1  0.3762550000000  0.5094580000000  0.5266880000000 1.0
C      1  0.4987360000000  0.4772010000000  0.5682360000000 1.0
C      1  0.5451310000000  0.4573950000000  0.4475330000000 1.0
C      1  0.4138740000000  0.4760570000000  0.4520070000000 1.0
C      1  0.5245130000000  0.5555230000000  0.4592740000000 1.0
C      1  0.4119270000000  0.4900930000000  0.5001400000000 1.0
C      1  0.5179280000000  0.5512630000000  0.5187400000000 1.0
C      1  0.5304030000000  0.4771090000000  0.6383430000000 1.0
C      1  0.5258470000000  0.5636760000000  0.3823990000000 1.0
C      1  0.5156710000000  0.4194030000000  0.5943750000000 1.0
C      1  0.4563670000000  0.5842740000000  0.5932220000000 1.0
C      1  0.5812710000000  0.5875280000000  0.5494910000000 1.0
C      1  0.4614680000000  0.4176090000000  0.5109750000000 1.0
C      1  0.5455520000000  0.4015740000000  0.5060020000000 1.0
C      1  0.3995990000000  0.5087150000000  0.5723340000000 1.0
C      1  0.5134860000000  0.5795470000000  0.6313660000000 1.0
C      1  0.5137690000000  0.4094440000000  0.5477630000000 1.0
C      1  0.4261620000000  0.4864680000000  0.4756260000000 1.0
C      1  0.5495520000000  0.6004100000000  0.4997930000000 1.0
C      1  0.5758300000000  0.5631200000000  0.5367880000000 1.0
C      1  0.4846750000000  0.5500970000000  0.5674810000000 1.0
C      1  0.5636170000000  0.4965150000000  0.3650970000000 1.0
C      1  0.5832880000000  0.5658920000000  0.4881200000000 1.0
C      1  0.6308310000000  0.4456910000000  0.5385430000000 1.0
C      1  0.5790170000000  0.4196330000000  0.4100300000000 1.0
C      1  0.4669860000000  0.5845820000000  0.6196840000000 1.0
C      1  0.5370890000000  0.3831880000000  0.4545930000000 1.0
C      1  0.5276830000000  0.5299030000000  0.6427340000000 1.0
C      1  0.3785920000000  0.4053950000000  0.4239050000000 1.0
C      1  0.4267880000000  0.4807180000000  0.5232300000000 1.0
C      1  0.5842510000000  0.4039470000000  0.5334730000000 1.0
C      1  0.6136540000000  0.4335240000000  0.5554350000000 1.0
C      1  0.4774620000000  0.3891680000000  0.5668520000000 1.0
C      1  0.5567610000000  0.5457800000000  0.5489050000000 1.0
C      1  0.5527590000000  0.4526510000000  0.5811380000000 1.0
C      1  0.5912490000000  0.5564010000000  0.5135120000000 1.0
C      1  0.4898410000000  0.4970360000000  0.4350360000000 1.0
C      1  0.5270790000000  0.3698710000000  0.4793250000000 1.0
C      1  0.4563730000000  0.6100480000000  0.5817510000000 1.0
C      1  0.4120660000000  0.3872820000000  0.5013320000000 1.0
C      1  0.6310980000000  0.4676400000000  0.4938300000000 1.0
C      1  0.4548830000000  0.4733780000000  0.3858090000000 1.0
C      1  0.4570530000000  0.5923570000000  0.5170760000000 1.0
C      1  0.5333220000000  0.4253690000000  0.4967010000000 1.0
C      1  0.4763490000000  0.5638960000000  0.3793340000000 1.0
C      1  0.5430580000000  0.4957930000000  0.3840960000000 1.0
C      1  0.5794290000000  0.5516930000000  0.4619940000000 1.0
C      1  0.3685500000000  0.4311230000000  0.4283610000000 1.0
C      1  0.5452480000000  0.4450570000000  0.5357670000000 1.0
C      1  0.3808500000000  0.5094560000000  0.5531780000000 1.0
C      1  0.5389290000000  0.5387140000000  0.4778920000000 1.0
C      1  0.4886520000000  0.5411850000000  0.4213620000000 1.0
C      1  0.4900680000000  0.4607250000000  0.4791330000000 1.0
C      1  0.4194520000000  0.4358080000000  0.5492370000000 1.0
C      1  0.3979020000000  0.5389530000000  0.4941180000000 1.0
C      1  0.5442340000000  0.5565200000000  0.4030040000000 1.0
C      1  0.5878370000000  0.4451510000000  0.4128920000000 1.0
C      1  0.5739730000000  0.5732730000000  0.4409610000000 1.0
C      1  0.5837130000000  0.4970790000000  0.3485170000000 1.0
C      1  0.4850900000000  0.6398480000000  0.5105780000000 1.0
C      1  0.4283860000000  0.6085340000000  0.6756470000000 1.0
C      1  0.6255440000000  0.4673060000000  0.5211960000000 1.0
C      1  0.5909670000000  0.4891380000000  0.5527320000000 1.0
C      1  0.4999730000000  0.4572590000000  0.5480800000000 1.0
C      1  0.4463440000000  0.5486390000000  0.4775870000000 1.0
C      1  0.4730290000000  0.5170710000000  0.4219550000000 1.0
C      1  0.4791240000000  0.6269390000000  0.5837980000000 1.0
C      1  0.5145790000000  0.4214930000000  0.4747800000000 1.0
C      1  0.4445220000000  0.5423580000000  0.5067940000000 1.0
C      1  0.5718850000000  0.5925590000000  0.4851670000000 1.0
C      1  0.5486400000000  0.4812070000000  0.5779050000000 1.0
C      1  0.4883890000000  0.3717270000000  0.5454430000000 1.0
C      1  0.4476250000000  0.5213850000000  0.4322850000000 1.0
C      1  0.5354090000000  0.5352760000000  0.4191310000000 1.0
C      1  0.4980830000000  0.6194920000000  0.6043970000000 1.0
C      1  0.4579710000000  0.5187680000000  0.5162870000000 1.0
C      1  0.3639740000000  0.3828820000000  0.4319560000000 1.0
C      1  0.5229630000000  0.6321960000000  0.6054080000000 1.0
C      1  0.5236900000000  0.5559240000000  0.6384530000000 1.0
C      1  0.4713660000000  0.4895240000000  0.3724930000000 1.0
C      1  0.4510540000000  0.5721140000000  0.3906170000000 1.0
C      1  0.6291270000000  0.5323920000000  0.4950270000000 1.0
C      1  0.4529320000000  0.5468310000000  0.6466810000000 1.0
C      1  0.5011000000000  0.4056880000000  0.5742140000000 1.0
C      1  0.3732940000000  0.5032120000000  0.4436610000000 1.0
C      1  0.4295910000000  0.4047880000000  0.4329160000000 1.0
C      1  0.5128240000000  0.5383510000000  0.4383660000000 1.0
C      1  0.4297790000000  0.4659870000000  0.4310640000000 1.0
C      1  0.4263980000000  0.3998510000000  0.4803820000000 1.0
C      1  0.4631490000000  0.5623570000000  0.5772310000000 1.0
C      1  0.5735740000000  0.4004870000000  0.5079870000000 1.0
C      1  0.5313140000000  0.4113710000000  0.4540370000000 1.0
C      1  0.5291570000000  0.5032810000000  0.6433740000000 1.0
C      1  0.5658180000000  0.5260220000000  0.5666130000000 1.0
C      1  0.5491890000000  0.4862380000000  0.4102370000000 1.0
C      1  0.4000220000000  0.4444060000000  0.5664060000000 1.0
C      1  0.5931160000000  0.4703040000000  0.4259170000000 1.0
C      1  0.4691310000000  0.3935540000000  0.5043460000000 1.0
C      1  0.5315170000000  0.4686570000000  0.4247980000000 1.0
C      1  0.5870420000000  0.4249600000000  0.5521500000000 1.0
C      1  0.4326750000000  0.5961760000000  0.4764100000000 1.0
C      1  0.5323260000000  0.4540850000000  0.6249280000000 1.0
C      1  0.5748060000000  0.5977880000000  0.4572010000000 1.0
C      1  0.5726120000000  0.4912090000000  0.4274120000000 1.0
C      1  0.4415350000000  0.4085810000000  0.4580430000000 1.0
C      1  0.4807710000000  0.5814480000000  0.5222640000000 1.0
C      1  0.5683820000000  0.6257540000000  0.5822340000000 1.0
C      1  0.6147120000000  0.4717230000000  0.4439590000000 1.0
C      1  0.5603720000000  0.3771510000000  0.4379460000000 1.0
C      1  0.3857350000000  0.4782360000000  0.4464750000000 1.0
C      1  0.5678430000000  0.3958650000000  0.4171340000000 1.0
C      1  0.5651370000000  0.5008210000000  0.4552510000000 1.0
C      1  0.4318360000000  0.4530850000000  0.5299450000000 1.0
C      1  0.5508130000000  0.6033080000000  0.4099000000000 1.0
C      1  0.4121260000000  0.5517800000000  0.4197900000000 1.0
C      1  0.4611800000000  0.6340130000000  0.4961660000000 1.0
C      1  0.4666340000000  0.4214000000000  0.4603590000000 1.0
C      1  0.5075540000000  0.5776020000000  0.5149030000000 1.0
C      1  0.6295490000000  0.5446330000000  0.5413420000000 1.0
C      1  0.3716150000000  0.4552110000000  0.4391100000000 1.0
C      1  0.4542080000000  0.5208510000000  0.6483130000000 1.0
C      1  0.3910090000000  0.3701230000000  0.4944450000000 1.0
C      1  0.5176330000000  0.5184760000000  0.5821670000000 1.0
C      1  0.5774090000000  0.4231400000000  0.4652430000000 1.0
C      1  0.4453810000000  0.5004290000000  0.5344690000000 1.0
C      1  0.4272640000000  0.5692760000000  0.4704470000000 1.0
C      1  0.5279310000000  0.6148360000000  0.4012860000000 1.0
C      1  0.3736070000000  0.5296520000000  0.4397750000000 1.0
C      1  0.5596000000000  0.5768190000000  0.4163120000000 1.0
C      1  0.4257600000000  0.5053280000000  0.5774790000000 1.0
C      1  0.5446860000000  0.4495240000000  0.5077720000000 1.0
C      1  0.3918000000000  0.5113110000000  0.5029230000000 1.0
C      1  0.4174820000000  0.5477710000000  0.5143250000000 1.0
C      1  0.5531570000000  0.4305240000000  0.4517480000000 1.0
END
