TITL C-599895-9959-56 -0.0157095865060366 125000 -860.276754783284 0 0 139 (C1) n - 1
REM
REM in /home/nfs/bkarasulu/CARBON/AIRSS/Generating-Clusters/TERSOFF/Only-C1/FIRE-HFTN
REM
REM
REM
REM
REM
REM ./C.cell (11c1c37f851c82e70ff6c80c92926a4b)
REM AIRSS Version 0.9.1 bugfix July 2018 build 013d7b7c2542+ Fri, 06 Jul 2018 19:26:36 +0100
REM compiler GCC version 9.2.1 20190827 (Red Hat 9.2.1-1)
REM options -cpp -mtune=generic -march=x86-64 -g -O0 -fpre-include=/usr/include/finclude/math-vector-fortran.h
REM seed 72418930 1647235774 -808216282 806377512 1336064940 673809052 -428925298 -71456737 98354499 698316720 1658178675 564583148 -784090916 -836665815 -990394516 -401173176 -1863969252 -903709435 261285563 1593898604 1999934009 1860457103 1509132369 -674593860 -24376754 -1953165096 45834344 -1432304682 926694519 -667510051 1758236581 610068864 -1934855490
REM
CELL 1.54180   50.00000   50.00000   50.00000   90.00000   90.00000   90.00000
LATT -1
SFAC C  
C      1  0.4549370000000  0.4674560000000  0.4094560000000 1.0
C      1  0.4835040000000  0.5028980000000  0.4907230000000 1.0
C      1  0.4667340000000  0.4914430000000  0.6042260000000 1.0
C      1  0.4505760000000  0.4479510000000  0.4294000000000 1.0
C      1  0.4420070000000  0.4871120000000  0.5910040000000 1.0
C      1  0.4854350000000  0.4445050000000  0.3794930000000 1.0
C      1  0.4277750000000  0.3860880000000  0.4751260000000 1.0
C      1  0.5490830000000  0.5510990000000  0.5917710000000 1.0
C      1  0.6149140000000  0.5656710000000  0.4539610000000 1.0
C      1  0.4183790000000  0.5544500000000  0.5201300000000 1.0
C      1  0.5766760000000  0.5699480000000  0.4848800000000 1.0
C      1  0.5220260000000  0.5944350000000  0.4393580000000 1.0
C      1  0.4366920000000  0.5665250000000  0.5390440000000 1.0
C      1  0.4132200000000  0.5038320000000  0.5570440000000 1.0
C      1  0.4249150000000  0.4196380000000  0.5104200000000 1.0
C      1  0.4639040000000  0.6171050000000  0.5735930000000 1.0
C      1  0.5886190000000  0.5559670000000  0.5547680000000 1.0
C      1  0.4417930000000  0.5078560000000  0.3843360000000 1.0
C      1  0.5759710000000  0.4360460000000  0.4479850000000 1.0
C      1  0.5730700000000  0.5546590000000  0.5767480000000 1.0
C      1  0.5360360000000  0.4651630000000  0.5723060000000 1.0
C      1  0.4623760000000  0.4191650000000  0.5412050000000 1.0
C      1  0.5091540000000  0.5819970000000  0.5918030000000 1.0
C      1  0.5705020000000  0.4877390000000  0.5409100000000 1.0
C      1  0.4974490000000  0.4967030000000  0.4671980000000 1.0
C      1  0.5705030000000  0.5687030000000  0.4370810000000 1.0
C      1  0.5473080000000  0.5543430000000  0.4303810000000 1.0
C      1  0.4339840000000  0.4621090000000  0.5778760000000 1.0
C      1  0.5731110000000  0.4161470000000  0.5418330000000 1.0
C      1  0.4737310000000  0.5638850000000  0.4604410000000 1.0
C      1  0.5512290000000  0.4868120000000  0.5630520000000 1.0
C      1  0.5141770000000  0.5155610000000  0.6065820000000 1.0
C      1  0.5331830000000  0.4152420000000  0.4721600000000 1.0
C      1  0.5963440000000  0.4413240000000  0.4903570000000 1.0
C      1  0.4770700000000  0.4609050000000  0.5250460000000 1.0
C      1  0.4367160000000  0.4891770000000  0.4047170000000 1.0
C      1  0.5392990000000  0.5127340000000  0.5658760000000 1.0
C      1  0.5338450000000  0.3603940000000  0.5250570000000 1.0
C      1  0.5421320000000  0.5450860000000  0.4996870000000 1.0
C      1  0.5038010000000  0.5141180000000  0.3958900000000 1.0
C      1  0.5286060000000  0.4646460000000  0.5032030000000 1.0
C      1  0.5174450000000  0.4391590000000  0.4661090000000 1.0
C      1  0.5401830000000  0.5258950000000  0.5405740000000 1.0
C      1  0.4995700000000  0.5585090000000  0.4163840000000 1.0
C      1  0.3947270000000  0.5212170000000  0.5451320000000 1.0
C      1  0.4954240000000  0.5409030000000  0.3947020000000 1.0
C      1  0.5798460000000  0.4182610000000  0.4896000000000 1.0
C      1  0.5234370000000  0.3966380000000  0.4934920000000 1.0
C      1  0.4620110000000  0.6443310000000  0.5057660000000 1.0
C      1  0.4694060000000  0.6188680000000  0.5028880000000 1.0
C      1  0.4803220000000  0.4539700000000  0.4969560000000 1.0
C      1  0.5636170000000  0.5125230000000  0.5272200000000 1.0
C      1  0.5350000000000  0.5259600000000  0.5902410000000 1.0
C      1  0.4583180000000  0.4469210000000  0.5405230000000 1.0
C      1  0.4575600000000  0.6428070000000  0.5704410000000 1.0
C      1  0.6100830000000  0.4768110000000  0.4631330000000 1.0
C      1  0.4997970000000  0.5798930000000  0.5061390000000 1.0
C      1  0.5436470000000  0.3831990000000  0.5107230000000 1.0
C      1  0.3985660000000  0.4930230000000  0.4425510000000 1.0
C      1  0.4539990000000  0.6614090000000  0.5515420000000 1.0
C      1  0.5266010000000  0.5418260000000  0.5218310000000 1.0
C      1  0.5475270000000  0.5715880000000  0.4902970000000 1.0
C      1  0.4875940000000  0.5737850000000  0.5758910000000 1.0
C      1  0.3999980000000  0.5319680000000  0.5192070000000 1.0
C      1  0.4190660000000  0.4317660000000  0.4637390000000 1.0
C      1  0.6206030000000  0.4941880000000  0.4442530000000 1.0
C      1  0.5489940000000  0.4800300000000  0.4951150000000 1.0
C      1  0.4761540000000  0.5943480000000  0.5146800000000 1.0
C      1  0.4144020000000  0.4443130000000  0.5240930000000 1.0
C      1  0.5625050000000  0.3978580000000  0.5256560000000 1.0
C      1  0.5877500000000  0.5480900000000  0.5020810000000 1.0
C      1  0.4532400000000  0.5038440000000  0.4916550000000 1.0
C      1  0.3940760000000  0.5126040000000  0.4988380000000 1.0
C      1  0.4942800000000  0.5498030000000  0.5069080000000 1.0
C      1  0.5616540000000  0.4180610000000  0.4671650000000 1.0
C      1  0.5431490000000  0.5056540000000  0.4554370000000 1.0
C      1  0.3928260000000  0.4764110000000  0.4643150000000 1.0
C      1  0.6294760000000  0.5188560000000  0.4394380000000 1.0
C      1  0.5233540000000  0.5876970000000  0.4895940000000 1.0
C      1  0.5462870000000  0.5271540000000  0.4377020000000 1.0
C      1  0.5879960000000  0.5720670000000  0.4588000000000 1.0
C      1  0.5119870000000  0.4584310000000  0.5585730000000 1.0
C      1  0.5568870000000  0.5034660000000  0.4807650000000 1.0
C      1  0.5240580000000  0.5698680000000  0.4250890000000 1.0
C      1  0.4784110000000  0.5629830000000  0.4343050000000 1.0
C      1  0.4926960000000  0.5161050000000  0.5133530000000 1.0
C      1  0.5041240000000  0.4310640000000  0.5607480000000 1.0
C      1  0.4847800000000  0.5463010000000  0.5705930000000 1.0
C      1  0.4794060000000  0.4664620000000  0.3946720000000 1.0
C      1  0.4537720000000  0.3794340000000  0.4797910000000 1.0
C      1  0.3968670000000  0.4630800000000  0.5104640000000 1.0
C      1  0.4557540000000  0.6620710000000  0.5248060000000 1.0
C      1  0.5335120000000  0.5734050000000  0.5987940000000 1.0
C      1  0.4757100000000  0.5469100000000  0.3748980000000 1.0
C      1  0.5378920000000  0.4527190000000  0.4231890000000 1.0
C      1  0.4863640000000  0.5219950000000  0.5598140000000 1.0
C      1  0.4968570000000  0.4884250000000  0.3955550000000 1.0
C      1  0.6291480000000  0.5449460000000  0.4448990000000 1.0
C      1  0.3927210000000  0.4847150000000  0.4917630000000 1.0
C      1  0.4908080000000  0.5023460000000  0.6096710000000 1.0
C      1  0.4958420000000  0.4757530000000  0.5413240000000 1.0
C      1  0.4270660000000  0.5098150000000  0.5812290000000 1.0
C      1  0.4592070000000  0.4559880000000  0.4765070000000 1.0
C      1  0.4281200000000  0.4873390000000  0.5392870000000 1.0
C      1  0.5864100000000  0.4655930000000  0.5329610000000 1.0
C      1  0.4469040000000  0.4817350000000  0.4743140000000 1.0
C      1  0.4538710000000  0.5292320000000  0.3740310000000 1.0
C      1  0.4454690000000  0.4405720000000  0.4561590000000 1.0
C      1  0.5202420000000  0.4877270000000  0.4531450000000 1.0
C      1  0.4705650000000  0.5922060000000  0.5627210000000 1.0
C      1  0.4879540000000  0.4105320000000  0.5502280000000 1.0
C      1  0.4322740000000  0.5574800000000  0.5660710000000 1.0
C      1  0.4148270000000  0.4942480000000  0.4214850000000 1.0
C      1  0.5076550000000  0.4509710000000  0.4899640000000 1.0
C      1  0.4681490000000  0.3935170000000  0.4996040000000 1.0
C      1  0.4502450000000  0.4072650000000  0.5186720000000 1.0
C      1  0.4781320000000  0.5681330000000  0.3579520000000 1.0
C      1  0.6006120000000  0.4636790000000  0.5085100000000 1.0
C      1  0.5223790000000  0.4595900000000  0.4456450000000 1.0
C      1  0.5968450000000  0.4510980000000  0.4616940000000 1.0
C      1  0.4315440000000  0.4582710000000  0.5468840000000 1.0
C      1  0.5822540000000  0.4408600000000  0.5459440000000 1.0
C      1  0.5125350000000  0.3654660000000  0.5413220000000 1.0
C      1  0.4424230000000  0.4985300000000  0.5183660000000 1.0
C      1  0.5630520000000  0.4432060000000  0.4242230000000 1.0
C      1  0.5959490000000  0.5536400000000  0.5288770000000 1.0
C      1  0.5197800000000  0.6016440000000  0.4652260000000 1.0
C      1  0.4711670000000  0.5498060000000  0.4843380000000 1.0
C      1  0.4963010000000  0.3936740000000  0.5058900000000 1.0
C      1  0.4599680000000  0.5843760000000  0.5367880000000 1.0
C      1  0.4492780000000  0.5320900000000  0.4848870000000 1.0
C      1  0.4930800000000  0.5043240000000  0.5391470000000 1.0
C      1  0.6119620000000  0.4837360000000  0.4913540000000 1.0
C      1  0.4983450000000  0.3890730000000  0.5351420000000 1.0
C      1  0.3972310000000  0.4488420000000  0.4596170000000 1.0
C      1  0.5664040000000  0.5257850000000  0.4993490000000 1.0
C      1  0.4314570000000  0.5374860000000  0.5841830000000 1.0
C      1  0.5435750000000  0.4516150000000  0.5948680000000 1.0
C      1  0.4178980000000  0.4115370000000  0.4834090000000 1.0
END
